MODEL 1
REMARK VINA RESULT:      -8.0      0.000      0.000
REMARK  Name = NuBBE_574
REMARK  7 active torsions:
REMARK  status: ('A' for Active; 'I' for Inactive)
REMARK    1  A    between atoms: C_3  and  O_9
REMARK    2  A    between atoms: C_5  and  C_6
REMARK    3  A    between atoms: C_12  and  C_13
REMARK    4  A    between atoms: C_12  and  O_14
REMARK    5  A    between atoms: C_21  and  C_22
REMARK    6  A    between atoms: C_21  and  C_23
REMARK    7  A    between atoms: C_25  and  C_27
REMARK                            x       y       z     vdW  Elec       q    Type
REMARK                         _______ _______ _______ _____ _____    ______ ____
ROOT
ATOM      1  O   LIG A   1      -5.263  -2.718 125.777  0.00  0.00    -0.293 OA
ATOM      2  C   LIG A   1      -6.304  -2.163 126.144  0.00  0.00    +0.176 C 
ATOM      3  C   LIG A   1      -7.210  -1.359 125.148  0.00  0.00    +0.171 C 
ATOM      4  C   LIG A   1      -8.473  -1.867 125.767  0.00  0.00    +0.027 C 
ATOM      5  C   LIG A   1      -8.957  -2.902 125.044  0.00  0.00    -0.004 C 
ATOM      6  C   LIG A   1      -8.223  -4.215 124.818  0.00  0.00    +0.047 C 
ATOM      7  C   LIG A   1      -8.973  -2.132 123.779  0.00  0.00    +0.188 C 
ATOM      8  O   LIG A   1      -9.914  -2.169 122.986  0.00  0.00    -0.287 OA
ATOM      9  C   LIG A   1      -7.812  -1.176 123.759  0.00  0.00    +0.041 C 
ATOM     10  C   LIG A   1      -8.042   0.076 123.254  0.00  0.00    +0.018 C 
ATOM     11  C   LIG A   1      -9.298   0.972 123.501  0.00  0.00    +0.082 C 
ATOM     12  C   LIG A   1      -9.112   2.316 122.772  0.00  0.00    +0.046 C 
ATOM     13  C   LIG A   1      -9.673   1.268 124.999  0.00  0.00    +0.039 C 
ATOM     14  C   LIG A   1      -8.561   1.828 125.924  0.00  0.00    +0.007 C 
ATOM     15  C   LIG A   1      -8.647   1.376 127.374  0.00  0.00    -0.001 C 
ATOM     16  C   LIG A   1      -7.899   0.259 128.188  0.00  0.00    -0.001 C 
ATOM     17  C   LIG A   1      -7.582   1.749 128.391  0.00  0.00    -0.029 C 
ATOM     18  C   LIG A   1      -7.937   2.280 129.757  0.00  0.00    +0.011 C 
ATOM     19  C   LIG A   1      -6.272   2.328 127.881  0.00  0.00    +0.011 C 
ATOM     20  C   LIG A   1      -6.631  -0.585 128.180  0.00  0.00    +0.015 C 
ATOM     21  C   LIG A   1      -6.672  -2.054 127.706  0.00  0.00    +0.056 C 
ATOM     22  C   LIG A   1      -7.890  -2.833 128.256  0.00  0.00    +0.015 C 
ENDROOT
BRANCH   3  23
ATOM     23  O   LIG A   1      -6.597  -0.124 125.460  0.00  0.00    -0.373 OA
ATOM     24  H   LIG A   1      -5.660  -0.333 125.661  0.00  0.00    +0.211 HD
ENDBRANCH   3  23
BRANCH  11  25
ATOM     25  O   LIG A   1     -10.460   0.420 122.877  0.00  0.00    -0.385 OA
ATOM     26  H   LIG A   1     -10.651   0.886 122.040  0.00  0.00    +0.211 HD
ENDBRANCH  11  25
TORSDOF 2
ENDMDL
MODEL 2
REMARK VINA RESULT:      -7.8      2.543      5.197
REMARK  Name = NuBBE_574
REMARK  7 active torsions:
REMARK  status: ('A' for Active; 'I' for Inactive)
REMARK    1  A    between atoms: C_3  and  O_9
REMARK    2  A    between atoms: C_5  and  C_6
REMARK    3  A    between atoms: C_12  and  C_13
REMARK    4  A    between atoms: C_12  and  O_14
REMARK    5  A    between atoms: C_21  and  C_22
REMARK    6  A    between atoms: C_21  and  C_23
REMARK    7  A    between atoms: C_25  and  C_27
REMARK                            x       y       z     vdW  Elec       q    Type
REMARK                         _______ _______ _______ _____ _____    ______ ____
ROOT
ATOM      1  O   LIG A   1      -8.770   4.673 125.384  0.00  0.00    -0.293 OA
ATOM      2  C   LIG A   1      -7.796   3.937 125.197  0.00  0.00    +0.176 C 
ATOM      3  C   LIG A   1      -7.837   2.407 125.537  0.00  0.00    +0.171 C 
ATOM      4  C   LIG A   1      -7.058   2.036 124.315  0.00  0.00    +0.027 C 
ATOM      5  C   LIG A   1      -7.900   1.627 123.339  0.00  0.00    -0.004 C 
ATOM      6  C   LIG A   1      -8.983   2.495 122.714  0.00  0.00    +0.047 C 
ATOM      7  C   LIG A   1      -8.536   0.597 124.191  0.00  0.00    +0.188 C 
ATOM      8  O   LIG A   1      -8.789  -0.540 123.790  0.00  0.00    -0.287 OA
ATOM      9  C   LIG A   1      -8.597   1.087 125.611  0.00  0.00    +0.041 C 
ATOM     10  C   LIG A   1      -8.326   0.177 126.598  0.00  0.00    +0.018 C 
ATOM     11  C   LIG A   1      -7.202  -0.908 126.593  0.00  0.00    +0.082 C 
ATOM     12  C   LIG A   1      -7.238  -1.681 127.924  0.00  0.00    +0.046 C 
ATOM     13  C   LIG A   1      -5.732  -0.404 126.352  0.00  0.00    +0.039 C 
ATOM     14  C   LIG A   1      -5.209   0.748 127.250  0.00  0.00    +0.007 C 
ATOM     15  C   LIG A   1      -4.239   1.701 126.567  0.00  0.00    -0.001 C 
ATOM     16  C   LIG A   1      -4.420   3.121 125.918  0.00  0.00    -0.001 C 
ATOM     17  C   LIG A   1      -3.710   2.940 127.269  0.00  0.00    -0.029 C 
ATOM     18  C   LIG A   1      -2.245   3.298 127.255  0.00  0.00    +0.011 C 
ATOM     19  C   LIG A   1      -4.389   3.383 128.555  0.00  0.00    +0.011 C 
ATOM     20  C   LIG A   1      -5.336   4.337 125.928  0.00  0.00    +0.015 C 
ATOM     21  C   LIG A   1      -6.364   4.551 124.796  0.00  0.00    +0.056 C 
ATOM     22  C   LIG A   1      -5.783   4.269 123.391  0.00  0.00    +0.015 C 
ENDROOT
BRANCH   3  23
ATOM     23  O   LIG A   1      -7.280   2.595 126.823  0.00  0.00    -0.373 OA
ATOM     24  H   LIG A   1      -6.666   1.843 126.962  0.00  0.00    +0.211 HD
ENDBRANCH   3  23
BRANCH  11  25
ATOM     25  O   LIG A   1      -7.464  -1.922 125.619  0.00  0.00    -0.385 OA
ATOM     26  H   LIG A   1      -8.234  -1.677 125.071  0.00  0.00    +0.211 HD
ENDBRANCH  11  25
TORSDOF 2
ENDMDL
MODEL 3
REMARK VINA RESULT:      -7.5      2.017      5.951
REMARK  Name = NuBBE_574
REMARK  7 active torsions:
REMARK  status: ('A' for Active; 'I' for Inactive)
REMARK    1  A    between atoms: C_3  and  O_9
REMARK    2  A    between atoms: C_5  and  C_6
REMARK    3  A    between atoms: C_12  and  C_13
REMARK    4  A    between atoms: C_12  and  O_14
REMARK    5  A    between atoms: C_21  and  C_22
REMARK    6  A    between atoms: C_21  and  C_23
REMARK    7  A    between atoms: C_25  and  C_27
REMARK                            x       y       z     vdW  Elec       q    Type
REMARK                         _______ _______ _______ _____ _____    ______ ____
ROOT
ATOM      1  O   LIG A   1      -5.699   1.823 125.552  0.00  0.00    -0.293 OA
ATOM      2  C   LIG A   1      -6.694   1.136 125.806  0.00  0.00    +0.176 C 
ATOM      3  C   LIG A   1      -6.770   0.228 127.083  0.00  0.00    +0.171 C 
ATOM      4  C   LIG A   1      -8.205   0.567 127.332  0.00  0.00    +0.027 C 
ATOM      5  C   LIG A   1      -8.294   1.534 128.272  0.00  0.00    -0.004 C 
ATOM      6  C   LIG A   1      -7.711   2.933 128.129  0.00  0.00    +0.047 C 
ATOM      7  C   LIG A   1      -7.498   0.775 129.262  0.00  0.00    +0.188 C 
ATOM      8  O   LIG A   1      -7.808   0.696 130.451  0.00  0.00    -0.287 OA
ATOM      9  C   LIG A   1      -6.440  -0.023 128.550  0.00  0.00    +0.041 C 
ATOM     10  C   LIG A   1      -6.202  -1.292 129.007  0.00  0.00    +0.018 C 
ATOM     11  C   LIG A   1      -7.265  -2.342 129.459  0.00  0.00    +0.082 C 
ATOM     12  C   LIG A   1      -6.550  -3.647 129.857  0.00  0.00    +0.046 C 
ATOM     13  C   LIG A   1      -8.398  -2.693 128.427  0.00  0.00    +0.039 C 
ATOM     14  C   LIG A   1      -7.967  -3.110 126.997  0.00  0.00    +0.007 C 
ATOM     15  C   LIG A   1      -8.919  -2.681 125.891  0.00  0.00    -0.001 C 
ATOM     16  C   LIG A   1      -8.900  -1.481 124.876  0.00  0.00    -0.001 C 
ATOM     17  C   LIG A   1      -8.598  -2.919 124.425  0.00  0.00    -0.029 C 
ATOM     18  C   LIG A   1      -9.614  -3.498 123.472  0.00  0.00    +0.011 C 
ATOM     19  C   LIG A   1      -7.180  -3.323 124.055  0.00  0.00    +0.011 C 
ATOM     20  C   LIG A   1      -7.959  -0.481 124.217  0.00  0.00    +0.015 C 
ATOM     21  C   LIG A   1      -7.878   0.973 124.731  0.00  0.00    +0.056 C 
ATOM     22  C   LIG A   1      -9.266   1.586 125.029  0.00  0.00    +0.015 C 
ENDROOT
BRANCH   3  23
ATOM     23  O   LIG A   1      -6.319  -0.920 126.392  0.00  0.00    -0.373 OA
ATOM     24  H   LIG A   1      -5.538  -1.244 126.891  0.00  0.00    +0.211 HD
ENDBRANCH   3  23
BRANCH  11  25
ATOM     25  O   LIG A   1      -7.909  -1.941 130.672  0.00  0.00    -0.385 OA
ATOM     26  H   LIG A   1      -7.384  -2.224 131.445  0.00  0.00    +0.211 HD
ENDBRANCH  11  25
TORSDOF 2
ENDMDL
MODEL 4
REMARK VINA RESULT:      -7.4      1.684      3.947
REMARK  Name = NuBBE_574
REMARK  7 active torsions:
REMARK  status: ('A' for Active; 'I' for Inactive)
REMARK    1  A    between atoms: C_3  and  O_9
REMARK    2  A    between atoms: C_5  and  C_6
REMARK    3  A    between atoms: C_12  and  C_13
REMARK    4  A    between atoms: C_12  and  O_14
REMARK    5  A    between atoms: C_21  and  C_22
REMARK    6  A    between atoms: C_21  and  C_23
REMARK    7  A    between atoms: C_25  and  C_27
REMARK                            x       y       z     vdW  Elec       q    Type
REMARK                         _______ _______ _______ _____ _____    ______ ____
ROOT
ATOM      1  O   LIG A   1      -6.593  -1.522 123.065  0.00  0.00    -0.293 OA
ATOM      2  C   LIG A   1      -7.220  -1.409 124.123  0.00  0.00    +0.176 C 
ATOM      3  C   LIG A   1      -7.264  -0.060 124.920  0.00  0.00    +0.171 C 
ATOM      4  C   LIG A   1      -8.709  -0.226 125.272  0.00  0.00    +0.027 C 
ATOM      5  C   LIG A   1      -9.475   0.495 124.422  0.00  0.00    -0.004 C 
ATOM      6  C   LIG A   1      -9.538   0.273 122.917  0.00  0.00    +0.047 C 
ATOM      7  C   LIG A   1      -8.755   1.759 124.696  0.00  0.00    +0.188 C 
ATOM      8  O   LIG A   1      -9.331   2.833 124.869  0.00  0.00    -0.287 OA
ATOM      9  C   LIG A   1      -7.300   1.464 124.942  0.00  0.00    +0.041 C 
ATOM     10  C   LIG A   1      -6.682   2.166 125.943  0.00  0.00    +0.018 C 
ATOM     11  C   LIG A   1      -7.269   2.509 127.350  0.00  0.00    +0.082 C 
ATOM     12  C   LIG A   1      -6.211   3.275 128.166  0.00  0.00    +0.046 C 
ATOM     13  C   LIG A   1      -7.786   1.304 128.216  0.00  0.00    +0.039 C 
ATOM     14  C   LIG A   1      -6.822   0.109 128.436  0.00  0.00    +0.007 C 
ATOM     15  C   LIG A   1      -7.499  -1.250 128.530  0.00  0.00    -0.001 C 
ATOM     16  C   LIG A   1      -7.706  -2.411 127.491  0.00  0.00    -0.001 C 
ATOM     17  C   LIG A   1      -6.697  -2.536 128.644  0.00  0.00    -0.029 C 
ATOM     18  C   LIG A   1      -7.038  -3.600 129.657  0.00  0.00    +0.011 C 
ATOM     19  C   LIG A   1      -5.204  -2.479 128.363  0.00  0.00    +0.011 C 
ATOM     20  C   LIG A   1      -7.142  -2.975 126.193  0.00  0.00    +0.015 C 
ATOM     21  C   LIG A   1      -7.849  -2.699 124.849  0.00  0.00    +0.056 C 
ATOM     22  C   LIG A   1      -9.386  -2.851 124.932  0.00  0.00    +0.015 C 
ENDROOT
BRANCH   3  23
ATOM     23  O   LIG A   1      -6.183  -0.425 125.755  0.00  0.00    -0.373 OA
ATOM     24  H   LIG A   1      -5.744   0.416 126.008  0.00  0.00    +0.211 HD
ENDBRANCH   3  23
BRANCH  11  25
ATOM     25  O   LIG A   1      -8.344   3.448 127.248  0.00  0.00    -0.385 OA
ATOM     26  H   LIG A   1      -8.615   3.555 126.316  0.00  0.00    +0.211 HD
ENDBRANCH  11  25
TORSDOF 2
ENDMDL
MODEL 5
REMARK VINA RESULT:      -7.4      1.744      4.568
REMARK  Name = NuBBE_574
REMARK  7 active torsions:
REMARK  status: ('A' for Active; 'I' for Inactive)
REMARK    1  A    between atoms: C_3  and  O_9
REMARK    2  A    between atoms: C_5  and  C_6
REMARK    3  A    between atoms: C_12  and  C_13
REMARK    4  A    between atoms: C_12  and  O_14
REMARK    5  A    between atoms: C_21  and  C_22
REMARK    6  A    between atoms: C_21  and  C_23
REMARK    7  A    between atoms: C_25  and  C_27
REMARK                            x       y       z     vdW  Elec       q    Type
REMARK                         _______ _______ _______ _____ _____    ______ ____
ROOT
ATOM      1  O   LIG A   1     -10.882   1.172 124.960  0.00  0.00    -0.293 OA
ATOM      2  C   LIG A   1      -9.673   1.244 124.720  0.00  0.00    +0.176 C 
ATOM      3  C   LIG A   1      -8.671   0.125 125.171  0.00  0.00    +0.171 C 
ATOM      4  C   LIG A   1      -7.887   0.208 123.899  0.00  0.00    +0.027 C 
ATOM      5  C   LIG A   1      -8.276  -0.773 123.054  0.00  0.00    -0.004 C 
ATOM      6  C   LIG A   1      -9.682  -0.922 122.492  0.00  0.00    +0.047 C 
ATOM      7  C   LIG A   1      -8.032  -1.849 124.042  0.00  0.00    +0.188 C 
ATOM      8  O   LIG A   1      -7.476  -2.908 123.753  0.00  0.00    -0.287 OA
ATOM      9  C   LIG A   1      -8.354  -1.345 125.422  0.00  0.00    +0.041 C 
ATOM     10  C   LIG A   1      -7.510  -1.717 126.435  0.00  0.00    +0.018 C 
ATOM     11  C   LIG A   1      -5.950  -1.781 126.382  0.00  0.00    +0.082 C 
ATOM     12  C   LIG A   1      -5.415  -2.210 127.761  0.00  0.00    +0.046 C 
ATOM     13  C   LIG A   1      -5.201  -0.470 125.945  0.00  0.00    +0.039 C 
ATOM     14  C   LIG A   1      -5.549   0.843 126.695  0.00  0.00    +0.007 C 
ATOM     15  C   LIG A   1      -5.486   2.102 125.843  0.00  0.00    -0.001 C 
ATOM     16  C   LIG A   1      -6.590   2.954 125.119  0.00  0.00    -0.001 C 
ATOM     17  C   LIG A   1      -5.894   3.458 126.393  0.00  0.00    -0.029 C 
ATOM     18  C   LIG A   1      -5.043   4.687 126.191  0.00  0.00    +0.011 C 
ATOM     19  C   LIG A   1      -6.649   3.503 127.711  0.00  0.00    +0.011 C 
ATOM     20  C   LIG A   1      -8.083   3.253 125.144  0.00  0.00    +0.015 C 
ATOM     21  C   LIG A   1      -9.031   2.591 124.120  0.00  0.00    +0.056 C 
ATOM     22  C   LIG A   1      -8.460   2.587 122.683  0.00  0.00    +0.015 C 
ENDROOT
BRANCH   3  23
ATOM     23  O   LIG A   1      -8.337   0.795 126.371  0.00  0.00    -0.373 OA
ATOM     24  H   LIG A   1      -8.042   0.096 126.994  0.00  0.00    +0.211 HD
ENDBRANCH   3  23
BRANCH  11  25
ATOM     25  O   LIG A   1      -5.503  -2.830 125.518  0.00  0.00    -0.385 OA
ATOM     26  H   LIG A   1      -5.617  -3.699 125.950  0.00  0.00    +0.211 HD
ENDBRANCH  11  25
TORSDOF 2
ENDMDL
MODEL 6
REMARK VINA RESULT:      -7.2      5.458      7.590
REMARK  Name = NuBBE_574
REMARK  7 active torsions:
REMARK  status: ('A' for Active; 'I' for Inactive)
REMARK    1  A    between atoms: C_3  and  O_9
REMARK    2  A    between atoms: C_5  and  C_6
REMARK    3  A    between atoms: C_12  and  C_13
REMARK    4  A    between atoms: C_12  and  O_14
REMARK    5  A    between atoms: C_21  and  C_22
REMARK    6  A    between atoms: C_21  and  C_23
REMARK    7  A    between atoms: C_25  and  C_27
REMARK                            x       y       z     vdW  Elec       q    Type
REMARK                         _______ _______ _______ _____ _____    ______ ____
ROOT
ATOM      1  O   LIG A   1      -5.192   2.605 127.942  0.00  0.00    -0.293 OA
ATOM      2  C   LIG A   1      -5.346   3.143 129.043  0.00  0.00    +0.176 C 
ATOM      3  C   LIG A   1      -6.695   3.834 129.446  0.00  0.00    +0.171 C 
ATOM      4  C   LIG A   1      -6.627   3.322 130.850  0.00  0.00    +0.027 C 
ATOM      5  C   LIG A   1      -7.397   2.218 130.976  0.00  0.00    -0.004 C 
ATOM      6  C   LIG A   1      -7.181   0.922 130.207  0.00  0.00    +0.047 C 
ATOM      7  C   LIG A   1      -8.610   2.892 130.458  0.00  0.00    +0.188 C 
ATOM      8  O   LIG A   1      -9.720   2.758 130.973  0.00  0.00    -0.287 OA
ATOM      9  C   LIG A   1      -8.218   3.889 129.403  0.00  0.00    +0.041 C 
ATOM     10  C   LIG A   1      -8.876   5.091 129.405  0.00  0.00    +0.018 C 
ATOM     11  C   LIG A   1      -9.258   5.950 130.652  0.00  0.00    +0.082 C 
ATOM     12  C   LIG A   1      -9.951   7.243 130.182  0.00  0.00    +0.046 C 
ATOM     13  C   LIG A   1      -8.090   6.341 131.628  0.00  0.00    +0.039 C 
ATOM     14  C   LIG A   1      -6.833   7.012 131.017  0.00  0.00    +0.007 C 
ATOM     15  C   LIG A   1      -5.522   6.665 131.707  0.00  0.00    -0.001 C 
ATOM     16  C   LIG A   1      -4.378   5.642 131.368  0.00  0.00    -0.001 C 
ATOM     17  C   LIG A   1      -4.186   7.155 131.175  0.00  0.00    -0.029 C 
ATOM     18  C   LIG A   1      -3.147   7.770 132.079  0.00  0.00    +0.011 C 
ATOM     19  C   LIG A   1      -4.142   7.748 129.776  0.00  0.00    +0.011 C 
ATOM     20  C   LIG A   1      -3.778   4.852 130.212  0.00  0.00    +0.015 C 
ATOM     21  C   LIG A   1      -4.101   3.352 130.040  0.00  0.00    +0.056 C 
ATOM     22  C   LIG A   1      -4.053   2.567 131.371  0.00  0.00    +0.015 C 
ENDROOT
BRANCH   3  23
ATOM     23  O   LIG A   1      -6.258   5.113 129.031  0.00  0.00    -0.373 OA
ATOM     24  H   LIG A   1      -5.624   4.955 128.299  0.00  0.00    +0.211 HD
ENDBRANCH   3  23
BRANCH  11  25
ATOM     25  O   LIG A   1     -10.267   5.307 131.437  0.00  0.00    -0.385 OA
ATOM     26  H   LIG A   1     -10.976   4.960 130.862  0.00  0.00    +0.211 HD
ENDBRANCH  11  25
TORSDOF 2
ENDMDL
MODEL 7
REMARK VINA RESULT:      -6.8      5.458      7.926
REMARK  Name = NuBBE_574
REMARK  7 active torsions:
REMARK  status: ('A' for Active; 'I' for Inactive)
REMARK    1  A    between atoms: C_3  and  O_9
REMARK    2  A    between atoms: C_5  and  C_6
REMARK    3  A    between atoms: C_12  and  C_13
REMARK    4  A    between atoms: C_12  and  O_14
REMARK    5  A    between atoms: C_21  and  C_22
REMARK    6  A    between atoms: C_21  and  C_23
REMARK    7  A    between atoms: C_25  and  C_27
REMARK                            x       y       z     vdW  Elec       q    Type
REMARK                         _______ _______ _______ _____ _____    ______ ____
ROOT
ATOM      1  O   LIG A   1      -6.622   2.715 132.178  0.00  0.00    -0.293 OA
ATOM      2  C   LIG A   1      -6.266   3.703 131.528  0.00  0.00    +0.176 C 
ATOM      3  C   LIG A   1      -5.502   3.566 130.165  0.00  0.00    +0.171 C 
ATOM      4  C   LIG A   1      -6.252   4.701 129.543  0.00  0.00    +0.027 C 
ATOM      5  C   LIG A   1      -7.263   4.224 128.783  0.00  0.00    -0.004 C 
ATOM      6  C   LIG A   1      -8.424   3.394 129.313  0.00  0.00    +0.047 C 
ATOM      7  C   LIG A   1      -6.373   3.354 127.980  0.00  0.00    +0.188 C 
ATOM      8  O   LIG A   1      -6.462   3.254 126.756  0.00  0.00    -0.287 OA
ATOM      9  C   LIG A   1      -5.262   2.834 128.850  0.00  0.00    +0.041 C 
ATOM     10  C   LIG A   1      -4.010   2.778 128.297  0.00  0.00    +0.018 C 
ATOM     11  C   LIG A   1      -3.338   3.852 127.383  0.00  0.00    +0.082 C 
ATOM     12  C   LIG A   1      -1.912   3.393 127.028  0.00  0.00    +0.046 C 
ATOM     13  C   LIG A   1      -3.261   5.316 127.951  0.00  0.00    +0.039 C 
ATOM     14  C   LIG A   1      -2.646   5.512 129.361  0.00  0.00    +0.007 C 
ATOM     15  C   LIG A   1      -3.258   6.643 130.174  0.00  0.00    -0.001 C 
ATOM     16  C   LIG A   1      -4.334   6.671 131.319  0.00  0.00    -0.001 C 
ATOM     17  C   LIG A   1      -2.844   6.907 131.612  0.00  0.00    -0.029 C 
ATOM     18  C   LIG A   1      -2.519   8.295 132.105  0.00  0.00    +0.011 C 
ATOM     19  C   LIG A   1      -2.029   5.845 132.332  0.00  0.00    +0.011 C 
ATOM     20  C   LIG A   1      -4.979   5.791 132.381  0.00  0.00    +0.015 C 
ATOM     21  C   LIG A   1      -6.379   5.182 132.148  0.00  0.00    +0.056 C 
ATOM     22  C   LIG A   1      -7.381   6.189 131.537  0.00  0.00    +0.015 C 
ENDROOT
BRANCH   3  23
ATOM     23  O   LIG A   1      -4.231   3.676 130.775  0.00  0.00    -0.373 OA
ATOM     24  H   LIG A   1      -3.656   3.028 130.314  0.00  0.00    +0.211 HD
ENDBRANCH   3  23
BRANCH  11  25
ATOM     25  O   LIG A   1      -3.984   3.927 126.109  0.00  0.00    -0.385 OA
ATOM     26  H   LIG A   1      -4.747   3.319 126.079  0.00  0.00    +0.211 HD
ENDBRANCH  11  25
TORSDOF 2
ENDMDL
MODEL 8
REMARK VINA RESULT:      -6.8      1.939      4.365
REMARK  Name = NuBBE_574
REMARK  7 active torsions:
REMARK  status: ('A' for Active; 'I' for Inactive)
REMARK    1  A    between atoms: C_3  and  O_9
REMARK    2  A    between atoms: C_5  and  C_6
REMARK    3  A    between atoms: C_12  and  C_13
REMARK    4  A    between atoms: C_12  and  O_14
REMARK    5  A    between atoms: C_21  and  C_22
REMARK    6  A    between atoms: C_21  and  C_23
REMARK    7  A    between atoms: C_25  and  C_27
REMARK                            x       y       z     vdW  Elec       q    Type
REMARK                         _______ _______ _______ _____ _____    ______ ____
ROOT
ATOM      1  O   LIG A   1      -8.651   3.313 126.017  0.00  0.00    -0.293 OA
ATOM      2  C   LIG A   1      -7.755   2.471 126.137  0.00  0.00    +0.176 C 
ATOM      3  C   LIG A   1      -8.026   0.938 125.942  0.00  0.00    +0.171 C 
ATOM      4  C   LIG A   1      -6.730   0.721 125.229  0.00  0.00    +0.027 C 
ATOM      5  C   LIG A   1      -6.935   0.713 123.893  0.00  0.00    -0.004 C 
ATOM      6  C   LIG A   1      -7.485   1.888 123.097  0.00  0.00    +0.047 C 
ATOM      7  C   LIG A   1      -7.964  -0.349 123.963  0.00  0.00    +0.188 C 
ATOM      8  O   LIG A   1      -8.004  -1.295 123.176  0.00  0.00    -0.287 OA
ATOM      9  C   LIG A   1      -8.756  -0.197 125.233  0.00  0.00    +0.041 C 
ATOM     10  C   LIG A   1      -9.086  -1.345 125.904  0.00  0.00    +0.018 C 
ATOM     11  C   LIG A   1      -8.173  -2.589 126.143  0.00  0.00    +0.082 C 
ATOM     12  C   LIG A   1      -8.942  -3.628 126.981  0.00  0.00    +0.046 C 
ATOM     13  C   LIG A   1      -6.785  -2.326 126.833  0.00  0.00    +0.039 C 
ATOM     14  C   LIG A   1      -6.780  -1.531 128.164  0.00  0.00    +0.007 C 
ATOM     15  C   LIG A   1      -5.561  -0.645 128.376  0.00  0.00    -0.001 C 
ATOM     16  C   LIG A   1      -5.316   0.895 128.175  0.00  0.00    -0.001 C 
ATOM     17  C   LIG A   1      -5.444   0.278 129.577  0.00  0.00    -0.029 C 
ATOM     18  C   LIG A   1      -4.186   0.350 130.406  0.00  0.00    +0.011 C 
ATOM     19  C   LIG A   1      -6.688   0.531 130.413  0.00  0.00    +0.011 C 
ATOM     20  C   LIG A   1      -6.052   2.225 128.082  0.00  0.00    +0.015 C 
ATOM     21  C   LIG A   1      -6.309   2.882 126.709  0.00  0.00    +0.056 C 
ATOM     22  C   LIG A   1      -5.078   2.829 125.774  0.00  0.00    +0.015 C 
ENDROOT
BRANCH   3  23
ATOM     23  O   LIG A   1      -8.235   0.718 127.323  0.00  0.00    -0.373 OA
ATOM     24  H   LIG A   1      -8.954   1.332 127.587  0.00  0.00    +0.211 HD
ENDBRANCH   3  23
BRANCH  11  25
ATOM     25  O   LIG A   1      -7.912  -3.284 124.921  0.00  0.00    -0.385 OA
ATOM     26  H   LIG A   1      -8.705  -3.776 124.633  0.00  0.00    +0.211 HD
ENDBRANCH  11  25
TORSDOF 2
ENDMDL
MODEL 9
REMARK VINA RESULT:      -6.7      2.071      4.951
REMARK  Name = NuBBE_574
REMARK  7 active torsions:
REMARK  status: ('A' for Active; 'I' for Inactive)
REMARK    1  A    between atoms: C_3  and  O_9
REMARK    2  A    between atoms: C_5  and  C_6
REMARK    3  A    between atoms: C_12  and  C_13
REMARK    4  A    between atoms: C_12  and  O_14
REMARK    5  A    between atoms: C_21  and  C_22
REMARK    6  A    between atoms: C_21  and  C_23
REMARK    7  A    between atoms: C_25  and  C_27
REMARK                            x       y       z     vdW  Elec       q    Type
REMARK                         _______ _______ _______ _____ _____    ______ ____
ROOT
ATOM      1  O   LIG A   1      -9.650  -1.774 125.434  0.00  0.00    -0.293 OA
ATOM      2  C   LIG A   1      -8.628  -1.083 125.368  0.00  0.00    +0.176 C 
ATOM      3  C   LIG A   1      -8.303   0.021 126.434  0.00  0.00    +0.171 C 
ATOM      4  C   LIG A   1      -6.845  -0.311 126.446  0.00  0.00    +0.027 C 
ATOM      5  C   LIG A   1      -6.564  -1.113 127.498  0.00  0.00    -0.004 C 
ATOM      6  C   LIG A   1      -7.156  -2.499 127.709  0.00  0.00    +0.047 C 
ATOM      7  C   LIG A   1      -7.151  -0.179 128.485  0.00  0.00    +0.188 C 
ATOM      8  O   LIG A   1      -6.609   0.087 129.558  0.00  0.00    -0.287 OA
ATOM      9  C   LIG A   1      -8.334   0.520 127.874  0.00  0.00    +0.041 C 
ATOM     10  C   LIG A   1      -8.484   1.853 128.151  0.00  0.00    +0.018 C 
ATOM     11  C   LIG A   1      -7.357   2.934 128.200  0.00  0.00    +0.082 C 
ATOM     12  C   LIG A   1      -7.986   4.306 128.508  0.00  0.00    +0.046 C 
ATOM     13  C   LIG A   1      -6.456   3.077 126.920  0.00  0.00    +0.039 C 
ATOM     14  C   LIG A   1      -7.167   3.265 125.555  0.00  0.00    +0.007 C 
ATOM     15  C   LIG A   1      -6.454   2.633 124.370  0.00  0.00    -0.001 C 
ATOM     16  C   LIG A   1      -6.668   1.283 123.593  0.00  0.00    -0.001 C 
ATOM     17  C   LIG A   1      -7.063   2.635 122.977  0.00  0.00    -0.029 C 
ATOM     18  C   LIG A   1      -6.262   3.020 121.759  0.00  0.00    +0.011 C 
ATOM     19  C   LIG A   1      -8.528   3.011 122.834  0.00  0.00    +0.011 C 
ATOM     20  C   LIG A   1      -7.716   0.214 123.311  0.00  0.00    +0.015 C 
ATOM     21  C   LIG A   1      -7.684  -1.132 124.067  0.00  0.00    +0.056 C 
ATOM     22  C   LIG A   1      -6.261  -1.726 124.182  0.00  0.00    +0.015 C 
ENDROOT
BRANCH   3  23
ATOM     23  O   LIG A   1      -8.891   1.051 125.664  0.00  0.00    -0.373 OA
ATOM     24  H   LIG A   1      -8.153   1.643 125.401  0.00  0.00    +0.211 HD
ENDBRANCH   3  23
BRANCH  11  25
ATOM     25  O   LIG A   1      -6.481   2.720 129.311  0.00  0.00    -0.385 OA
ATOM     26  H   LIG A   1      -6.021   3.549 129.546  0.00  0.00    +0.211 HD
ENDBRANCH  11  25
TORSDOF 2
ENDMDL
