MODEL 1
REMARK VINA RESULT:      -7.7      0.000      0.000
REMARK  Name = NuBBE_340
REMARK  6 active torsions:
REMARK  status: ('A' for Active; 'I' for Inactive)
REMARK    1  A    between atoms: C_1  and  S_2
REMARK    2  A    between atoms: S_2  and  C_3
REMARK    3  A    between atoms: N_14  and  C_15
REMARK    4  A    between atoms: C_15  and  C_16
REMARK    5  A    between atoms: C_16  and  C_17
REMARK    6  A    between atoms: N_19  and  C_20
REMARK                            x       y       z     vdW  Elec       q    Type
REMARK                         _______ _______ _______ _____ _____    ______ ____
ROOT
ATOM      1  C   LIG A   1      -4.844   2.569 126.240  0.00  0.00    +0.090 A 
ATOM      2  C   LIG A   1      -5.508   3.316 125.280  0.00  0.00    +0.028 A 
ATOM      3  C   LIG A   1      -6.407   2.666 124.449  0.00  0.00    +0.019 A 
ATOM      4  C   LIG A   1      -6.642   1.277 124.567  0.00  0.00    +0.034 A 
ATOM      5  S   LIG A   1      -7.817   0.645 123.403  0.00  0.00    -0.086 S 
ATOM      6  C   LIG A   1      -8.019  -1.031 123.943  0.00  0.00    +0.034 A 
ATOM      7  C   LIG A   1      -9.049  -1.734 123.280  0.00  0.00    +0.017 A 
ATOM      8  C   LIG A   1      -9.319  -3.061 123.578  0.00  0.00    +0.001 A 
ATOM      9  C   LIG A   1      -8.540  -3.702 124.524  0.00  0.00    +0.002 A 
ATOM     10  C   LIG A   1      -7.505  -3.010 125.174  0.00  0.00    +0.024 A 
ATOM     11  C   LIG A   1      -7.221  -1.646 124.932  0.00  0.00    +0.048 A 
ATOM     12  N   LIG A   1      -6.220  -0.919 125.652  0.00  0.00    -0.298 N 
ATOM     13  C   LIG A   1      -5.968   0.486 125.525  0.00  0.00    +0.050 A 
ATOM     14  C   LIG A   1      -5.055   1.183 126.353  0.00  0.00    +0.051 A 
ENDROOT
BRANCH   1  16
ATOM     15  C   LIG A   1      -2.112   3.106 126.580  0.00  0.00    +0.200 C 
ATOM     16  S   LIG A   1      -3.698   3.393 127.321  0.00  0.00    -0.006 S 
ATOM     17  O   LIG A   1      -3.746   2.697 128.588  0.00  0.00    -0.170 OA
ATOM     18  O   LIG A   1      -3.964   4.819 127.239  0.00  0.00    -0.170 OA
ENDBRANCH   1  16
BRANCH  12  19
ATOM     19  C   LIG A   1      -5.354  -1.693 126.587  0.00  0.00    +0.112 C 
BRANCH  19  20
ATOM     20  C   LIG A   1      -5.871  -1.605 128.036  0.00  0.00    +0.038 C 
BRANCH  20  21
ATOM     21  C   LIG A   1      -6.179  -2.989 128.674  0.00  0.00    +0.058 C 
ATOM     22  N   LIG A   1      -5.314  -3.361 129.815  0.00  0.00    -0.302 NA
ATOM     23  C   LIG A   1      -3.915  -3.567 129.470  0.00  0.00    +0.105 C 
ATOM     24  C   LIG A   1      -5.471  -2.472 130.971  0.00  0.00    +0.084 C 
ATOM     25  C   LIG A   1      -6.909  -2.512 131.490  0.00  0.00    +0.015 C 
ATOM     26  C   LIG A   1      -7.936  -2.285 130.386  0.00  0.00    +0.003 C 
ATOM     27  C   LIG A   1      -7.633  -3.148 129.164  0.00  0.00    +0.019 C 
ENDBRANCH  20  21
ENDBRANCH  19  20
ENDBRANCH  12  19
TORSDOF 4
ENDMDL
MODEL 2
REMARK VINA RESULT:      -7.5      3.055      4.129
REMARK  Name = NuBBE_340
REMARK  6 active torsions:
REMARK  status: ('A' for Active; 'I' for Inactive)
REMARK    1  A    between atoms: C_1  and  S_2
REMARK    2  A    between atoms: S_2  and  C_3
REMARK    3  A    between atoms: N_14  and  C_15
REMARK    4  A    between atoms: C_15  and  C_16
REMARK    5  A    between atoms: C_16  and  C_17
REMARK    6  A    between atoms: N_19  and  C_20
REMARK                            x       y       z     vdW  Elec       q    Type
REMARK                         _______ _______ _______ _____ _____    ______ ____
ROOT
ATOM      1  C   LIG A   1      -6.431   2.425 124.646  0.00  0.00    +0.090 A 
ATOM      2  C   LIG A   1      -6.863   1.799 123.488  0.00  0.00    +0.028 A 
ATOM      3  C   LIG A   1      -7.354   0.507 123.586  0.00  0.00    +0.019 A 
ATOM      4  C   LIG A   1      -7.411  -0.164 124.828  0.00  0.00    +0.034 A 
ATOM      5  S   LIG A   1      -8.060  -1.809 124.730  0.00  0.00    -0.086 S 
ATOM      6  C   LIG A   1      -8.176  -2.272 126.436  0.00  0.00    +0.034 A 
ATOM      7  C   LIG A   1      -8.834  -3.500 126.660  0.00  0.00    +0.017 A 
ATOM      8  C   LIG A   1      -8.989  -4.009 127.941  0.00  0.00    +0.001 A 
ATOM      9  C   LIG A   1      -8.460  -3.302 129.005  0.00  0.00    +0.002 A 
ATOM     10  C   LIG A   1      -7.791  -2.087 128.784  0.00  0.00    +0.024 A 
ATOM     11  C   LIG A   1      -7.646  -1.511 127.501  0.00  0.00    +0.048 A 
ATOM     12  N   LIG A   1      -7.035  -0.235 127.285  0.00  0.00    -0.298 N 
ATOM     13  C   LIG A   1      -6.962   0.442 126.024  0.00  0.00    +0.050 A 
ATOM     14  C   LIG A   1      -6.464   1.761 125.885  0.00  0.00    +0.051 A 
ENDROOT
BRANCH   1  16
ATOM     15  C   LIG A   1      -7.014   5.062 125.404  0.00  0.00    +0.200 C 
ATOM     16  S   LIG A   1      -5.811   4.089 124.536  0.00  0.00    -0.006 S 
ATOM     17  O   LIG A   1      -5.847   4.455 123.137  0.00  0.00    -0.170 OA
ATOM     18  O   LIG A   1      -4.574   4.148 125.295  0.00  0.00    -0.170 OA
ENDBRANCH   1  16
BRANCH  12  19
ATOM     19  C   LIG A   1      -6.401   0.428 128.461  0.00  0.00    +0.112 C 
BRANCH  19  20
ATOM     20  C   LIG A   1      -7.367   1.422 129.134  0.00  0.00    +0.038 C 
BRANCH  20  21
ATOM     21  C   LIG A   1      -7.119   1.598 130.659  0.00  0.00    +0.058 C 
ATOM     22  N   LIG A   1      -7.784   2.767 131.273  0.00  0.00    -0.302 NA
ATOM     23  C   LIG A   1      -7.293   4.055 130.804  0.00  0.00    +0.105 C 
ATOM     24  C   LIG A   1      -9.248   2.688 131.229  0.00  0.00    +0.084 C 
ATOM     25  C   LIG A   1      -9.744   1.461 131.995  0.00  0.00    +0.015 C 
ATOM     26  C   LIG A   1      -9.037   0.178 131.567  0.00  0.00    +0.003 C 
ATOM     27  C   LIG A   1      -7.524   0.375 131.509  0.00  0.00    +0.019 C 
ENDBRANCH  20  21
ENDBRANCH  19  20
ENDBRANCH  12  19
TORSDOF 4
ENDMDL
MODEL 3
REMARK VINA RESULT:      -7.5      7.275     10.155
REMARK  Name = NuBBE_340
REMARK  6 active torsions:
REMARK  status: ('A' for Active; 'I' for Inactive)
REMARK    1  A    between atoms: C_1  and  S_2
REMARK    2  A    between atoms: S_2  and  C_3
REMARK    3  A    between atoms: N_14  and  C_15
REMARK    4  A    between atoms: C_15  and  C_16
REMARK    5  A    between atoms: C_16  and  C_17
REMARK    6  A    between atoms: N_19  and  C_20
REMARK                            x       y       z     vdW  Elec       q    Type
REMARK                         _______ _______ _______ _____ _____    ______ ____
ROOT
ATOM      1  C   LIG A   1      -9.845   6.823 130.545  0.00  0.00    +0.090 A 
ATOM      2  C   LIG A   1     -10.656   6.214 131.488  0.00  0.00    +0.028 A 
ATOM      3  C   LIG A   1     -10.059   5.679 132.619  0.00  0.00    +0.019 A 
ATOM      4  C   LIG A   1      -8.660   5.744 132.810  0.00  0.00    +0.034 A 
ATOM      5  S   LIG A   1      -8.103   4.991 134.313  0.00  0.00    -0.086 S 
ATOM      6  C   LIG A   1      -6.383   5.415 134.333  0.00  0.00    +0.034 A 
ATOM      7  C   LIG A   1      -5.716   5.077 135.530  0.00  0.00    +0.017 A 
ATOM      8  C   LIG A   1      -4.362   5.328 135.693  0.00  0.00    +0.001 A 
ATOM      9  C   LIG A   1      -3.660   5.896 134.646  0.00  0.00    +0.002 A 
ATOM     10  C   LIG A   1      -4.317   6.219 133.447  0.00  0.00    +0.024 A 
ATOM     11  C   LIG A   1      -5.704   6.019 133.252  0.00  0.00    +0.048 A 
ATOM     12  N   LIG A   1      -6.389   6.423 132.062  0.00  0.00    -0.298 N 
ATOM     13  C   LIG A   1      -7.806   6.345 131.858  0.00  0.00    +0.050 A 
ATOM     14  C   LIG A   1      -8.450   6.877 130.715  0.00  0.00    +0.051 A 
ENDROOT
BRANCH   1  16
ATOM     15  C   LIG A   1     -12.072   8.307 129.704  0.00  0.00    +0.200 C 
ATOM     16  S   LIG A   1     -10.600   7.526 129.096  0.00  0.00    -0.006 S 
ATOM     17  O   LIG A   1     -10.984   6.418 128.248  0.00  0.00    -0.170 OA
ATOM     18  O   LIG A   1      -9.721   8.575 128.607  0.00  0.00    -0.170 OA
ENDBRANCH   1  16
BRANCH  12  19
ATOM     19  C   LIG A   1      -5.558   6.939 130.936  0.00  0.00    +0.112 C 
BRANCH  19  20
ATOM     20  C   LIG A   1      -5.091   5.798 130.013  0.00  0.00    +0.038 C 
BRANCH  20  21
ATOM     21  C   LIG A   1      -3.624   5.351 130.265  0.00  0.00    +0.058 C 
ATOM     22  N   LIG A   1      -3.374   3.901 130.111  0.00  0.00    -0.302 NA
ATOM     23  C   LIG A   1      -4.048   3.066 131.094  0.00  0.00    +0.105 C 
ATOM     24  C   LIG A   1      -3.587   3.421 128.742  0.00  0.00    +0.084 C 
ATOM     25  C   LIG A   1      -2.640   4.126 127.770  0.00  0.00    +0.015 C 
ATOM     26  C   LIG A   1      -2.680   5.644 127.911  0.00  0.00    +0.003 C 
ATOM     27  C   LIG A   1      -2.585   6.065 129.375  0.00  0.00    +0.019 C 
ENDBRANCH  20  21
ENDBRANCH  19  20
ENDBRANCH  12  19
TORSDOF 4
ENDMDL
MODEL 4
REMARK VINA RESULT:      -7.5      2.833      5.613
REMARK  Name = NuBBE_340
REMARK  6 active torsions:
REMARK  status: ('A' for Active; 'I' for Inactive)
REMARK    1  A    between atoms: C_1  and  S_2
REMARK    2  A    between atoms: S_2  and  C_3
REMARK    3  A    between atoms: N_14  and  C_15
REMARK    4  A    between atoms: C_15  and  C_16
REMARK    5  A    between atoms: C_16  and  C_17
REMARK    6  A    between atoms: N_19  and  C_20
REMARK                            x       y       z     vdW  Elec       q    Type
REMARK                         _______ _______ _______ _____ _____    ______ ____
ROOT
ATOM      1  C   LIG A   1      -5.239  -2.338 129.703  0.00  0.00    +0.090 A 
ATOM      2  C   LIG A   1      -6.245  -3.152 130.200  0.00  0.00    +0.028 A 
ATOM      3  C   LIG A   1      -7.298  -3.479 129.360  0.00  0.00    +0.019 A 
ATOM      4  C   LIG A   1      -7.355  -2.995 128.033  0.00  0.00    +0.034 A 
ATOM      5  S   LIG A   1      -8.788  -3.522 127.136  0.00  0.00    -0.086 S 
ATOM      6  C   LIG A   1      -8.453  -2.923 125.503  0.00  0.00    +0.034 A 
ATOM      7  C   LIG A   1      -9.374  -3.357 124.525  0.00  0.00    +0.017 A 
ATOM      8  C   LIG A   1      -9.258  -2.959 123.202  0.00  0.00    +0.001 A 
ATOM      9  C   LIG A   1      -8.232  -2.099 122.854  0.00  0.00    +0.002 A 
ATOM     10  C   LIG A   1      -7.323  -1.653 123.827  0.00  0.00    +0.024 A 
ATOM     11  C   LIG A   1      -7.379  -2.065 125.179  0.00  0.00    +0.048 A 
ATOM     12  N   LIG A   1      -6.406  -1.675 126.153  0.00  0.00    -0.298 N 
ATOM     13  C   LIG A   1      -6.353  -2.151 127.504  0.00  0.00    +0.050 A 
ATOM     14  C   LIG A   1      -5.295  -1.835 128.392  0.00  0.00    +0.051 A 
ENDROOT
BRANCH   1  16
ATOM     15  C   LIG A   1      -3.986  -0.161 130.952  0.00  0.00    +0.200 C 
ATOM     16  S   LIG A   1      -3.875  -1.922 130.766  0.00  0.00    -0.006 S 
ATOM     17  O   LIG A   1      -2.667  -2.231 130.034  0.00  0.00    -0.170 OA
ATOM     18  O   LIG A   1      -4.135  -2.514 132.068  0.00  0.00    -0.170 OA
ENDBRANCH   1  16
BRANCH  12  19
ATOM     19  C   LIG A   1      -5.384  -0.672 125.735  0.00  0.00    +0.112 C 
BRANCH  19  20
ATOM     20  C   LIG A   1      -5.737   0.737 126.248  0.00  0.00    +0.038 C 
BRANCH  20  21
ATOM     21  C   LIG A   1      -6.798   1.471 125.379  0.00  0.00    +0.058 C 
ATOM     22  N   LIG A   1      -7.872   2.147 126.138  0.00  0.00    -0.302 NA
ATOM     23  C   LIG A   1      -8.750   1.247 126.872  0.00  0.00    +0.105 C 
ATOM     24  C   LIG A   1      -7.383   3.245 126.977  0.00  0.00    +0.084 C 
ATOM     25  C   LIG A   1      -6.718   4.323 126.121  0.00  0.00    +0.015 C 
ATOM     26  C   LIG A   1      -5.671   3.752 125.170  0.00  0.00    +0.003 C 
ATOM     27  C   LIG A   1      -6.208   2.532 124.426  0.00  0.00    +0.019 C 
ENDBRANCH  20  21
ENDBRANCH  19  20
ENDBRANCH  12  19
TORSDOF 4
ENDMDL
MODEL 5
REMARK VINA RESULT:      -7.3      3.000      5.597
REMARK  Name = NuBBE_340
REMARK  6 active torsions:
REMARK  status: ('A' for Active; 'I' for Inactive)
REMARK    1  A    between atoms: C_1  and  S_2
REMARK    2  A    between atoms: S_2  and  C_3
REMARK    3  A    between atoms: N_14  and  C_15
REMARK    4  A    between atoms: C_15  and  C_16
REMARK    5  A    between atoms: C_16  and  C_17
REMARK    6  A    between atoms: N_19  and  C_20
REMARK                            x       y       z     vdW  Elec       q    Type
REMARK                         _______ _______ _______ _____ _____    ______ ____
ROOT
ATOM      1  C   LIG A   1      -8.522   0.458 124.022  0.00  0.00    +0.090 A 
ATOM      2  C   LIG A   1      -9.219   1.645 123.861  0.00  0.00    +0.028 A 
ATOM      3  C   LIG A   1      -8.690   2.797 124.421  0.00  0.00    +0.019 A 
ATOM      4  C   LIG A   1      -7.476   2.769 125.145  0.00  0.00    +0.034 A 
ATOM      5  S   LIG A   1      -6.984   4.344 125.787  0.00  0.00    -0.086 S 
ATOM      6  C   LIG A   1      -5.375   4.000 126.443  0.00  0.00    +0.034 A 
ATOM      7  C   LIG A   1      -4.669   5.142 126.877  0.00  0.00    +0.017 A 
ATOM      8  C   LIG A   1      -3.402   5.036 127.431  0.00  0.00    +0.001 A 
ATOM      9  C   LIG A   1      -2.846   3.779 127.581  0.00  0.00    +0.002 A 
ATOM     10  C   LIG A   1      -3.553   2.639 127.166  0.00  0.00    +0.024 A 
ATOM     11  C   LIG A   1      -4.828   2.703 126.558  0.00  0.00    +0.048 A 
ATOM     12  N   LIG A   1      -5.513   1.549 126.061  0.00  0.00    -0.298 N 
ATOM     13  C   LIG A   1      -6.752   1.571 125.340  0.00  0.00    +0.050 A 
ATOM     14  C   LIG A   1      -7.324   0.414 124.756  0.00  0.00    +0.051 A 
ENDROOT
BRANCH   1  16
ATOM     15  C   LIG A   1      -7.798  -1.762 122.467  0.00  0.00    +0.200 C 
ATOM     16  S   LIG A   1      -9.183  -1.025 123.295  0.00  0.00    -0.006 S 
ATOM     17  O   LIG A   1     -10.145  -0.608 122.298  0.00  0.00    -0.170 OA
ATOM     18  O   LIG A   1      -9.565  -1.914 124.379  0.00  0.00    -0.170 OA
ENDBRANCH   1  16
BRANCH  12  19
ATOM     19  C   LIG A   1      -4.902   0.218 126.341  0.00  0.00    +0.112 C 
BRANCH  19  20
ATOM     20  C   LIG A   1      -5.587  -0.475 127.534  0.00  0.00    +0.038 C 
BRANCH  20  21
ATOM     21  C   LIG A   1      -5.654  -2.023 127.404  0.00  0.00    +0.058 C 
ATOM     22  N   LIG A   1      -5.449  -2.769 128.664  0.00  0.00    -0.302 NA
ATOM     23  C   LIG A   1      -4.115  -2.638 129.232  0.00  0.00    +0.105 C 
ATOM     24  C   LIG A   1      -6.497  -2.522 129.659  0.00  0.00    +0.084 C 
ATOM     25  C   LIG A   1      -7.862  -2.952 129.121  0.00  0.00    +0.015 C 
ATOM     26  C   LIG A   1      -8.160  -2.369 127.743  0.00  0.00    +0.003 C 
ATOM     27  C   LIG A   1      -6.973  -2.548 126.800  0.00  0.00    +0.019 C 
ENDBRANCH  20  21
ENDBRANCH  19  20
ENDBRANCH  12  19
TORSDOF 4
ENDMDL
MODEL 6
REMARK VINA RESULT:      -7.3      3.190      6.185
REMARK  Name = NuBBE_340
REMARK  6 active torsions:
REMARK  status: ('A' for Active; 'I' for Inactive)
REMARK    1  A    between atoms: C_1  and  S_2
REMARK    2  A    between atoms: S_2  and  C_3
REMARK    3  A    between atoms: N_14  and  C_15
REMARK    4  A    between atoms: C_15  and  C_16
REMARK    5  A    between atoms: C_16  and  C_17
REMARK    6  A    between atoms: N_19  and  C_20
REMARK                            x       y       z     vdW  Elec       q    Type
REMARK                         _______ _______ _______ _____ _____    ______ ____
ROOT
ATOM      1  C   LIG A   1      -8.172   1.910 129.794  0.00  0.00    +0.090 A 
ATOM      2  C   LIG A   1      -8.792   1.931 131.033  0.00  0.00    +0.028 A 
ATOM      3  C   LIG A   1      -8.665   0.818 131.848  0.00  0.00    +0.019 A 
ATOM      4  C   LIG A   1      -7.929  -0.315 131.433  0.00  0.00    +0.034 A 
ATOM      5  S   LIG A   1      -7.902  -1.630 132.619  0.00  0.00    -0.086 S 
ATOM      6  C   LIG A   1      -6.765  -2.775 131.888  0.00  0.00    +0.034 A 
ATOM      7  C   LIG A   1      -6.421  -3.863 132.719  0.00  0.00    +0.017 A 
ATOM      8  C   LIG A   1      -5.555  -4.854 132.283  0.00  0.00    +0.001 A 
ATOM      9  C   LIG A   1      -5.049  -4.777 130.999  0.00  0.00    +0.002 A 
ATOM     10  C   LIG A   1      -5.401  -3.705 130.163  0.00  0.00    +0.024 A 
ATOM     11  C   LIG A   1      -6.247  -2.651 130.580  0.00  0.00    +0.048 A 
ATOM     12  N   LIG A   1      -6.541  -1.517 129.757  0.00  0.00    -0.298 N 
ATOM     13  C   LIG A   1      -7.300  -0.373 130.169  0.00  0.00    +0.050 A 
ATOM     14  C   LIG A   1      -7.454   0.781 129.362  0.00  0.00    +0.051 A 
ENDROOT
BRANCH   1  16
ATOM     15  C   LIG A   1      -6.786   4.207 128.973  0.00  0.00    +0.200 C 
ATOM     16  S   LIG A   1      -8.316   3.338 128.743  0.00  0.00    -0.006 S 
ATOM     17  O   LIG A   1      -9.388   4.146 129.282  0.00  0.00    -0.170 OA
ATOM     18  O   LIG A   1      -8.347   2.870 127.367  0.00  0.00    -0.170 OA
ENDBRANCH   1  16
BRANCH  12  19
ATOM     19  C   LIG A   1      -6.043  -1.544 128.352  0.00  0.00    +0.112 C 
BRANCH  19  20
ATOM     20  C   LIG A   1      -6.985  -2.348 127.436  0.00  0.00    +0.038 C 
BRANCH  20  21
ATOM     21  C   LIG A   1      -7.460  -1.560 126.183  0.00  0.00    +0.058 C 
ATOM     22  N   LIG A   1      -6.905  -2.033 124.896  0.00  0.00    -0.302 NA
ATOM     23  C   LIG A   1      -5.468  -1.852 124.757  0.00  0.00    +0.105 C 
ATOM     24  C   LIG A   1      -7.324  -3.395 124.552  0.00  0.00    +0.084 C 
ATOM     25  C   LIG A   1      -8.846  -3.473 124.418  0.00  0.00    +0.015 C 
ATOM     26  C   LIG A   1      -9.571  -2.884 125.624  0.00  0.00    +0.003 C 
ATOM     27  C   LIG A   1      -8.992  -1.523 126.004  0.00  0.00    +0.019 C 
ENDBRANCH  20  21
ENDBRANCH  19  20
ENDBRANCH  12  19
TORSDOF 4
ENDMDL
MODEL 7
REMARK VINA RESULT:      -7.2      2.228      5.387
REMARK  Name = NuBBE_340
REMARK  6 active torsions:
REMARK  status: ('A' for Active; 'I' for Inactive)
REMARK    1  A    between atoms: C_1  and  S_2
REMARK    2  A    between atoms: S_2  and  C_3
REMARK    3  A    between atoms: N_14  and  C_15
REMARK    4  A    between atoms: C_15  and  C_16
REMARK    5  A    between atoms: C_16  and  C_17
REMARK    6  A    between atoms: N_19  and  C_20
REMARK                            x       y       z     vdW  Elec       q    Type
REMARK                         _______ _______ _______ _____ _____    ______ ____
ROOT
ATOM      1  C   LIG A   1      -5.137   3.123 127.877  0.00  0.00    +0.090 A 
ATOM      2  C   LIG A   1      -4.045   3.124 128.730  0.00  0.00    +0.028 A 
ATOM      3  C   LIG A   1      -3.833   2.007 129.524  0.00  0.00    +0.019 A 
ATOM      4  C   LIG A   1      -4.706   0.897 129.476  0.00  0.00    +0.034 A 
ATOM      5  S   LIG A   1      -4.261  -0.416 130.577  0.00  0.00    -0.086 S 
ATOM      6  C   LIG A   1      -5.410  -1.689 130.131  0.00  0.00    +0.034 A 
ATOM      7  C   LIG A   1      -5.166  -2.934 130.750  0.00  0.00    +0.017 A 
ATOM      8  C   LIG A   1      -5.988  -4.026 130.516  0.00  0.00    +0.001 A 
ATOM      9  C   LIG A   1      -7.079  -3.870 129.680  0.00  0.00    +0.002 A 
ATOM     10  C   LIG A   1      -7.333  -2.629 129.074  0.00  0.00    +0.024 A 
ATOM     11  C   LIG A   1      -6.498  -1.501 129.251  0.00  0.00    +0.048 A 
ATOM     12  N   LIG A   1      -6.712  -0.260 128.571  0.00  0.00    -0.298 N 
ATOM     13  C   LIG A   1      -5.837   0.875 128.629  0.00  0.00    +0.050 A 
ATOM     14  C   LIG A   1      -6.024   2.033 127.835  0.00  0.00    +0.051 A 
ENDROOT
BRANCH   1  16
ATOM     15  C   LIG A   1      -4.853   4.033 125.239  0.00  0.00    +0.200 C 
ATOM     16  S   LIG A   1      -5.413   4.544 126.843  0.00  0.00    -0.006 S 
ATOM     17  O   LIG A   1      -4.534   5.587 127.325  0.00  0.00    -0.170 OA
ATOM     18  O   LIG A   1      -6.848   4.753 126.757  0.00  0.00    -0.170 OA
ENDBRANCH   1  16
BRANCH  12  19
ATOM     19  C   LIG A   1      -7.957  -0.129 127.761  0.00  0.00    +0.112 C 
BRANCH  19  20
ATOM     20  C   LIG A   1      -7.797  -0.779 126.374  0.00  0.00    +0.038 C 
BRANCH  20  21
ATOM     21  C   LIG A   1      -9.138  -1.254 125.747  0.00  0.00    +0.058 C 
ATOM     22  N   LIG A   1      -9.309  -0.936 124.313  0.00  0.00    -0.302 NA
ATOM     23  C   LIG A   1      -9.401   0.487 124.018  0.00  0.00    +0.105 C 
ATOM     24  C   LIG A   1      -8.336  -1.614 123.451  0.00  0.00    +0.084 C 
ATOM     25  C   LIG A   1      -8.473  -3.132 123.574  0.00  0.00    +0.015 C 
ATOM     26  C   LIG A   1      -8.459  -3.606 125.024  0.00  0.00    +0.003 C 
ATOM     27  C   LIG A   1      -9.398  -2.769 125.888  0.00  0.00    +0.019 C 
ENDBRANCH  20  21
ENDBRANCH  19  20
ENDBRANCH  12  19
TORSDOF 4
ENDMDL
MODEL 8
REMARK VINA RESULT:      -7.2      3.042      3.998
REMARK  Name = NuBBE_340
REMARK  6 active torsions:
REMARK  status: ('A' for Active; 'I' for Inactive)
REMARK    1  A    between atoms: C_1  and  S_2
REMARK    2  A    between atoms: S_2  and  C_3
REMARK    3  A    between atoms: N_14  and  C_15
REMARK    4  A    between atoms: C_15  and  C_16
REMARK    5  A    between atoms: C_16  and  C_17
REMARK    6  A    between atoms: N_19  and  C_20
REMARK                            x       y       z     vdW  Elec       q    Type
REMARK                         _______ _______ _______ _____ _____    ______ ____
ROOT
ATOM      1  C   LIG A   1      -4.824   3.009 127.237  0.00  0.00    +0.090 A 
ATOM      2  C   LIG A   1      -5.039   2.796 125.885  0.00  0.00    +0.028 A 
ATOM      3  C   LIG A   1      -5.669   1.623 125.498  0.00  0.00    +0.019 A 
ATOM      4  C   LIG A   1      -6.080   0.663 126.451  0.00  0.00    +0.034 A 
ATOM      5  S   LIG A   1      -6.854  -0.765 125.745  0.00  0.00    -0.086 S 
ATOM      6  C   LIG A   1      -7.408  -1.642 127.181  0.00  0.00    +0.034 A 
ATOM      7  C   LIG A   1      -8.223  -2.760 126.899  0.00  0.00    +0.017 A 
ATOM      8  C   LIG A   1      -8.721  -3.560 127.916  0.00  0.00    +0.001 A 
ATOM      9  C   LIG A   1      -8.383  -3.261 129.223  0.00  0.00    +0.002 A 
ATOM     10  C   LIG A   1      -7.560  -2.159 129.506  0.00  0.00    +0.024 A 
ATOM     11  C   LIG A   1      -7.064  -1.292 128.505  0.00  0.00    +0.048 A 
ATOM     12  N   LIG A   1      -6.292  -0.123 128.799  0.00  0.00    -0.298 N 
ATOM     13  C   LIG A   1      -5.860   0.845 127.835  0.00  0.00    +0.050 A 
ATOM     14  C   LIG A   1      -5.211   2.052 128.193  0.00  0.00    +0.051 A 
ENDROOT
BRANCH   1  16
ATOM     15  C   LIG A   1      -4.294   4.578 129.502  0.00  0.00    +0.200 C 
ATOM     16  S   LIG A   1      -4.029   4.515 127.748  0.00  0.00    -0.006 S 
ATOM     17  O   LIG A   1      -4.760   5.602 127.134  0.00  0.00    -0.170 OA
ATOM     18  O   LIG A   1      -2.601   4.355 127.530  0.00  0.00    -0.170 OA
ENDBRANCH   1  16
BRANCH  12  19
ATOM     19  C   LIG A   1      -5.883   0.087 130.218  0.00  0.00    +0.112 C 
BRANCH  19  20
ATOM     20  C   LIG A   1      -6.787   1.121 130.916  0.00  0.00    +0.038 C 
BRANCH  20  21
ATOM     21  C   LIG A   1      -7.607   0.536 132.100  0.00  0.00    +0.058 C 
ATOM     22  N   LIG A   1      -7.434   1.235 133.392  0.00  0.00    -0.302 NA
ATOM     23  C   LIG A   1      -6.097   1.131 133.958  0.00  0.00    +0.105 C 
ATOM     24  C   LIG A   1      -7.915   2.619 133.368  0.00  0.00    +0.084 C 
ATOM     25  C   LIG A   1      -9.411   2.664 133.053  0.00  0.00    +0.015 C 
ATOM     26  C   LIG A   1      -9.772   1.857 131.810  0.00  0.00    +0.003 C 
ATOM     27  C   LIG A   1      -9.127   0.474 131.843  0.00  0.00    +0.019 C 
ENDBRANCH  20  21
ENDBRANCH  19  20
ENDBRANCH  12  19
TORSDOF 4
ENDMDL
MODEL 9
REMARK VINA RESULT:      -7.2      2.709      5.516
REMARK  Name = NuBBE_340
REMARK  6 active torsions:
REMARK  status: ('A' for Active; 'I' for Inactive)
REMARK    1  A    between atoms: C_1  and  S_2
REMARK    2  A    between atoms: S_2  and  C_3
REMARK    3  A    between atoms: N_14  and  C_15
REMARK    4  A    between atoms: C_15  and  C_16
REMARK    5  A    between atoms: C_16  and  C_17
REMARK    6  A    between atoms: N_19  and  C_20
REMARK                            x       y       z     vdW  Elec       q    Type
REMARK                         _______ _______ _______ _____ _____    ______ ____
ROOT
ATOM      1  C   LIG A   1      -7.703   3.123 127.047  0.00  0.00    +0.090 A 
ATOM      2  C   LIG A   1      -8.222   3.345 128.312  0.00  0.00    +0.028 A 
ATOM      3  C   LIG A   1      -8.020   2.375 129.282  0.00  0.00    +0.019 A 
ATOM      4  C   LIG A   1      -7.311   1.187 128.995  0.00  0.00    +0.034 A 
ATOM      5  S   LIG A   1      -7.176   0.079 130.370  0.00  0.00    -0.086 S 
ATOM      6  C   LIG A   1      -6.092  -1.173 129.741  0.00  0.00    +0.034 A 
ATOM      7  C   LIG A   1      -5.673  -2.115 130.705  0.00  0.00    +0.017 A 
ATOM      8  C   LIG A   1      -4.836  -3.167 130.365  0.00  0.00    +0.001 A 
ATOM      9  C   LIG A   1      -4.436  -3.299 129.048  0.00  0.00    +0.002 A 
ATOM     10  C   LIG A   1      -4.863  -2.373 128.083  0.00  0.00    +0.024 A 
ATOM     11  C   LIG A   1      -5.682  -1.262 128.393  0.00  0.00    +0.048 A 
ATOM     12  N   LIG A   1      -6.051  -0.273 127.426  0.00  0.00    -0.298 N 
ATOM     13  C   LIG A   1      -6.784   0.926 127.710  0.00  0.00    +0.050 A 
ATOM     14  C   LIG A   1      -7.013   1.936 126.744  0.00  0.00    +0.051 A 
ENDROOT
BRANCH   1  16
ATOM     15  C   LIG A   1      -6.300   4.882 125.371  0.00  0.00    +0.200 C 
ATOM     16  S   LIG A   1      -7.943   4.365 125.797  0.00  0.00    -0.006 S 
ATOM     17  O   LIG A   1      -8.622   5.473 126.434  0.00  0.00    -0.170 OA
ATOM     18  O   LIG A   1      -8.509   3.711 124.629  0.00  0.00    -0.170 OA
ENDBRANCH   1  16
BRANCH  12  19
ATOM     19  C   LIG A   1      -5.667  -0.526 126.007  0.00  0.00    +0.112 C 
BRANCH  19  20
ATOM     20  C   LIG A   1      -6.552  -1.615 125.371  0.00  0.00    +0.038 C 
BRANCH  20  21
ATOM     21  C   LIG A   1      -8.054  -1.225 125.280  0.00  0.00    +0.058 C 
ATOM     22  N   LIG A   1      -8.521  -0.831 123.933  0.00  0.00    -0.302 NA
ATOM     23  C   LIG A   1      -7.927   0.398 123.425  0.00  0.00    +0.105 C 
ATOM     24  C   LIG A   1      -8.450  -1.921 122.955  0.00  0.00    +0.084 C 
ATOM     25  C   LIG A   1      -9.331  -3.093 123.390  0.00  0.00    +0.015 C 
ATOM     26  C   LIG A   1      -9.063  -3.526 124.828  0.00  0.00    +0.003 C 
ATOM     27  C   LIG A   1      -9.021  -2.324 125.768  0.00  0.00    +0.019 C 
ENDBRANCH  20  21
ENDBRANCH  19  20
ENDBRANCH  12  19
TORSDOF 4
ENDMDL
