MODEL 1
REMARK VINA RESULT:      -9.2      0.000      0.000
REMARK  Name = NuBBE_1061
REMARK  9 active torsions:
REMARK  status: ('A' for Active; 'I' for Inactive)
REMARK    1  A    between atoms: C_1  and  C_2
REMARK    2  A    between atoms: C_2  and  C_3
REMARK    3  A    between atoms: C_4  and  O_6
REMARK    4  A    between atoms: C_9  and  C_10
REMARK    5  A    between atoms: C_14  and  C_32
REMARK    6  A    between atoms: C_15  and  C_29
REMARK    7  A    between atoms: C_18  and  C_19
REMARK    8  A    between atoms: C_21  and  C_23
REMARK    9  A    between atoms: C_24  and  C_26
REMARK                            x       y       z     vdW  Elec       q    Type
REMARK                         _______ _______ _______ _____ _____    ______ ____
ROOT
ATOM      1  C   LIG A   1      -3.958  -2.797 129.675  0.00  0.00    +0.014 C 
ATOM      2  C   LIG A   1      -5.397  -2.253 129.411  0.00  0.00    -0.006 C 
ATOM      3  C   LIG A   1      -5.246  -0.722 129.455  0.00  0.00    +0.014 C 
ATOM      4  C   LIG A   1      -6.308  -2.921 130.475  0.00  0.00    +0.120 C 
ATOM      5  C   LIG A   1      -7.799  -2.803 130.174  0.00  0.00    +0.032 C 
ATOM      6  C   LIG A   1      -8.185  -3.358 128.729  0.00  0.00    +0.010 C 
ATOM      7  C   LIG A   1      -7.441  -2.504 127.615  0.00  0.00    -0.018 C 
ATOM      8  C   LIG A   1      -8.211  -1.187 127.912  0.00  0.00    +0.012 C 
ATOM      9  C   LIG A   1      -5.939  -2.761 128.057  0.00  0.00    +0.004 C 
ATOM     10  C   LIG A   1      -4.963  -2.661 126.930  0.00  0.00    +0.005 C 
ATOM     11  C   LIG A   1      -5.476  -3.602 125.868  0.00  0.00    +0.008 C 
ATOM     12  C   LIG A   1      -6.298  -2.842 124.718  0.00  0.00    -0.013 C 
ATOM     13  C   LIG A   1      -6.555  -1.421 123.973  0.00  0.00    -0.004 C 
ATOM     14  C   LIG A   1      -5.658  -0.264 124.576  0.00  0.00    +0.012 C 
ATOM     15  C   LIG A   1      -6.413   0.451 125.725  0.00  0.00    +0.008 C 
ATOM     16  C   LIG A   1      -7.707   1.201 125.251  0.00  0.00    -0.025 C 
ATOM     17  C   LIG A   1      -8.965   1.044 126.135  0.00  0.00    +0.012 C 
ATOM     18  C   LIG A   1      -8.026   0.642 123.841  0.00  0.00    +0.025 C 
ATOM     19  C   LIG A   1      -8.977   1.483 122.978  0.00  0.00    -0.004 C 
ATOM     20  C   LIG A   1     -10.463   1.248 123.215  0.00  0.00    +0.008 C 
ATOM     21  C   LIG A   1      -8.513   2.987 123.061  0.00  0.00    -0.011 C 
ATOM     22  C   LIG A   1      -7.125   3.199 122.403  0.00  0.00    +0.008 C 
ATOM     23  C   LIG A   1      -8.423   3.513 124.502  0.00  0.00    +0.004 C 
ATOM     24  C   LIG A   1      -7.421   2.709 125.326  0.00  0.00    +0.007 C 
ATOM     25  C   LIG A   1      -6.418  -1.596 122.370  0.00  0.00    +0.016 C 
ATOM     26  C   LIG A   1      -7.993  -0.893 123.959  0.00  0.00    -0.056 C 
ATOM     27  C   LIG A   1      -9.035  -1.739 124.037  0.00  0.00    +0.046 C 
ATOM     28  C   LIG A   1      -4.752  -2.928 124.063  0.00  0.00    +0.013 C 
ATOM     29  C   LIG A   1      -7.609  -2.936 125.926  0.00  0.00    +0.073 C 
ATOM     30  C   LIG A   1      -8.961  -2.498 125.326  0.00  0.00    +0.160 C 
ATOM     31  O   LIG A   1     -10.051  -2.820 125.859  0.00  0.00    -0.292 OA
ENDROOT
BRANCH   4  32
ATOM     32  O   LIG A   1      -6.027  -2.433 131.779  0.00  0.00    -0.391 OA
ATOM     33  H   LIG A   1      -6.793  -1.893 132.044  0.00  0.00    +0.210 HD
ENDBRANCH   4  32
TORSDOF 1
ENDMDL
MODEL 2
REMARK VINA RESULT:      -8.7      4.066      5.859
REMARK  Name = NuBBE_1061
REMARK  9 active torsions:
REMARK  status: ('A' for Active; 'I' for Inactive)
REMARK    1  A    between atoms: C_1  and  C_2
REMARK    2  A    between atoms: C_2  and  C_3
REMARK    3  A    between atoms: C_4  and  O_6
REMARK    4  A    between atoms: C_9  and  C_10
REMARK    5  A    between atoms: C_14  and  C_32
REMARK    6  A    between atoms: C_15  and  C_29
REMARK    7  A    between atoms: C_18  and  C_19
REMARK    8  A    between atoms: C_21  and  C_23
REMARK    9  A    between atoms: C_24  and  C_26
REMARK                            x       y       z     vdW  Elec       q    Type
REMARK                         _______ _______ _______ _____ _____    ______ ____
ROOT
ATOM      1  C   LIG A   1      -7.674   6.087 132.254  0.00  0.00    +0.014 C 
ATOM      2  C   LIG A   1      -8.219   4.822 131.521  0.00  0.00    -0.006 C 
ATOM      3  C   LIG A   1      -9.060   5.380 130.359  0.00  0.00    +0.014 C 
ATOM      4  C   LIG A   1      -8.948   3.982 132.603  0.00  0.00    +0.120 C 
ATOM      5  C   LIG A   1      -9.243   2.546 132.177  0.00  0.00    +0.032 C 
ATOM      6  C   LIG A   1      -7.940   1.764 131.694  0.00  0.00    +0.010 C 
ATOM      7  C   LIG A   1      -7.327   2.486 130.418  0.00  0.00    -0.018 C 
ATOM      8  C   LIG A   1      -8.529   2.164 129.486  0.00  0.00    +0.012 C 
ATOM      9  C   LIG A   1      -7.060   3.920 131.041  0.00  0.00    +0.004 C 
ATOM     10  C   LIG A   1      -5.946   4.659 130.373  0.00  0.00    +0.005 C 
ATOM     11  C   LIG A   1      -4.762   3.724 130.414  0.00  0.00    +0.008 C 
ATOM     12  C   LIG A   1      -4.555   2.935 129.033  0.00  0.00    -0.013 C 
ATOM     13  C   LIG A   1      -4.852   2.929 127.436  0.00  0.00    -0.004 C 
ATOM     14  C   LIG A   1      -5.684   4.199 126.983  0.00  0.00    +0.012 C 
ATOM     15  C   LIG A   1      -7.202   3.890 127.046  0.00  0.00    +0.008 C 
ATOM     16  C   LIG A   1      -7.655   2.777 126.037  0.00  0.00    -0.025 C 
ATOM     17  C   LIG A   1      -8.637   1.711 126.573  0.00  0.00    +0.012 C 
ATOM     18  C   LIG A   1      -6.356   2.063 125.585  0.00  0.00    +0.025 C 
ATOM     19  C   LIG A   1      -6.454   1.226 124.302  0.00  0.00    -0.004 C 
ATOM     20  C   LIG A   1      -6.966  -0.198 124.481  0.00  0.00    +0.008 C 
ATOM     21  C   LIG A   1      -7.213   2.080 123.216  0.00  0.00    -0.011 C 
ATOM     22  C   LIG A   1      -6.396   3.326 122.788  0.00  0.00    +0.008 C 
ATOM     23  C   LIG A   1      -8.589   2.575 123.691  0.00  0.00    +0.004 C 
ATOM     24  C   LIG A   1      -8.465   3.462 124.925  0.00  0.00    +0.007 C 
ATOM     25  C   LIG A   1      -3.477   2.712 126.610  0.00  0.00    +0.016 C 
ATOM     26  C   LIG A   1      -5.580   1.708 126.867  0.00  0.00    -0.056 C 
ATOM     27  C   LIG A   1      -5.491   0.512 127.475  0.00  0.00    +0.046 C 
ATOM     28  C   LIG A   1      -3.523   4.250 128.857  0.00  0.00    +0.013 C 
ATOM     29  C   LIG A   1      -5.838   1.896 129.711  0.00  0.00    +0.073 C 
ATOM     30  C   LIG A   1      -6.038   0.622 128.865  0.00  0.00    +0.160 C 
ATOM     31  O   LIG A   1      -6.607  -0.395 129.334  0.00  0.00    -0.292 OA
ENDROOT
BRANCH   4  32
ATOM     32  O   LIG A   1     -10.138   4.621 133.043  0.00  0.00    -0.391 OA
ATOM     33  H   LIG A   1      -9.897   5.542 133.251  0.00  0.00    +0.210 HD
ENDBRANCH   4  32
TORSDOF 1
ENDMDL
MODEL 3
REMARK VINA RESULT:      -8.7      4.679      8.031
REMARK  Name = NuBBE_1061
REMARK  9 active torsions:
REMARK  status: ('A' for Active; 'I' for Inactive)
REMARK    1  A    between atoms: C_1  and  C_2
REMARK    2  A    between atoms: C_2  and  C_3
REMARK    3  A    between atoms: C_4  and  O_6
REMARK    4  A    between atoms: C_9  and  C_10
REMARK    5  A    between atoms: C_14  and  C_32
REMARK    6  A    between atoms: C_15  and  C_29
REMARK    7  A    between atoms: C_18  and  C_19
REMARK    8  A    between atoms: C_21  and  C_23
REMARK    9  A    between atoms: C_24  and  C_26
REMARK                            x       y       z     vdW  Elec       q    Type
REMARK                         _______ _______ _______ _____ _____    ______ ____
ROOT
ATOM      1  C   LIG A   1      -5.668   6.476 132.152  0.00  0.00    +0.014 C 
ATOM      2  C   LIG A   1      -6.638   5.551 131.352  0.00  0.00    -0.006 C 
ATOM      3  C   LIG A   1      -5.868   5.202 130.066  0.00  0.00    +0.014 C 
ATOM      4  C   LIG A   1      -7.964   6.345 131.208  0.00  0.00    +0.120 C 
ATOM      5  C   LIG A   1      -9.152   5.491 130.773  0.00  0.00    +0.032 C 
ATOM      6  C   LIG A   1      -9.393   4.235 131.726  0.00  0.00    +0.010 C 
ATOM      7  C   LIG A   1      -8.123   3.281 131.680  0.00  0.00    -0.018 C 
ATOM      8  C   LIG A   1      -8.309   2.875 130.190  0.00  0.00    +0.012 C 
ATOM      9  C   LIG A   1      -7.017   4.303 132.179  0.00  0.00    +0.004 C 
ATOM     10  C   LIG A   1      -5.861   3.643 132.856  0.00  0.00    +0.005 C 
ATOM     11  C   LIG A   1      -6.465   2.788 133.943  0.00  0.00    +0.008 C 
ATOM     12  C   LIG A   1      -6.598   1.248 133.511  0.00  0.00    -0.013 C 
ATOM     13  C   LIG A   1      -6.051   0.084 132.520  0.00  0.00    -0.004 C 
ATOM     14  C   LIG A   1      -4.914   0.613 131.554  0.00  0.00    +0.012 C 
ATOM     15  C   LIG A   1      -5.536   1.139 130.236  0.00  0.00    +0.008 C 
ATOM     16  C   LIG A   1      -6.245   0.023 129.390  0.00  0.00    -0.025 C 
ATOM     17  C   LIG A   1      -7.616   0.380 128.775  0.00  0.00    +0.012 C 
ATOM     18  C   LIG A   1      -6.436  -1.178 130.352  0.00  0.00    +0.025 C 
ATOM     19  C   LIG A   1      -6.715  -2.536 129.693  0.00  0.00    -0.004 C 
ATOM     20  C   LIG A   1      -8.171  -2.811 129.341  0.00  0.00    +0.008 C 
ATOM     21  C   LIG A   1      -5.691  -2.726 128.510  0.00  0.00    -0.011 C 
ATOM     22  C   LIG A   1      -4.233  -2.853 129.025  0.00  0.00    +0.008 C 
ATOM     23  C   LIG A   1      -5.720  -1.574 127.494  0.00  0.00    +0.004 C 
ATOM     24  C   LIG A   1      -5.372  -0.243 128.152  0.00  0.00    +0.007 C 
ATOM     25  C   LIG A   1      -5.637  -1.229 133.371  0.00  0.00    +0.016 C 
ATOM     26  C   LIG A   1      -7.084  -0.616 131.631  0.00  0.00    -0.056 C 
ATOM     27  C   LIG A   1      -8.374  -0.689 132.006  0.00  0.00    +0.046 C 
ATOM     28  C   LIG A   1      -5.130   1.269 134.330  0.00  0.00    +0.013 C 
ATOM     29  C   LIG A   1      -8.065   1.854 132.693  0.00  0.00    +0.073 C 
ATOM     30  C   LIG A   1      -8.926   0.696 132.149  0.00  0.00    +0.160 C 
ATOM     31  O   LIG A   1     -10.141   0.854 131.871  0.00  0.00    -0.292 OA
ENDROOT
BRANCH   4  32
ATOM     32  O   LIG A   1      -7.811   7.458 130.339  0.00  0.00    -0.391 OA
ATOM     33  H   LIG A   1      -8.599   8.017 130.463  0.00  0.00    +0.210 HD
ENDBRANCH   4  32
TORSDOF 1
ENDMDL
MODEL 4
REMARK VINA RESULT:      -8.6      6.020      9.072
REMARK  Name = NuBBE_1061
REMARK  9 active torsions:
REMARK  status: ('A' for Active; 'I' for Inactive)
REMARK    1  A    between atoms: C_1  and  C_2
REMARK    2  A    between atoms: C_2  and  C_3
REMARK    3  A    between atoms: C_4  and  O_6
REMARK    4  A    between atoms: C_9  and  C_10
REMARK    5  A    between atoms: C_14  and  C_32
REMARK    6  A    between atoms: C_15  and  C_29
REMARK    7  A    between atoms: C_18  and  C_19
REMARK    8  A    between atoms: C_21  and  C_23
REMARK    9  A    between atoms: C_24  and  C_26
REMARK                            x       y       z     vdW  Elec       q    Type
REMARK                         _______ _______ _______ _____ _____    ______ ____
ROOT
ATOM      1  C   LIG A   1      -4.138   6.597 134.954  0.00  0.00    +0.014 C 
ATOM      2  C   LIG A   1      -4.114   6.105 133.473  0.00  0.00    -0.006 C 
ATOM      3  C   LIG A   1      -3.284   4.810 133.508  0.00  0.00    +0.014 C 
ATOM      4  C   LIG A   1      -3.568   7.292 132.636  0.00  0.00    +0.120 C 
ATOM      5  C   LIG A   1      -3.796   7.148 131.134  0.00  0.00    +0.032 C 
ATOM      6  C   LIG A   1      -5.329   6.906 130.762  0.00  0.00    +0.010 C 
ATOM      7  C   LIG A   1      -5.827   5.546 131.417  0.00  0.00    -0.018 C 
ATOM      8  C   LIG A   1      -4.909   4.633 130.556  0.00  0.00    +0.012 C 
ATOM      9  C   LIG A   1      -5.548   5.881 132.943  0.00  0.00    +0.004 C 
ATOM     10  C   LIG A   1      -6.440   5.141 133.885  0.00  0.00    +0.005 C 
ATOM     11  C   LIG A   1      -7.847   5.435 133.423  0.00  0.00    +0.008 C 
ATOM     12  C   LIG A   1      -8.457   4.255 132.524  0.00  0.00    -0.013 C 
ATOM     13  C   LIG A   1      -8.368   2.677 132.145  0.00  0.00    -0.004 C 
ATOM     14  C   LIG A   1      -7.236   1.933 132.964  0.00  0.00    +0.012 C 
ATOM     15  C   LIG A   1      -5.899   1.972 132.181  0.00  0.00    +0.008 C 
ATOM     16  C   LIG A   1      -5.946   1.185 130.824  0.00  0.00    -0.025 C 
ATOM     17  C   LIG A   1      -5.297   1.869 129.600  0.00  0.00    +0.012 C 
ATOM     18  C   LIG A   1      -7.449   0.959 130.520  0.00  0.00    +0.025 C 
ATOM     19  C   LIG A   1      -7.775  -0.133 129.492  0.00  0.00    -0.004 C 
ATOM     20  C   LIG A   1      -7.725   0.301 128.032  0.00  0.00    +0.008 C 
ATOM     21  C   LIG A   1      -6.918  -1.409 129.842  0.00  0.00    -0.011 C 
ATOM     22  C   LIG A   1      -7.343  -2.033 131.196  0.00  0.00    +0.008 C 
ATOM     23  C   LIG A   1      -5.411  -1.121 129.922  0.00  0.00    +0.004 C 
ATOM     24  C   LIG A   1      -5.098  -0.085 130.997  0.00  0.00    +0.007 C 
ATOM     25  C   LIG A   1      -9.829   1.989 132.262  0.00  0.00    +0.016 C 
ATOM     26  C   LIG A   1      -8.139   2.327 130.672  0.00  0.00    -0.056 C 
ATOM     27  C   LIG A   1      -8.531   3.168 129.698  0.00  0.00    +0.046 C 
ATOM     28  C   LIG A   1      -9.030   3.875 134.058  0.00  0.00    +0.013 C 
ATOM     29  C   LIG A   1      -7.499   5.056 131.248  0.00  0.00    +0.073 C 
ATOM     30  C   LIG A   1      -7.817   4.475 129.855  0.00  0.00    +0.160 C 
ATOM     31  O   LIG A   1      -7.549   5.106 128.803  0.00  0.00    -0.292 OA
ENDROOT
BRANCH   4  32
ATOM     32  O   LIG A   1      -2.193   7.527 132.906  0.00  0.00    -0.391 OA
ATOM     33  H   LIG A   1      -1.700   6.798 132.488  0.00  0.00    +0.210 HD
ENDBRANCH   4  32
TORSDOF 1
ENDMDL
MODEL 5
REMARK VINA RESULT:      -8.5      3.256      5.089
REMARK  Name = NuBBE_1061
REMARK  9 active torsions:
REMARK  status: ('A' for Active; 'I' for Inactive)
REMARK    1  A    between atoms: C_1  and  C_2
REMARK    2  A    between atoms: C_2  and  C_3
REMARK    3  A    between atoms: C_4  and  O_6
REMARK    4  A    between atoms: C_9  and  C_10
REMARK    5  A    between atoms: C_14  and  C_32
REMARK    6  A    between atoms: C_15  and  C_29
REMARK    7  A    between atoms: C_18  and  C_19
REMARK    8  A    between atoms: C_21  and  C_23
REMARK    9  A    between atoms: C_24  and  C_26
REMARK                            x       y       z     vdW  Elec       q    Type
REMARK                         _______ _______ _______ _____ _____    ______ ____
ROOT
ATOM      1  C   LIG A   1      -5.275  -5.493 131.095  0.00  0.00    +0.014 C 
ATOM      2  C   LIG A   1      -5.428  -4.082 131.743  0.00  0.00    -0.006 C 
ATOM      3  C   LIG A   1      -4.071  -3.396 131.500  0.00  0.00    +0.014 C 
ATOM      4  C   LIG A   1      -5.859  -4.330 133.212  0.00  0.00    +0.120 C 
ATOM      5  C   LIG A   1      -6.403  -3.089 133.916  0.00  0.00    +0.032 C 
ATOM      6  C   LIG A   1      -7.607  -2.407 133.123  0.00  0.00    +0.010 C 
ATOM      7  C   LIG A   1      -7.099  -1.920 131.699  0.00  0.00    -0.018 C 
ATOM      8  C   LIG A   1      -6.135  -0.836 132.259  0.00  0.00    +0.012 C 
ATOM      9  C   LIG A   1      -6.609  -3.310 131.113  0.00  0.00    +0.004 C 
ATOM     10  C   LIG A   1      -6.658  -3.377 129.622  0.00  0.00    +0.005 C 
ATOM     11  C   LIG A   1      -8.070  -2.998 129.248  0.00  0.00    +0.008 C 
ATOM     12  C   LIG A   1      -8.197  -1.463 128.801  0.00  0.00    -0.013 C 
ATOM     13  C   LIG A   1      -7.405  -0.165 128.228  0.00  0.00    -0.004 C 
ATOM     14  C   LIG A   1      -5.871  -0.468 127.981  0.00  0.00    +0.012 C 
ATOM     15  C   LIG A   1      -5.051  -0.133 129.253  0.00  0.00    +0.008 C 
ATOM     16  C   LIG A   1      -5.068   1.391 129.625  0.00  0.00    -0.025 C 
ATOM     17  C   LIG A   1      -5.267   1.742 131.117  0.00  0.00    +0.012 C 
ATOM     18  C   LIG A   1      -6.238   2.009 128.817  0.00  0.00    +0.025 C 
ATOM     19  C   LIG A   1      -6.222   3.537 128.661  0.00  0.00    -0.004 C 
ATOM     20  C   LIG A   1      -6.835   4.322 129.814  0.00  0.00    +0.008 C 
ATOM     21  C   LIG A   1      -4.764   3.973 128.253  0.00  0.00    -0.011 C 
ATOM     22  C   LIG A   1      -4.380   3.451 126.844  0.00  0.00    +0.008 C 
ATOM     23  C   LIG A   1      -3.688   3.480 129.234  0.00  0.00    +0.004 C 
ATOM     24  C   LIG A   1      -3.672   1.957 129.322  0.00  0.00    +0.007 C 
ATOM     25  C   LIG A   1      -8.175   0.436 126.937  0.00  0.00    +0.016 C 
ATOM     26  C   LIG A   1      -7.466   1.115 129.067  0.00  0.00    -0.056 C 
ATOM     27  C   LIG A   1      -8.505   1.347 129.888  0.00  0.00    +0.046 C 
ATOM     28  C   LIG A   1      -8.008  -2.253 127.330  0.00  0.00    +0.013 C 
ATOM     29  C   LIG A   1      -8.225  -1.201 130.567  0.00  0.00    +0.073 C 
ATOM     30  C   LIG A   1      -8.577   0.260 130.915  0.00  0.00    +0.160 C 
ATOM     31  O   LIG A   1      -9.002   0.580 132.053  0.00  0.00    -0.292 OA
ENDROOT
BRANCH   4  32
ATOM     32  O   LIG A   1      -4.807  -4.907 133.972  0.00  0.00    -0.391 OA
ATOM     33  H   LIG A   1      -4.318  -4.167 134.374  0.00  0.00    +0.210 HD
ENDBRANCH   4  32
TORSDOF 1
ENDMDL
MODEL 6
REMARK VINA RESULT:      -8.4      5.169      8.321
REMARK  Name = NuBBE_1061
REMARK  9 active torsions:
REMARK  status: ('A' for Active; 'I' for Inactive)
REMARK    1  A    between atoms: C_1  and  C_2
REMARK    2  A    between atoms: C_2  and  C_3
REMARK    3  A    between atoms: C_4  and  O_6
REMARK    4  A    between atoms: C_9  and  C_10
REMARK    5  A    between atoms: C_14  and  C_32
REMARK    6  A    between atoms: C_15  and  C_29
REMARK    7  A    between atoms: C_18  and  C_19
REMARK    8  A    between atoms: C_21  and  C_23
REMARK    9  A    between atoms: C_24  and  C_26
REMARK                            x       y       z     vdW  Elec       q    Type
REMARK                         _______ _______ _______ _____ _____    ______ ____
ROOT
ATOM      1  C   LIG A   1      -8.367   0.343 126.766  0.00  0.00    +0.014 C 
ATOM      2  C   LIG A   1      -7.475   0.215 128.040  0.00  0.00    -0.006 C 
ATOM      3  C   LIG A   1      -6.087   0.708 127.592  0.00  0.00    +0.014 C 
ATOM      4  C   LIG A   1      -7.603  -1.260 128.505  0.00  0.00    +0.120 C 
ATOM      5  C   LIG A   1      -7.098  -1.507 129.924  0.00  0.00    +0.032 C 
ATOM      6  C   LIG A   1      -7.789  -0.555 131.001  0.00  0.00    +0.010 C 
ATOM      7  C   LIG A   1      -7.447   0.961 130.669  0.00  0.00    -0.018 C 
ATOM      8  C   LIG A   1      -5.926   0.827 130.961  0.00  0.00    +0.012 C 
ATOM      9  C   LIG A   1      -8.056   1.045 129.206  0.00  0.00    +0.004 C 
ATOM     10  C   LIG A   1      -8.488   2.422 128.821  0.00  0.00    +0.005 C 
ATOM     11  C   LIG A   1      -9.422   2.872 129.918  0.00  0.00    +0.008 C 
ATOM     12  C   LIG A   1      -8.696   3.815 130.994  0.00  0.00    -0.013 C 
ATOM     13  C   LIG A   1      -7.446   4.815 131.271  0.00  0.00    -0.004 C 
ATOM     14  C   LIG A   1      -6.522   4.976 129.996  0.00  0.00    +0.012 C 
ATOM     15  C   LIG A   1      -5.394   3.914 130.018  0.00  0.00    +0.008 C 
ATOM     16  C   LIG A   1      -4.396   4.087 131.218  0.00  0.00    -0.025 C 
ATOM     17  C   LIG A   1      -3.979   2.802 131.967  0.00  0.00    +0.012 C 
ATOM     18  C   LIG A   1      -5.104   5.033 132.222  0.00  0.00    +0.025 C 
ATOM     19  C   LIG A   1      -4.205   5.703 133.271  0.00  0.00    -0.004 C 
ATOM     20  C   LIG A   1      -3.922   4.876 134.519  0.00  0.00    +0.008 C 
ATOM     21  C   LIG A   1      -2.931   6.268 132.536  0.00  0.00    -0.011 C 
ATOM     22  C   LIG A   1      -3.290   7.420 131.563  0.00  0.00    +0.008 C 
ATOM     23  C   LIG A   1      -2.178   5.201 131.725  0.00  0.00    +0.004 C 
ATOM     24  C   LIG A   1      -3.065   4.596 130.642  0.00  0.00    +0.007 C 
ATOM     25  C   LIG A   1      -7.975   6.217 131.884  0.00  0.00    +0.016 C 
ATOM     26  C   LIG A   1      -6.519   4.465 132.438  0.00  0.00    -0.056 C 
ATOM     27  C   LIG A   1      -6.972   3.750 133.484  0.00  0.00    +0.046 C 
ATOM     28  C   LIG A   1      -9.382   4.930 129.940  0.00  0.00    +0.013 C 
ATOM     29  C   LIG A   1      -8.139   2.245 131.637  0.00  0.00    +0.073 C 
ATOM     30  C   LIG A   1      -7.440   2.411 133.002  0.00  0.00    +0.160 C 
ATOM     31  O   LIG A   1      -7.298   1.443 133.790  0.00  0.00    -0.292 OA
ENDROOT
BRANCH   4  32
ATOM     32  O   LIG A   1      -6.971  -2.148 127.595  0.00  0.00    -0.391 OA
ATOM     33  H   LIG A   1      -6.013  -2.081 127.762  0.00  0.00    +0.210 HD
ENDBRANCH   4  32
TORSDOF 1
ENDMDL
MODEL 7
REMARK VINA RESULT:      -8.3      3.734      5.962
REMARK  Name = NuBBE_1061
REMARK  9 active torsions:
REMARK  status: ('A' for Active; 'I' for Inactive)
REMARK    1  A    between atoms: C_1  and  C_2
REMARK    2  A    between atoms: C_2  and  C_3
REMARK    3  A    between atoms: C_4  and  O_6
REMARK    4  A    between atoms: C_9  and  C_10
REMARK    5  A    between atoms: C_14  and  C_32
REMARK    6  A    between atoms: C_15  and  C_29
REMARK    7  A    between atoms: C_18  and  C_19
REMARK    8  A    between atoms: C_21  and  C_23
REMARK    9  A    between atoms: C_24  and  C_26
REMARK                            x       y       z     vdW  Elec       q    Type
REMARK                         _______ _______ _______ _____ _____    ______ ____
ROOT
ATOM      1  C   LIG A   1      -4.889  -5.538 132.597  0.00  0.00    +0.014 C 
ATOM      2  C   LIG A   1      -5.494  -4.202 133.133  0.00  0.00    -0.006 C 
ATOM      3  C   LIG A   1      -4.271  -3.339 133.489  0.00  0.00    +0.014 C 
ATOM      4  C   LIG A   1      -6.457  -4.601 134.283  0.00  0.00    +0.120 C 
ATOM      5  C   LIG A   1      -7.413  -3.487 134.704  0.00  0.00    +0.032 C 
ATOM      6  C   LIG A   1      -8.262  -2.908 133.484  0.00  0.00    +0.010 C 
ATOM      7  C   LIG A   1      -7.283  -2.267 132.410  0.00  0.00    -0.018 C 
ATOM      8  C   LIG A   1      -6.802  -1.112 133.333  0.00  0.00    +0.012 C 
ATOM      9  C   LIG A   1      -6.403  -3.543 132.072  0.00  0.00    +0.004 C 
ATOM     10  C   LIG A   1      -5.819  -3.515 130.698  0.00  0.00    +0.005 C 
ATOM     11  C   LIG A   1      -6.986  -3.291 129.769  0.00  0.00    +0.008 C 
ATOM     12  C   LIG A   1      -7.132  -1.756 129.323  0.00  0.00    -0.013 C 
ATOM     13  C   LIG A   1      -6.365  -0.335 129.147  0.00  0.00    -0.004 C 
ATOM     14  C   LIG A   1      -4.841  -0.427 129.566  0.00  0.00    +0.012 C 
ATOM     15  C   LIG A   1      -4.679  -0.080 131.068  0.00  0.00    +0.008 C 
ATOM     16  C   LIG A   1      -5.064   1.403 131.411  0.00  0.00    -0.025 C 
ATOM     17  C   LIG A   1      -5.911   1.625 132.684  0.00  0.00    +0.012 C 
ATOM     18  C   LIG A   1      -5.867   1.923 130.191  0.00  0.00    +0.025 C 
ATOM     19  C   LIG A   1      -6.003   3.448 130.070  0.00  0.00    -0.004 C 
ATOM     20  C   LIG A   1      -7.144   4.071 130.865  0.00  0.00    +0.008 C 
ATOM     21  C   LIG A   1      -4.584   4.088 130.316  0.00  0.00    -0.011 C 
ATOM     22  C   LIG A   1      -3.581   3.713 129.195  0.00  0.00    +0.008 C 
ATOM     23  C   LIG A   1      -3.955   3.668 131.654  0.00  0.00    +0.004 C 
ATOM     24  C   LIG A   1      -3.762   2.156 131.728  0.00  0.00    +0.007 C 
ATOM     25  C   LIG A   1      -6.606   0.252 127.658  0.00  0.00    +0.016 C 
ATOM     26  C   LIG A   1      -6.948   0.868 129.894  0.00  0.00    -0.056 C 
ATOM     27  C   LIG A   1      -8.256   0.914 130.205  0.00  0.00    +0.046 C 
ATOM     28  C   LIG A   1      -6.240  -2.417 128.061  0.00  0.00    +0.013 C 
ATOM     29  C   LIG A   1      -7.927  -1.619 130.916  0.00  0.00    +0.073 C 
ATOM     30  C   LIG A   1      -8.594  -0.241 131.097  0.00  0.00    +0.160 C 
ATOM     31  O   LIG A   1      -9.493  -0.053 131.953  0.00  0.00    -0.292 OA
ENDROOT
BRANCH   4  32
ATOM     32  O   LIG A   1      -5.745  -5.092 135.410  0.00  0.00    -0.391 OA
ATOM     33  H   LIG A   1      -6.350  -5.023 136.171  0.00  0.00    +0.210 HD
ENDBRANCH   4  32
TORSDOF 1
ENDMDL
MODEL 8
REMARK VINA RESULT:      -8.3      4.891      8.461
REMARK  Name = NuBBE_1061
REMARK  9 active torsions:
REMARK  status: ('A' for Active; 'I' for Inactive)
REMARK    1  A    between atoms: C_1  and  C_2
REMARK    2  A    between atoms: C_2  and  C_3
REMARK    3  A    between atoms: C_4  and  O_6
REMARK    4  A    between atoms: C_9  and  C_10
REMARK    5  A    between atoms: C_14  and  C_32
REMARK    6  A    between atoms: C_15  and  C_29
REMARK    7  A    between atoms: C_18  and  C_19
REMARK    8  A    between atoms: C_21  and  C_23
REMARK    9  A    between atoms: C_24  and  C_26
REMARK                            x       y       z     vdW  Elec       q    Type
REMARK                         _______ _______ _______ _____ _____    ______ ____
ROOT
ATOM      1  C   LIG A   1      -3.893   6.356 132.800  0.00  0.00    +0.014 C 
ATOM      2  C   LIG A   1      -3.836   5.268 131.683  0.00  0.00    -0.006 C 
ATOM      3  C   LIG A   1      -3.107   4.080 132.335  0.00  0.00    +0.014 C 
ATOM      4  C   LIG A   1      -3.163   5.947 130.460  0.00  0.00    +0.120 C 
ATOM      5  C   LIG A   1      -3.330   5.175 129.154  0.00  0.00    +0.032 C 
ATOM      6  C   LIG A   1      -4.857   4.867 128.809  0.00  0.00    +0.010 C 
ATOM      7  C   LIG A   1      -5.486   3.952 129.946  0.00  0.00    -0.018 C 
ATOM      8  C   LIG A   1      -4.599   2.714 129.634  0.00  0.00    +0.012 C 
ATOM      9  C   LIG A   1      -5.256   4.903 131.195  0.00  0.00    +0.004 C 
ATOM     10  C   LIG A   1      -6.244   4.689 132.294  0.00  0.00    +0.005 C 
ATOM     11  C   LIG A   1      -7.601   4.818 131.646  0.00  0.00    +0.008 C 
ATOM     12  C   LIG A   1      -8.254   3.394 131.300  0.00  0.00    -0.013 C 
ATOM     13  C   LIG A   1      -8.265   1.807 131.645  0.00  0.00    -0.004 C 
ATOM     14  C   LIG A   1      -7.232   1.441 132.788  0.00  0.00    +0.012 C 
ATOM     15  C   LIG A   1      -5.860   1.073 132.168  0.00  0.00    +0.008 C 
ATOM     16  C   LIG A   1      -5.901  -0.222 131.283  0.00  0.00    -0.025 C 
ATOM     17  C   LIG A   1      -5.146  -0.169 129.936  0.00  0.00    +0.012 C 
ATOM     18  C   LIG A   1      -7.401  -0.488 130.994  0.00  0.00    +0.025 C 
ATOM     19  C   LIG A   1      -7.758  -1.902 130.515  0.00  0.00    -0.004 C 
ATOM     20  C   LIG A   1      -7.606  -2.149 129.019  0.00  0.00    +0.008 C 
ATOM     21  C   LIG A   1      -7.016  -2.937 131.444  0.00  0.00    -0.011 C 
ATOM     22  C   LIG A   1      -7.550  -2.890 132.899  0.00  0.00    +0.008 C 
ATOM     23  C   LIG A   1      -5.497  -2.713 131.505  0.00  0.00    +0.004 C 
ATOM     24  C   LIG A   1      -5.160  -1.329 132.050  0.00  0.00    +0.007 C 
ATOM     25  C   LIG A   1      -9.777   1.307 131.938  0.00  0.00    +0.016 C 
ATOM     26  C   LIG A   1      -7.993   0.840 130.489  0.00  0.00    -0.056 C 
ATOM     27  C   LIG A   1      -8.275   1.191 129.221  0.00  0.00    +0.046 C 
ATOM     28  C   LIG A   1      -8.926   3.746 132.800  0.00  0.00    +0.013 C 
ATOM     29  C   LIG A   1      -7.180   3.515 129.879  0.00  0.00    +0.073 C 
ATOM     30  C   LIG A   1      -7.473   2.402 128.853  0.00  0.00    +0.160 C 
ATOM     31  O   LIG A   1      -7.110   2.500 127.655  0.00  0.00    -0.292 OA
ENDROOT
BRANCH   4  32
ATOM     32  O   LIG A   1      -1.789   6.212 130.704  0.00  0.00    -0.391 OA
ATOM     33  H   LIG A   1      -1.750   6.742 131.521  0.00  0.00    +0.210 HD
ENDBRANCH   4  32
TORSDOF 1
ENDMDL
MODEL 9
REMARK VINA RESULT:      -8.2      4.805      8.064
REMARK  Name = NuBBE_1061
REMARK  9 active torsions:
REMARK  status: ('A' for Active; 'I' for Inactive)
REMARK    1  A    between atoms: C_1  and  C_2
REMARK    2  A    between atoms: C_2  and  C_3
REMARK    3  A    between atoms: C_4  and  O_6
REMARK    4  A    between atoms: C_9  and  C_10
REMARK    5  A    between atoms: C_14  and  C_32
REMARK    6  A    between atoms: C_15  and  C_29
REMARK    7  A    between atoms: C_18  and  C_19
REMARK    8  A    between atoms: C_21  and  C_23
REMARK    9  A    between atoms: C_24  and  C_26
REMARK                            x       y       z     vdW  Elec       q    Type
REMARK                         _______ _______ _______ _____ _____    ______ ____
ROOT
ATOM      1  C   LIG A   1      -7.846  -2.465 129.133  0.00  0.00    +0.014 C 
ATOM      2  C   LIG A   1      -6.692  -1.906 130.023  0.00  0.00    -0.006 C 
ATOM      3  C   LIG A   1      -5.791  -1.130 129.046  0.00  0.00    +0.014 C 
ATOM      4  C   LIG A   1      -6.081  -3.134 130.751  0.00  0.00    +0.120 C 
ATOM      5  C   LIG A   1      -5.180  -2.770 131.928  0.00  0.00    +0.032 C 
ATOM      6  C   LIG A   1      -5.907  -1.834 132.997  0.00  0.00    +0.010 C 
ATOM      7  C   LIG A   1      -6.315  -0.460 132.311  0.00  0.00    -0.018 C 
ATOM      8  C   LIG A   1      -4.853   0.017 132.078  0.00  0.00    +0.012 C 
ATOM      9  C   LIG A   1      -7.249  -1.018 131.157  0.00  0.00    +0.004 C 
ATOM     10  C   LIG A   1      -8.292  -0.043 130.715  0.00  0.00    +0.005 C 
ATOM     11  C   LIG A   1      -9.019   0.367 131.971  0.00  0.00    +0.008 C 
ATOM     12  C   LIG A   1      -8.501   1.770 132.552  0.00  0.00    -0.013 C 
ATOM     13  C   LIG A   1      -7.748   3.167 132.204  0.00  0.00    -0.004 C 
ATOM     14  C   LIG A   1      -7.324   3.248 130.680  0.00  0.00    +0.012 C 
ATOM     15  C   LIG A   1      -5.893   2.684 130.494  0.00  0.00    +0.008 C 
ATOM     16  C   LIG A   1      -4.789   3.525 131.226  0.00  0.00    -0.025 C 
ATOM     17  C   LIG A   1      -3.707   2.735 131.995  0.00  0.00    +0.012 C 
ATOM     18  C   LIG A   1      -5.546   4.427 132.234  0.00  0.00    +0.025 C 
ATOM     19  C   LIG A   1      -4.771   5.636 132.777  0.00  0.00    -0.004 C 
ATOM     20  C   LIG A   1      -3.869   5.357 133.973  0.00  0.00    +0.008 C 
ATOM     21  C   LIG A   1      -4.071   6.355 131.562  0.00  0.00    -0.011 C 
ATOM     22  C   LIG A   1      -5.104   6.981 130.590  0.00  0.00    +0.008 C 
ATOM     23  C   LIG A   1      -3.176   5.416 130.738  0.00  0.00    +0.004 C 
ATOM     24  C   LIG A   1      -3.977   4.260 130.148  0.00  0.00    +0.007 C 
ATOM     25  C   LIG A   1      -8.634   4.423 132.711  0.00  0.00    +0.016 C 
ATOM     26  C   LIG A   1      -6.498   3.506 133.020  0.00  0.00    -0.056 C 
ATOM     27  C   LIG A   1      -6.338   3.020 134.264  0.00  0.00    +0.046 C 
ATOM     28  C   LIG A   1      -9.825   2.229 131.623  0.00  0.00    +0.013 C 
ATOM     29  C   LIG A   1      -7.205   0.741 133.222  0.00  0.00    +0.073 C 
ATOM     30  C   LIG A   1      -6.319   1.524 134.212  0.00  0.00    +0.160 C 
ATOM     31  O   LIG A   1      -5.599   0.935 135.056  0.00  0.00    -0.292 OA
ENDROOT
BRANCH   4  32
ATOM     32  O   LIG A   1      -5.390  -3.983 129.845  0.00  0.00    -0.391 OA
ATOM     33  H   LIG A   1      -5.612  -3.672 128.949  0.00  0.00    +0.210 HD
ENDBRANCH   4  32
TORSDOF 1
ENDMDL
