MODEL 1
REMARK VINA RESULT:      -7.8      0.000      0.000
REMARK  Name = NuBBE_2283
REMARK  6 active torsions:
REMARK  status: ('A' for Active; 'I' for Inactive)
REMARK    1  A    between atoms: C_1  and  C_2
REMARK    2  A    between atoms: C_1  and  C_4
REMARK    3  A    between atoms: C_9  and  O_12
REMARK    4  A    between atoms: O_12  and  C_13
REMARK    5  A    between atoms: C_15  and  C_20
REMARK    6  A    between atoms: C_17  and  C_19
REMARK                            x       y       z     vdW  Elec       q    Type
REMARK                         _______ _______ _______ _____ _____    ______ ____
ROOT
ATOM      1  C   LIG A   1      -6.898  -1.591 124.855  0.00  0.00    +0.041 C 
ATOM      2  C   LIG A   1      -7.613  -2.737 125.493  0.00  0.00    +0.109 C 
ATOM      3  C   LIG A   1      -8.711  -3.328 125.006  0.00  0.00    +0.090 C 
ATOM      4  C   LIG A   1      -9.303  -2.857 123.735  0.00  0.00    +0.188 C 
ATOM      5  O   LIG A   1     -10.145  -3.584 123.185  0.00  0.00    -0.290 OA
ATOM      6  C   LIG A   1      -8.844  -1.509 123.132  0.00  0.00    +0.189 C 
ATOM      7  C   LIG A   1      -7.923  -0.731 124.085  0.00  0.00    +0.055 C 
ATOM      8  O   LIG A   1      -7.109  -3.083 126.725  0.00  0.00    -0.487 OA
ATOM      9  C   LIG A   1      -6.326  -1.954 127.191  0.00  0.00    +0.207 C 
ATOM     10  C   LIG A   1      -6.443  -0.848 126.127  0.00  0.00    +0.045 C 
ATOM     11  C   LIG A   1      -5.222   0.059 125.998  0.00  0.00    +0.012 C 
ENDROOT
BRANCH   9  12
ATOM     12  C   LIG A   1      -6.870  -1.525 128.550  0.00  0.00    -0.003 A 
ATOM     13  C   LIG A   1      -6.739  -2.370 129.665  0.00  0.00    +0.056 A 
ATOM     14  C   LIG A   1      -7.250  -1.940 130.876  0.00  0.00    +0.167 A 
ATOM     15  C   LIG A   1      -7.869  -0.720 131.016  0.00  0.00    +0.166 A 
ATOM     16  C   LIG A   1      -8.011   0.143 129.956  0.00  0.00    +0.050 A 
ATOM     17  C   LIG A   1      -7.502  -0.264 128.719  0.00  0.00    +0.011 A 
ATOM     18  O   LIG A   1      -8.304  -0.496 132.284  0.00  0.00    -0.453 OA
ATOM     19  C   LIG A   1      -7.890  -1.716 132.930  0.00  0.00    +0.466 C 
ATOM     20  O   LIG A   1      -7.219  -2.637 132.044  0.00  0.00    -0.453 OA
ENDBRANCH   9  12
BRANCH   6  21
ATOM     21  O   LIG A   1      -9.889  -0.580 122.818  0.00  0.00    -0.372 OA
ATOM     22  C   LIG A   1      -9.616   0.771 123.156  0.00  0.00    +0.195 C 
ENDBRANCH   6  21
BRANCH   1  23
ATOM     23  C   LIG A   1      -5.782  -2.126 123.897  0.00  0.00    +0.041 C 
BRANCH  23  24
ATOM     24  C   LIG A   1      -5.422  -3.592 123.966  0.00  0.00    -0.034 C 
ATOM     25  C   LIG A   1      -4.249  -4.119 123.589  0.00  0.00    +0.004 C 
ENDBRANCH  23  24
ENDBRANCH   1  23
TORSDOF 4
ENDMDL
MODEL 2
REMARK VINA RESULT:      -7.6      2.255      3.489
REMARK  Name = NuBBE_2283
REMARK  6 active torsions:
REMARK  status: ('A' for Active; 'I' for Inactive)
REMARK    1  A    between atoms: C_1  and  C_2
REMARK    2  A    between atoms: C_1  and  C_4
REMARK    3  A    between atoms: C_9  and  O_12
REMARK    4  A    between atoms: O_12  and  C_13
REMARK    5  A    between atoms: C_15  and  C_20
REMARK    6  A    between atoms: C_17  and  C_19
REMARK                            x       y       z     vdW  Elec       q    Type
REMARK                         _______ _______ _______ _____ _____    ______ ____
ROOT
ATOM      1  C   LIG A   1      -7.326  -0.916 124.584  0.00  0.00    +0.041 C 
ATOM      2  C   LIG A   1      -8.428  -0.616 125.546  0.00  0.00    +0.109 C 
ATOM      3  C   LIG A   1      -9.041   0.567 125.673  0.00  0.00    +0.090 C 
ATOM      4  C   LIG A   1      -8.645   1.701 124.810  0.00  0.00    +0.188 C 
ATOM      5  O   LIG A   1      -9.399   2.685 124.766  0.00  0.00    -0.290 OA
ATOM      6  C   LIG A   1      -7.338   1.615 123.987  0.00  0.00    +0.189 C 
ATOM      7  C   LIG A   1      -6.509   0.371 124.345  0.00  0.00    +0.055 C 
ATOM      8  O   LIG A   1      -8.701  -1.652 126.410  0.00  0.00    -0.487 OA
ATOM      9  C   LIG A   1      -7.549  -2.534 126.385  0.00  0.00    +0.207 C 
ATOM     10  C   LIG A   1      -6.509  -1.901 125.444  0.00  0.00    +0.045 C 
ATOM     11  C   LIG A   1      -5.618  -2.892 124.701  0.00  0.00    +0.012 C 
ENDROOT
BRANCH   9  12
ATOM     12  C   LIG A   1      -7.036  -2.688 127.813  0.00  0.00    -0.003 A 
ATOM     13  C   LIG A   1      -5.716  -2.330 128.135  0.00  0.00    +0.056 A 
ATOM     14  C   LIG A   1      -5.295  -2.490 129.443  0.00  0.00    +0.167 A 
ATOM     15  C   LIG A   1      -6.128  -2.976 130.424  0.00  0.00    +0.166 A 
ATOM     16  C   LIG A   1      -7.428  -3.329 130.157  0.00  0.00    +0.050 A 
ATOM     17  C   LIG A   1      -7.883  -3.177 128.844  0.00  0.00    +0.011 A 
ATOM     18  O   LIG A   1      -5.516  -3.061 131.635  0.00  0.00    -0.453 OA
ATOM     19  C   LIG A   1      -4.200  -2.573 131.307  0.00  0.00    +0.466 C 
ATOM     20  O   LIG A   1      -4.052  -2.206 129.919  0.00  0.00    -0.453 OA
ENDBRANCH   9  12
BRANCH   6  21
ATOM     21  O   LIG A   1      -6.424   2.706 124.155  0.00  0.00    -0.372 OA
ATOM     22  C   LIG A   1      -6.291   3.560 123.030  0.00  0.00    +0.195 C 
ENDBRANCH   6  21
BRANCH   1  23
ATOM     23  C   LIG A   1      -7.923  -1.458 123.242  0.00  0.00    +0.041 C 
BRANCH  23  24
ATOM     24  C   LIG A   1      -9.295  -2.093 123.274  0.00  0.00    -0.034 C 
ATOM     25  C   LIG A   1      -9.537  -3.403 123.415  0.00  0.00    +0.004 C 
ENDBRANCH  23  24
ENDBRANCH   1  23
TORSDOF 4
ENDMDL
MODEL 3
REMARK VINA RESULT:      -7.4      1.959      6.817
REMARK  Name = NuBBE_2283
REMARK  6 active torsions:
REMARK  status: ('A' for Active; 'I' for Inactive)
REMARK    1  A    between atoms: C_1  and  C_2
REMARK    2  A    between atoms: C_1  and  C_4
REMARK    3  A    between atoms: C_9  and  O_12
REMARK    4  A    between atoms: O_12  and  C_13
REMARK    5  A    between atoms: C_15  and  C_20
REMARK    6  A    between atoms: C_17  and  C_19
REMARK                            x       y       z     vdW  Elec       q    Type
REMARK                         _______ _______ _______ _____ _____    ______ ____
ROOT
ATOM      1  C   LIG A   1      -7.150  -2.427 129.047  0.00  0.00    +0.041 C 
ATOM      2  C   LIG A   1      -6.173  -1.704 128.180  0.00  0.00    +0.109 C 
ATOM      3  C   LIG A   1      -5.459  -0.633 128.548  0.00  0.00    +0.090 C 
ATOM      4  C   LIG A   1      -5.600  -0.084 129.914  0.00  0.00    +0.188 C 
ATOM      5  O   LIG A   1      -4.745   0.726 130.303  0.00  0.00    -0.290 OA
ATOM      6  C   LIG A   1      -6.777  -0.547 130.805  0.00  0.00    +0.189 C 
ATOM      7  C   LIG A   1      -7.779  -1.421 130.034  0.00  0.00    +0.055 C 
ATOM      8  O   LIG A   1      -6.141  -2.166 126.884  0.00  0.00    -0.487 OA
ATOM      9  C   LIG A   1      -7.366  -2.914 126.675  0.00  0.00    +0.207 C 
ATOM     10  C   LIG A   1      -8.185  -2.823 127.974  0.00  0.00    +0.045 C 
ATOM     11  C   LIG A   1      -9.062  -4.035 128.275  0.00  0.00    +0.012 C 
ENDROOT
BRANCH   9  12
ATOM     12  C   LIG A   1      -8.093  -2.313 125.476  0.00  0.00    -0.003 A 
ATOM     13  C   LIG A   1      -8.371  -0.937 125.433  0.00  0.00    +0.056 A 
ATOM     14  C   LIG A   1      -9.035  -0.437 124.327  0.00  0.00    +0.167 A 
ATOM     15  C   LIG A   1      -9.416  -1.242 123.279  0.00  0.00    +0.166 A 
ATOM     16  C   LIG A   1      -9.156  -2.591 123.273  0.00  0.00    +0.050 A 
ATOM     17  C   LIG A   1      -8.485  -3.124 124.378  0.00  0.00    +0.011 A 
ATOM     18  O   LIG A   1     -10.060  -0.555 122.298  0.00  0.00    -0.453 OA
ATOM     19  C   LIG A   1     -10.042   0.778 122.847  0.00  0.00    +0.466 C 
ATOM     20  O   LIG A   1      -9.392   0.862 124.133  0.00  0.00    -0.453 OA
ENDBRANCH   9  12
BRANCH   6  21
ATOM     21  O   LIG A   1      -7.581   0.497 131.366  0.00  0.00    -0.372 OA
ATOM     22  C   LIG A   1      -8.950   0.173 131.548  0.00  0.00    +0.195 C 
ENDBRANCH   6  21
BRANCH   1  23
ATOM     23  C   LIG A   1      -6.428  -3.586 129.812  0.00  0.00    +0.041 C 
BRANCH  23  24
ATOM     24  C   LIG A   1      -4.925  -3.693 129.697  0.00  0.00    -0.034 C 
ATOM     25  C   LIG A   1      -4.058  -3.511 130.702  0.00  0.00    +0.004 C 
ENDBRANCH  23  24
ENDBRANCH   1  23
TORSDOF 4
ENDMDL
MODEL 4
REMARK VINA RESULT:      -7.4      6.405     10.163
REMARK  Name = NuBBE_2283
REMARK  6 active torsions:
REMARK  status: ('A' for Active; 'I' for Inactive)
REMARK    1  A    between atoms: C_1  and  C_2
REMARK    2  A    between atoms: C_1  and  C_4
REMARK    3  A    between atoms: C_9  and  O_12
REMARK    4  A    between atoms: O_12  and  C_13
REMARK    5  A    between atoms: C_15  and  C_20
REMARK    6  A    between atoms: C_17  and  C_19
REMARK                            x       y       z     vdW  Elec       q    Type
REMARK                         _______ _______ _______ _____ _____    ______ ____
ROOT
ATOM      1  C   LIG A   1      -7.433   4.118 132.316  0.00  0.00    +0.041 C 
ATOM      2  C   LIG A   1      -8.791   3.655 132.731  0.00  0.00    +0.109 C 
ATOM      3  C   LIG A   1      -9.214   2.385 132.705  0.00  0.00    +0.090 C 
ATOM      4  C   LIG A   1      -8.304   1.312 132.249  0.00  0.00    +0.188 C 
ATOM      5  O   LIG A   1      -8.630   0.139 132.488  0.00  0.00    -0.290 OA
ATOM      6  C   LIG A   1      -6.989   1.681 131.524  0.00  0.00    +0.189 C 
ATOM      7  C   LIG A   1      -6.905   3.183 131.208  0.00  0.00    +0.055 C 
ATOM      8  O   LIG A   1      -9.650   4.682 133.045  0.00  0.00    -0.487 OA
ATOM      9  C   LIG A   1      -9.092   5.889 132.463  0.00  0.00    +0.207 C 
ATOM     10  C   LIG A   1      -7.814   5.484 131.709  0.00  0.00    +0.045 C 
ATOM     11  C   LIG A   1      -6.721   6.549 131.666  0.00  0.00    +0.012 C 
ENDROOT
BRANCH   9  12
ATOM     12  C   LIG A   1     -10.145   6.507 131.549  0.00  0.00    -0.003 A 
ATOM     13  C   LIG A   1      -9.779   7.026 130.295  0.00  0.00    +0.056 A 
ATOM     14  C   LIG A   1     -10.768   7.579 129.501  0.00  0.00    +0.167 A 
ATOM     15  C   LIG A   1     -12.084   7.627 129.900  0.00  0.00    +0.166 A 
ATOM     16  C   LIG A   1     -12.488   7.123 131.113  0.00  0.00    +0.050 A 
ATOM     17  C   LIG A   1     -11.511   6.556 131.936  0.00  0.00    +0.011 A 
ATOM     18  O   LIG A   1     -12.889   8.215 128.978  0.00  0.00    -0.453 OA
ATOM     19  C   LIG A   1     -11.932   8.536 127.950  0.00  0.00    +0.466 C 
ATOM     20  O   LIG A   1     -10.584   8.134 128.273  0.00  0.00    -0.453 OA
ENDBRANCH   9  12
BRANCH   6  21
ATOM     21  O   LIG A   1      -6.777   1.044 130.258  0.00  0.00    -0.372 OA
ATOM     22  C   LIG A   1      -5.622   0.224 130.181  0.00  0.00    +0.195 C 
ENDBRANCH   6  21
BRANCH   1  23
ATOM     23  C   LIG A   1      -6.471   4.123 133.551  0.00  0.00    +0.041 C 
BRANCH  23  24
ATOM     24  C   LIG A   1      -7.078   4.251 134.929  0.00  0.00    -0.034 C 
ATOM     25  C   LIG A   1      -7.172   5.389 135.630  0.00  0.00    +0.004 C 
ENDBRANCH  23  24
ENDBRANCH   1  23
TORSDOF 4
ENDMDL
MODEL 5
REMARK VINA RESULT:      -7.1      1.903      2.695
REMARK  Name = NuBBE_2283
REMARK  6 active torsions:
REMARK  status: ('A' for Active; 'I' for Inactive)
REMARK    1  A    between atoms: C_1  and  C_2
REMARK    2  A    between atoms: C_1  and  C_4
REMARK    3  A    between atoms: C_9  and  O_12
REMARK    4  A    between atoms: O_12  and  C_13
REMARK    5  A    between atoms: C_15  and  C_20
REMARK    6  A    between atoms: C_17  and  C_19
REMARK                            x       y       z     vdW  Elec       q    Type
REMARK                         _______ _______ _______ _____ _____    ______ ____
ROOT
ATOM      1  C   LIG A   1      -6.867  -1.289 125.913  0.00  0.00    +0.041 C 
ATOM      2  C   LIG A   1      -7.940  -2.046 126.623  0.00  0.00    +0.109 C 
ATOM      3  C   LIG A   1      -8.975  -2.656 126.032  0.00  0.00    +0.090 C 
ATOM      4  C   LIG A   1      -9.112  -2.618 124.559  0.00  0.00    +0.188 C 
ATOM      5  O   LIG A   1      -9.916  -3.403 124.033  0.00  0.00    -0.290 OA
ATOM      6  C   LIG A   1      -8.247  -1.635 123.736  0.00  0.00    +0.189 C 
ATOM      7  C   LIG A   1      -7.461  -0.665 124.633  0.00  0.00    +0.055 C 
ATOM      8  O   LIG A   1      -7.850  -1.974 127.994  0.00  0.00    -0.487 OA
ATOM      9  C   LIG A   1      -6.998  -0.839 128.299  0.00  0.00    +0.207 C 
ATOM     10  C   LIG A   1      -6.609  -0.187 126.961  0.00  0.00    +0.045 C 
ATOM     11  C   LIG A   1      -5.236   0.479 126.938  0.00  0.00    +0.012 C 
ENDROOT
BRANCH   9  12
ATOM     12  C   LIG A   1      -7.771   0.105 129.213  0.00  0.00    -0.003 A 
ATOM     13  C   LIG A   1      -8.220   1.347 128.733  0.00  0.00    +0.056 A 
ATOM     14  C   LIG A   1      -8.915   2.172 129.599  0.00  0.00    +0.167 A 
ATOM     15  C   LIG A   1      -9.181   1.808 130.899  0.00  0.00    +0.166 A 
ATOM     16  C   LIG A   1      -8.770   0.600 131.408  0.00  0.00    +0.050 A 
ATOM     17  C   LIG A   1      -8.066  -0.256 130.555  0.00  0.00    +0.011 A 
ATOM     18  O   LIG A   1      -9.868   2.763 131.580  0.00  0.00    -0.453 OA
ATOM     19  C   LIG A   1     -10.006   3.773 130.561  0.00  0.00    +0.466 C 
ATOM     20  O   LIG A   1      -9.406   3.406 129.301  0.00  0.00    -0.453 OA
ENDBRANCH   9  12
BRANCH   6  21
ATOM     21  O   LIG A   1      -8.963  -0.779 122.837  0.00  0.00    -0.372 OA
ATOM     22  C   LIG A   1      -9.236   0.522 123.332  0.00  0.00    +0.195 C 
ENDBRANCH   6  21
BRANCH   1  23
ATOM     23  C   LIG A   1      -5.677  -2.247 125.570  0.00  0.00    +0.041 C 
BRANCH  23  24
ATOM     24  C   LIG A   1      -5.249  -2.368 124.126  0.00  0.00    -0.034 C 
ATOM     25  C   LIG A   1      -4.781  -3.483 123.549  0.00  0.00    +0.004 C 
ENDBRANCH  23  24
ENDBRANCH   1  23
TORSDOF 4
ENDMDL
MODEL 6
REMARK VINA RESULT:      -7.1      1.492      2.061
REMARK  Name = NuBBE_2283
REMARK  6 active torsions:
REMARK  status: ('A' for Active; 'I' for Inactive)
REMARK    1  A    between atoms: C_1  and  C_2
REMARK    2  A    between atoms: C_1  and  C_4
REMARK    3  A    between atoms: C_9  and  O_12
REMARK    4  A    between atoms: O_12  and  C_13
REMARK    5  A    between atoms: C_15  and  C_20
REMARK    6  A    between atoms: C_17  and  C_19
REMARK                            x       y       z     vdW  Elec       q    Type
REMARK                         _______ _______ _______ _____ _____    ______ ____
ROOT
ATOM      1  C   LIG A   1      -6.803  -1.844 125.645  0.00  0.00    +0.041 C 
ATOM      2  C   LIG A   1      -8.248  -1.738 126.007  0.00  0.00    +0.109 C 
ATOM      3  C   LIG A   1      -9.134  -0.926 125.416  0.00  0.00    +0.090 C 
ATOM      4  C   LIG A   1      -8.706  -0.050 124.303  0.00  0.00    +0.188 C 
ATOM      5  O   LIG A   1      -9.589   0.481 123.613  0.00  0.00    -0.290 OA
ATOM      6  C   LIG A   1      -7.197   0.153 124.027  0.00  0.00    +0.189 C 
ATOM      7  C   LIG A   1      -6.319  -0.476 125.120  0.00  0.00    +0.055 C 
ATOM      8  O   LIG A   1      -8.595  -2.479 127.113  0.00  0.00    -0.487 OA
ATOM      9  C   LIG A   1      -7.363  -2.782 127.818  0.00  0.00    +0.207 C 
ATOM     10  C   LIG A   1      -6.217  -2.102 127.048  0.00  0.00    +0.045 C 
ATOM     11  C   LIG A   1      -4.874  -2.824 127.114  0.00  0.00    +0.012 C 
ENDROOT
BRANCH   9  12
ATOM     12  C   LIG A   1      -7.496  -2.273 129.249  0.00  0.00    -0.003 A 
ATOM     13  C   LIG A   1      -7.291  -3.143 130.334  0.00  0.00    +0.056 A 
ATOM     14  C   LIG A   1      -7.425  -2.637 131.614  0.00  0.00    +0.167 A 
ATOM     15  C   LIG A   1      -7.742  -1.320 131.849  0.00  0.00    +0.166 A 
ATOM     16  C   LIG A   1      -7.942  -0.431 130.820  0.00  0.00    +0.050 A 
ATOM     17  C   LIG A   1      -7.811  -0.913 129.515  0.00  0.00    +0.011 A 
ATOM     18  O   LIG A   1      -7.832  -1.031 133.174  0.00  0.00    -0.453 OA
ATOM     19  C   LIG A   1      -7.536  -2.318 133.751  0.00  0.00    +0.466 C 
ATOM     20  O   LIG A   1      -7.275  -3.343 132.768  0.00  0.00    -0.453 OA
ENDBRANCH   9  12
BRANCH   6  21
ATOM     21  O   LIG A   1      -6.754   1.514 123.962  0.00  0.00    -0.372 OA
ATOM     22  C   LIG A   1      -6.381   2.087 125.204  0.00  0.00    +0.195 C 
ENDBRANCH   6  21
BRANCH   1  23
ATOM     23  C   LIG A   1      -6.605  -2.962 124.567  0.00  0.00    +0.041 C 
BRANCH  23  24
ATOM     24  C   LIG A   1      -5.402  -2.873 123.657  0.00  0.00    -0.034 C 
ATOM     25  C   LIG A   1      -4.439  -3.799 123.556  0.00  0.00    +0.004 C 
ENDBRANCH  23  24
ENDBRANCH   1  23
TORSDOF 4
ENDMDL
MODEL 7
REMARK VINA RESULT:      -7.0      3.694      7.767
REMARK  Name = NuBBE_2283
REMARK  6 active torsions:
REMARK  status: ('A' for Active; 'I' for Inactive)
REMARK    1  A    between atoms: C_1  and  C_2
REMARK    2  A    between atoms: C_1  and  C_4
REMARK    3  A    between atoms: C_9  and  O_12
REMARK    4  A    between atoms: O_12  and  C_13
REMARK    5  A    between atoms: C_15  and  C_20
REMARK    6  A    between atoms: C_17  and  C_19
REMARK                            x       y       z     vdW  Elec       q    Type
REMARK                         _______ _______ _______ _____ _____    ______ ____
ROOT
ATOM      1  C   LIG A   1      -8.575   2.352 130.915  0.00  0.00    +0.041 C 
ATOM      2  C   LIG A   1      -7.781   2.696 129.698  0.00  0.00    +0.109 C 
ATOM      3  C   LIG A   1      -7.924   3.812 128.972  0.00  0.00    +0.090 C 
ATOM      4  C   LIG A   1      -8.926   4.826 129.366  0.00  0.00    +0.188 C 
ATOM      5  O   LIG A   1      -8.850   5.948 128.842  0.00  0.00    -0.290 OA
ATOM      6  C   LIG A   1     -10.002   4.469 130.418  0.00  0.00    +0.189 C 
ATOM      7  C   LIG A   1      -9.981   2.976 130.784  0.00  0.00    +0.055 C 
ATOM      8  O   LIG A   1      -6.935   1.690 129.290  0.00  0.00    -0.487 OA
ATOM      9  C   LIG A   1      -7.401   0.469 129.921  0.00  0.00    +0.207 C 
ATOM     10  C   LIG A   1      -8.662   0.824 130.727  0.00  0.00    +0.045 C 
ATOM     11  C   LIG A   1      -8.887  -0.014 131.984  0.00  0.00    +0.012 C 
ENDROOT
BRANCH   9  12
ATOM     12  C   LIG A   1      -7.670  -0.559 128.828  0.00  0.00    -0.003 A 
ATOM     13  C   LIG A   1      -7.915  -0.144 127.508  0.00  0.00    +0.056 A 
ATOM     14  C   LIG A   1      -8.157  -1.112 126.550  0.00  0.00    +0.167 A 
ATOM     15  C   LIG A   1      -8.156  -2.454 126.852  0.00  0.00    +0.166 A 
ATOM     16  C   LIG A   1      -7.911  -2.907 128.126  0.00  0.00    +0.050 A 
ATOM     17  C   LIG A   1      -7.661  -1.951 129.115  0.00  0.00    +0.011 A 
ATOM     18  O   LIG A   1      -8.421  -3.234 125.771  0.00  0.00    -0.453 OA
ATOM     19  C   LIG A   1      -8.592  -2.231 124.751  0.00  0.00    +0.466 C 
ATOM     20  O   LIG A   1      -8.424  -0.882 125.236  0.00  0.00    -0.453 OA
ENDBRANCH   9  12
BRANCH   6  21
ATOM     21  O   LIG A   1     -11.359   4.714 130.027  0.00  0.00    -0.372 OA
ATOM     22  C   LIG A   1     -11.890   5.962 130.441  0.00  0.00    +0.195 C 
ENDBRANCH   6  21
BRANCH   1  23
ATOM     23  C   LIG A   1      -7.844   2.879 132.194  0.00  0.00    +0.041 C 
BRANCH  23  24
ATOM     24  C   LIG A   1      -8.639   3.003 133.474  0.00  0.00    -0.034 C 
ATOM     25  C   LIG A   1      -8.701   4.099 134.243  0.00  0.00    +0.004 C 
ENDBRANCH  23  24
ENDBRANCH   1  23
TORSDOF 4
ENDMDL
MODEL 8
REMARK VINA RESULT:      -6.9      3.267      5.375
REMARK  Name = NuBBE_2283
REMARK  6 active torsions:
REMARK  status: ('A' for Active; 'I' for Inactive)
REMARK    1  A    between atoms: C_1  and  C_2
REMARK    2  A    between atoms: C_1  and  C_4
REMARK    3  A    between atoms: C_9  and  O_12
REMARK    4  A    between atoms: O_12  and  C_13
REMARK    5  A    between atoms: C_15  and  C_20
REMARK    6  A    between atoms: C_17  and  C_19
REMARK                            x       y       z     vdW  Elec       q    Type
REMARK                         _______ _______ _______ _____ _____    ______ ____
ROOT
ATOM      1  C   LIG A   1      -7.992   1.734 123.954  0.00  0.00    +0.041 C 
ATOM      2  C   LIG A   1      -8.649   2.118 125.239  0.00  0.00    +0.109 C 
ATOM      3  C   LIG A   1      -8.428   3.255 125.909  0.00  0.00    +0.090 C 
ATOM      4  C   LIG A   1      -7.475   4.254 125.376  0.00  0.00    +0.188 C 
ATOM      5  O   LIG A   1      -7.493   5.391 125.871  0.00  0.00    -0.290 OA
ATOM      6  C   LIG A   1      -6.519   3.860 124.226  0.00  0.00    +0.189 C 
ATOM      7  C   LIG A   1      -6.581   2.357 123.910  0.00  0.00    +0.055 C 
ATOM      8  O   LIG A   1      -9.445   1.128 125.767  0.00  0.00    -0.487 OA
ATOM      9  C   LIG A   1      -9.051  -0.114 125.128  0.00  0.00    +0.207 C 
ATOM     10  C   LIG A   1      -7.885   0.212 124.178  0.00  0.00    +0.045 C 
ATOM     11  C   LIG A   1      -7.799  -0.665 122.932  0.00  0.00    +0.012 C 
ENDROOT
BRANCH   9  12
ATOM     12  C   LIG A   1      -8.664  -1.108 126.217  0.00  0.00    -0.003 A 
ATOM     13  C   LIG A   1      -7.897  -0.692 127.318  0.00  0.00    +0.056 A 
ATOM     14  C   LIG A   1      -7.568  -1.630 128.280  0.00  0.00    +0.167 A 
ATOM     15  C   LIG A   1      -7.975  -2.941 128.191  0.00  0.00    +0.166 A 
ATOM     16  C   LIG A   1      -8.734  -3.391 127.138  0.00  0.00    +0.050 A 
ATOM     17  C   LIG A   1      -9.084  -2.464 126.150  0.00  0.00    +0.011 A 
ATOM     18  O   LIG A   1      -7.539  -3.696 129.233  0.00  0.00    -0.453 OA
ATOM     19  C   LIG A   1      -6.809  -2.712 129.992  0.00  0.00    +0.466 C 
ATOM     20  O   LIG A   1      -6.824  -1.398 129.395  0.00  0.00    -0.453 OA
ENDBRANCH   9  12
BRANCH   6  21
ATOM     21  O   LIG A   1      -5.128   4.112 124.458  0.00  0.00    -0.372 OA
ATOM     22  C   LIG A   1      -4.595   3.516 125.630  0.00  0.00    +0.195 C 
ENDBRANCH   6  21
BRANCH   1  23
ATOM     23  C   LIG A   1      -8.858   2.223 122.745  0.00  0.00    +0.041 C 
BRANCH  23  24
ATOM     24  C   LIG A   1      -8.262   3.243 121.803  0.00  0.00    -0.034 C 
ATOM     25  C   LIG A   1      -8.857   3.720 120.701  0.00  0.00    +0.004 C 
ENDBRANCH  23  24
ENDBRANCH   1  23
TORSDOF 4
ENDMDL
MODEL 9
REMARK VINA RESULT:      -6.8      3.870      5.671
REMARK  Name = NuBBE_2283
REMARK  6 active torsions:
REMARK  status: ('A' for Active; 'I' for Inactive)
REMARK    1  A    between atoms: C_1  and  C_2
REMARK    2  A    between atoms: C_1  and  C_4
REMARK    3  A    between atoms: C_9  and  O_12
REMARK    4  A    between atoms: O_12  and  C_13
REMARK    5  A    between atoms: C_15  and  C_20
REMARK    6  A    between atoms: C_17  and  C_19
REMARK                            x       y       z     vdW  Elec       q    Type
REMARK                         _______ _______ _______ _____ _____    ______ ____
ROOT
ATOM      1  C   LIG A   1      -6.628  -0.942 126.377  0.00  0.00    +0.041 C 
ATOM      2  C   LIG A   1      -6.865   0.066 125.301  0.00  0.00    +0.109 C 
ATOM      3  C   LIG A   1      -6.802  -0.178 123.987  0.00  0.00    +0.090 C 
ATOM      4  C   LIG A   1      -6.488  -1.540 123.502  0.00  0.00    +0.188 C 
ATOM      5  O   LIG A   1      -6.697  -1.790 122.305  0.00  0.00    -0.290 OA
ATOM      6  C   LIG A   1      -5.938  -2.595 124.491  0.00  0.00    +0.189 C 
ATOM      7  C   LIG A   1      -5.614  -1.987 125.865  0.00  0.00    +0.055 C 
ATOM      8  O   LIG A   1      -7.047   1.345 125.776  0.00  0.00    -0.487 OA
ATOM      9  C   LIG A   1      -6.527   1.367 127.131  0.00  0.00    +0.207 C 
ATOM     10  C   LIG A   1      -5.956  -0.031 127.424  0.00  0.00    +0.045 C 
ATOM     11  C   LIG A   1      -6.043  -0.475 128.882  0.00  0.00    +0.012 C 
ENDROOT
BRANCH   9  12
ATOM     12  C   LIG A   1      -5.472   2.465 127.217  0.00  0.00    -0.003 A 
ATOM     13  C   LIG A   1      -5.748   3.663 127.897  0.00  0.00    +0.056 A 
ATOM     14  C   LIG A   1      -4.761   4.631 127.947  0.00  0.00    +0.167 A 
ATOM     15  C   LIG A   1      -3.529   4.449 127.362  0.00  0.00    +0.166 A 
ATOM     16  C   LIG A   1      -3.211   3.290 126.696  0.00  0.00    +0.050 A 
ATOM     17  C   LIG A   1      -4.189   2.292 126.631  0.00  0.00    +0.011 A 
ATOM     18  O   LIG A   1      -2.711   5.522 127.522  0.00  0.00    -0.453 OA
ATOM     19  C   LIG A   1      -3.567   6.405 128.273  0.00  0.00    +0.466 C 
ATOM     20  O   LIG A   1      -4.869   5.846 128.549  0.00  0.00    -0.453 OA
ENDBRANCH   9  12
BRANCH   6  21
ATOM     21  O   LIG A   1      -4.721  -3.241 124.098  0.00  0.00    -0.372 OA
ATOM     22  C   LIG A   1      -4.829  -4.634 123.854  0.00  0.00    +0.195 C 
ENDBRANCH   6  21
BRANCH   1  23
ATOM     23  C   LIG A   1      -7.980  -1.622 126.777  0.00  0.00    +0.041 C 
BRANCH  23  24
ATOM     24  C   LIG A   1      -7.928  -2.900 127.583  0.00  0.00    -0.034 C 
ATOM     25  C   LIG A   1      -8.884  -3.838 127.607  0.00  0.00    +0.004 C 
ENDBRANCH  23  24
ENDBRANCH   1  23
TORSDOF 4
ENDMDL
