MODEL 1
REMARK VINA RESULT:      -7.5      0.000      0.000
REMARK  Name = NuBBE_1857
REMARK  6 active torsions:
REMARK  status: ('A' for Active; 'I' for Inactive)
REMARK    1  A    between atoms: O_1  and  C_2
REMARK    2  A    between atoms: C_7  and  C_8
REMARK    3  A    between atoms: C_8  and  C_9
REMARK    4  A    between atoms: C_9  and  C_10
REMARK    5  A    between atoms: C_13  and  C_18
REMARK    6  A    between atoms: C_21  and  O_22
REMARK                            x       y       z     vdW  Elec       q    Type
REMARK                         _______ _______ _______ _____ _____    ______ ____
ROOT
ATOM      1  C   LIG A   1      -8.814  -3.327 124.236  0.00  0.00    +0.119 C 
ATOM      2  O   LIG A   1      -8.839  -2.474 123.087  0.00  0.00    -0.369 OA
ATOM      3  C   LIG A   1      -7.771  -1.531 122.917  0.00  0.00    +0.149 C 
ATOM      4  C   LIG A   1      -6.379  -2.121 123.199  0.00  0.00    +0.036 C 
ATOM      5  C   LIG A   1      -6.332  -2.979 124.454  0.00  0.00    +0.005 C 
ATOM      6  C   LIG A   1      -7.452  -4.004 124.394  0.00  0.00    +0.032 C 
ENDROOT
BRANCH   3   7
ATOM      7  C   LIG A   1      -8.115  -0.181 123.528  0.00  0.00    -0.019 A 
ATOM      8  C   LIG A   1      -9.367   0.391 123.223  0.00  0.00    +0.010 A 
ATOM      9  C   LIG A   1      -9.731   1.646 123.715  0.00  0.00    +0.046 A 
ATOM     10  C   LIG A   1      -8.844   2.342 124.525  0.00  0.00    +0.117 A 
ATOM     11  C   LIG A   1      -7.602   1.806 124.836  0.00  0.00    +0.046 A 
ATOM     12  C   LIG A   1      -7.236   0.551 124.340  0.00  0.00    +0.010 A 
BRANCH  10  13
ATOM     13  O   LIG A   1      -9.163   3.558 125.052  0.00  0.00    -0.507 OA
ATOM     14  H   LIG A   1      -8.450   4.182 124.840  0.00  0.00    +0.292 HD
ENDBRANCH  10  13
ENDBRANCH   3   7
BRANCH   1  15
ATOM     15  C   LIG A   1      -9.296  -2.630 125.520  0.00  0.00    +0.036 C 
BRANCH  15  16
ATOM     16  C   LIG A   1      -9.052  -3.492 126.767  0.00  0.00    +0.037 C 
BRANCH  16  22
ATOM     17  C   LIG A   1      -7.062  -1.298 129.896  0.00  0.00    +0.117 A 
ATOM     18  C   LIG A   1      -7.649  -2.525 130.184  0.00  0.00    +0.045 A 
ATOM     19  C   LIG A   1      -8.286  -3.234 129.162  0.00  0.00    +0.007 A 
ATOM     20  C   LIG A   1      -7.093  -0.782 128.607  0.00  0.00    +0.045 A 
ATOM     21  C   LIG A   1      -7.732  -1.492 127.587  0.00  0.00    +0.007 A 
ATOM     22  C   LIG A   1      -8.339  -2.727 127.856  0.00  0.00    -0.047 A 
BRANCH  17  23
ATOM     23  O   LIG A   1      -6.444  -0.563 130.864  0.00  0.00    -0.507 OA
ATOM     24  H   LIG A   1      -6.870  -0.760 131.714  0.00  0.00    +0.292 HD
ENDBRANCH  17  23
ENDBRANCH  16  22
ENDBRANCH  15  16
ENDBRANCH   1  15
TORSDOF 6
ENDMDL
MODEL 2
REMARK VINA RESULT:      -7.1      2.013      2.847
REMARK  Name = NuBBE_1857
REMARK  6 active torsions:
REMARK  status: ('A' for Active; 'I' for Inactive)
REMARK    1  A    between atoms: O_1  and  C_2
REMARK    2  A    between atoms: C_7  and  C_8
REMARK    3  A    between atoms: C_8  and  C_9
REMARK    4  A    between atoms: C_9  and  C_10
REMARK    5  A    between atoms: C_13  and  C_18
REMARK    6  A    between atoms: C_21  and  O_22
REMARK                            x       y       z     vdW  Elec       q    Type
REMARK                         _______ _______ _______ _____ _____    ______ ____
ROOT
ATOM      1  C   LIG A   1      -9.493  -2.912 125.326  0.00  0.00    +0.119 C 
ATOM      2  O   LIG A   1      -9.720  -1.510 125.492  0.00  0.00    -0.369 OA
ATOM      3  C   LIG A   1      -8.868  -0.595 124.786  0.00  0.00    +0.149 C 
ATOM      4  C   LIG A   1      -8.612  -0.996 123.324  0.00  0.00    +0.036 C 
ATOM      5  C   LIG A   1      -8.309  -2.476 123.150  0.00  0.00    +0.005 C 
ATOM      6  C   LIG A   1      -9.387  -3.288 123.847  0.00  0.00    +0.032 C 
ENDROOT
BRANCH   3   7
ATOM      7  C   LIG A   1      -7.677  -0.175 125.634  0.00  0.00    -0.019 A 
ATOM      8  C   LIG A   1      -7.926   0.435 126.881  0.00  0.00    +0.010 A 
ATOM      9  C   LIG A   1      -6.881   0.883 127.691  0.00  0.00    +0.046 A 
ATOM     10  C   LIG A   1      -5.570   0.720 127.263  0.00  0.00    +0.117 A 
ATOM     11  C   LIG A   1      -5.296   0.129 126.038  0.00  0.00    +0.046 A 
ATOM     12  C   LIG A   1      -6.343  -0.317 125.224  0.00  0.00    +0.010 A 
BRANCH  10  13
ATOM     13  O   LIG A   1      -4.515   1.116 128.029  0.00  0.00    -0.507 OA
ATOM     14  H   LIG A   1      -4.760   1.935 128.490  0.00  0.00    +0.292 HD
ENDBRANCH  10  13
ENDBRANCH   3   7
BRANCH   1  15
ATOM     15  C   LIG A   1      -8.319  -3.441 126.169  0.00  0.00    +0.036 C 
BRANCH  15  16
ATOM     16  C   LIG A   1      -8.659  -3.483 127.665  0.00  0.00    +0.037 C 
BRANCH  16  22
ATOM     17  C   LIG A   1      -5.553  -1.741 130.091  0.00  0.00    +0.117 A 
ATOM     18  C   LIG A   1      -5.223  -2.356 128.889  0.00  0.00    +0.045 A 
ATOM     19  C   LIG A   1      -6.236  -2.912 128.104  0.00  0.00    +0.007 A 
ATOM     20  C   LIG A   1      -6.875  -1.666 130.509  0.00  0.00    +0.045 A 
ATOM     21  C   LIG A   1      -7.887  -2.224 129.723  0.00  0.00    +0.007 A 
ATOM     22  C   LIG A   1      -7.577  -2.857 128.511  0.00  0.00    -0.047 A 
BRANCH  17  23
ATOM     23  O   LIG A   1      -4.596  -1.200 130.898  0.00  0.00    -0.507 OA
ATOM     24  H   LIG A   1      -4.892  -1.280 131.818  0.00  0.00    +0.292 HD
ENDBRANCH  17  23
ENDBRANCH  16  22
ENDBRANCH  15  16
ENDBRANCH   1  15
TORSDOF 6
ENDMDL
MODEL 3
REMARK VINA RESULT:      -7.0      2.567      3.877
REMARK  Name = NuBBE_1857
REMARK  6 active torsions:
REMARK  status: ('A' for Active; 'I' for Inactive)
REMARK    1  A    between atoms: O_1  and  C_2
REMARK    2  A    between atoms: C_7  and  C_8
REMARK    3  A    between atoms: C_8  and  C_9
REMARK    4  A    between atoms: C_9  and  C_10
REMARK    5  A    between atoms: C_13  and  C_18
REMARK    6  A    between atoms: C_21  and  O_22
REMARK                            x       y       z     vdW  Elec       q    Type
REMARK                         _______ _______ _______ _____ _____    ______ ____
ROOT
ATOM      1  C   LIG A   1      -6.171  -2.259 125.506  0.00  0.00    +0.119 C 
ATOM      2  O   LIG A   1      -7.554  -1.960 125.295  0.00  0.00    -0.369 OA
ATOM      3  C   LIG A   1      -7.941  -1.390 124.036  0.00  0.00    +0.149 C 
ATOM      4  C   LIG A   1      -7.278  -2.066 122.824  0.00  0.00    +0.036 C 
ATOM      5  C   LIG A   1      -5.793  -2.330 123.020  0.00  0.00    +0.005 C 
ATOM      6  C   LIG A   1      -5.590  -3.057 124.338  0.00  0.00    +0.032 C 
ENDROOT
BRANCH   3   7
ATOM      7  C   LIG A   1      -7.953   0.130 124.092  0.00  0.00    -0.019 A 
ATOM      8  C   LIG A   1      -8.899   0.762 124.924  0.00  0.00    +0.010 A 
ATOM      9  C   LIG A   1      -8.993   2.153 124.992  0.00  0.00    +0.046 A 
ATOM     10  C   LIG A   1      -8.134   2.931 124.226  0.00  0.00    +0.117 A 
ATOM     11  C   LIG A   1      -7.197   2.337 123.393  0.00  0.00    +0.046 A 
ATOM     12  C   LIG A   1      -7.106   0.943 123.323  0.00  0.00    +0.010 A 
BRANCH  10  13
ATOM     13  O   LIG A   1      -8.168   4.292 124.278  0.00  0.00    -0.507 OA
ATOM     14  H   LIG A   1      -7.383   4.601 124.760  0.00  0.00    +0.292 HD
ENDBRANCH  10  13
ENDBRANCH   3   7
BRANCH   1  15
ATOM     15  C   LIG A   1      -5.331  -1.021 125.869  0.00  0.00    +0.036 C 
BRANCH  15  16
ATOM     16  C   LIG A   1      -5.876  -0.301 127.111  0.00  0.00    +0.037 C 
BRANCH  16  22
ATOM     17  C   LIG A   1      -5.566   3.983 126.769  0.00  0.00    +0.117 A 
ATOM     18  C   LIG A   1      -4.704   3.171 126.041  0.00  0.00    +0.045 A 
ATOM     19  C   LIG A   1      -4.815   1.783 126.151  0.00  0.00    +0.007 A 
ATOM     20  C   LIG A   1      -6.538   3.427 127.590  0.00  0.00    +0.045 A 
ATOM     21  C   LIG A   1      -6.647   2.038 127.700  0.00  0.00    +0.007 A 
ATOM     22  C   LIG A   1      -5.783   1.200 126.982  0.00  0.00    -0.047 A 
BRANCH  17  23
ATOM     23  O   LIG A   1      -5.483   5.342 126.706  0.00  0.00    -0.507 OA
ATOM     24  H   LIG A   1      -6.382   5.705 126.743  0.00  0.00    +0.292 HD
ENDBRANCH  17  23
ENDBRANCH  16  22
ENDBRANCH  15  16
ENDBRANCH   1  15
TORSDOF 6
ENDMDL
MODEL 4
REMARK VINA RESULT:      -7.0      1.873      4.991
REMARK  Name = NuBBE_1857
REMARK  6 active torsions:
REMARK  status: ('A' for Active; 'I' for Inactive)
REMARK    1  A    between atoms: O_1  and  C_2
REMARK    2  A    between atoms: C_7  and  C_8
REMARK    3  A    between atoms: C_8  and  C_9
REMARK    4  A    between atoms: C_9  and  C_10
REMARK    5  A    between atoms: C_13  and  C_18
REMARK    6  A    between atoms: C_21  and  O_22
REMARK                            x       y       z     vdW  Elec       q    Type
REMARK                         _______ _______ _______ _____ _____    ______ ____
ROOT
ATOM      1  C   LIG A   1      -5.680  -0.288 128.843  0.00  0.00    +0.119 C 
ATOM      2  O   LIG A   1      -5.422   0.674 127.816  0.00  0.00    -0.369 OA
ATOM      3  C   LIG A   1      -6.418   1.675 127.556  0.00  0.00    +0.149 C 
ATOM      4  C   LIG A   1      -7.012   2.297 128.831  0.00  0.00    +0.036 C 
ATOM      5  C   LIG A   1      -7.346   1.271 129.903  0.00  0.00    +0.005 C 
ATOM      6  C   LIG A   1      -6.132   0.389 130.138  0.00  0.00    +0.032 C 
ENDROOT
BRANCH   3   7
ATOM      7  C   LIG A   1      -7.376   1.236 126.459  0.00  0.00    -0.019 A 
ATOM      8  C   LIG A   1      -6.848   0.966 125.180  0.00  0.00    +0.010 A 
ATOM      9  C   LIG A   1      -7.674   0.600 124.115  0.00  0.00    +0.046 A 
ATOM     10  C   LIG A   1      -9.044   0.496 124.322  0.00  0.00    +0.117 A 
ATOM     11  C   LIG A   1      -9.592   0.763 125.569  0.00  0.00    +0.046 A 
ATOM     12  C   LIG A   1      -8.764   1.133 126.634  0.00  0.00    +0.010 A 
BRANCH  10  13
ATOM     13  O   LIG A   1      -9.889   0.116 123.323  0.00  0.00    -0.507 OA
ATOM     14  H   LIG A   1     -10.778   0.451 123.529  0.00  0.00    +0.292 HD
ENDBRANCH  10  13
ENDBRANCH   3   7
BRANCH   1  15
ATOM     15  C   LIG A   1      -6.621  -1.419 128.393  0.00  0.00    +0.036 C 
BRANCH  15  16
ATOM     16  C   LIG A   1      -6.079  -2.162 127.163  0.00  0.00    +0.037 C 
BRANCH  16  22
ATOM     17  C   LIG A   1      -9.211  -3.219 124.399  0.00  0.00    +0.117 A 
ATOM     18  C   LIG A   1      -9.530  -2.923 125.719  0.00  0.00    +0.045 A 
ATOM     19  C   LIG A   1      -8.510  -2.574 126.608  0.00  0.00    +0.007 A 
ATOM     20  C   LIG A   1      -7.895  -3.159 123.958  0.00  0.00    +0.045 A 
ATOM     21  C   LIG A   1      -6.876  -2.810 124.848  0.00  0.00    +0.007 A 
ATOM     22  C   LIG A   1      -7.174  -2.517 126.186  0.00  0.00    -0.047 A 
BRANCH  17  23
ATOM     23  O   LIG A   1     -10.170  -3.581 123.501  0.00  0.00    -0.507 OA
ATOM     24  H   LIG A   1     -10.512  -2.776 123.079  0.00  0.00    +0.292 HD
ENDBRANCH  17  23
ENDBRANCH  16  22
ENDBRANCH  15  16
ENDBRANCH   1  15
TORSDOF 6
ENDMDL
MODEL 5
REMARK VINA RESULT:      -6.9      6.852      9.210
REMARK  Name = NuBBE_1857
REMARK  6 active torsions:
REMARK  status: ('A' for Active; 'I' for Inactive)
REMARK    1  A    between atoms: O_1  and  C_2
REMARK    2  A    between atoms: C_7  and  C_8
REMARK    3  A    between atoms: C_8  and  C_9
REMARK    4  A    between atoms: C_9  and  C_10
REMARK    5  A    between atoms: C_13  and  C_18
REMARK    6  A    between atoms: C_21  and  O_22
REMARK                            x       y       z     vdW  Elec       q    Type
REMARK                         _______ _______ _______ _____ _____    ______ ____
ROOT
ATOM      1  C   LIG A   1      -4.189   5.432 129.403  0.00  0.00    +0.119 C 
ATOM      2  O   LIG A   1      -4.994   6.611 129.493  0.00  0.00    -0.369 OA
ATOM      3  C   LIG A   1      -5.193   7.201 130.786  0.00  0.00    +0.149 C 
ATOM      4  C   LIG A   1      -3.909   7.282 131.630  0.00  0.00    +0.036 C 
ATOM      5  C   LIG A   1      -3.080   6.007 131.586  0.00  0.00    +0.005 C 
ATOM      6  C   LIG A   1      -2.859   5.610 130.137  0.00  0.00    +0.032 C 
ENDROOT
BRANCH   3   7
ATOM      7  C   LIG A   1      -6.456   6.676 131.451  0.00  0.00    -0.019 A 
ATOM      8  C   LIG A   1      -7.697   6.952 130.841  0.00  0.00    +0.010 A 
ATOM      9  C   LIG A   1      -8.898   6.537 131.418  0.00  0.00    +0.046 A 
ATOM     10  C   LIG A   1      -8.870   5.835 132.616  0.00  0.00    +0.117 A 
ATOM     11  C   LIG A   1      -7.664   5.554 133.242  0.00  0.00    +0.046 A 
ATOM     12  C   LIG A   1      -6.461   5.973 132.665  0.00  0.00    +0.010 A 
BRANCH  10  13
ATOM     13  O   LIG A   1     -10.014   5.384 133.205  0.00  0.00    -0.507 OA
ATOM     14  H   LIG A   1      -9.786   5.013 134.074  0.00  0.00    +0.292 HD
ENDBRANCH  10  13
ENDBRANCH   3   7
BRANCH   1  15
ATOM     15  C   LIG A   1      -4.938   4.152 129.813  0.00  0.00    +0.036 C 
BRANCH  15  16
ATOM     16  C   LIG A   1      -6.212   3.941 128.981  0.00  0.00    +0.037 C 
BRANCH  16  22
ATOM     17  C   LIG A   1      -9.459   2.401 131.359  0.00  0.00    +0.117 A 
ATOM     18  C   LIG A   1      -9.734   3.091 130.184  0.00  0.00    +0.045 A 
ATOM     19  C   LIG A   1      -8.676   3.580 129.414  0.00  0.00    +0.007 A 
ATOM     20  C   LIG A   1      -8.148   2.187 131.764  0.00  0.00    +0.045 A 
ATOM     21  C   LIG A   1      -7.090   2.678 130.993  0.00  0.00    +0.007 A 
ATOM     22  C   LIG A   1      -7.345   3.385 129.809  0.00  0.00    -0.047 A 
BRANCH  17  23
ATOM     23  O   LIG A   1     -10.459   1.920 132.150  0.00  0.00    -0.507 OA
ATOM     24  H   LIG A   1     -11.209   2.533 132.100  0.00  0.00    +0.292 HD
ENDBRANCH  17  23
ENDBRANCH  16  22
ENDBRANCH  15  16
ENDBRANCH   1  15
TORSDOF 6
ENDMDL
MODEL 6
REMARK VINA RESULT:      -6.8      2.007      4.821
REMARK  Name = NuBBE_1857
REMARK  6 active torsions:
REMARK  status: ('A' for Active; 'I' for Inactive)
REMARK    1  A    between atoms: O_1  and  C_2
REMARK    2  A    between atoms: C_7  and  C_8
REMARK    3  A    between atoms: C_8  and  C_9
REMARK    4  A    between atoms: C_9  and  C_10
REMARK    5  A    between atoms: C_13  and  C_18
REMARK    6  A    between atoms: C_21  and  O_22
REMARK                            x       y       z     vdW  Elec       q    Type
REMARK                         _______ _______ _______ _____ _____    ______ ____
ROOT
ATOM      1  C   LIG A   1      -7.009  -3.149 124.203  0.00  0.00    +0.119 C 
ATOM      2  O   LIG A   1      -6.350  -3.099 125.472  0.00  0.00    -0.369 OA
ATOM      3  C   LIG A   1      -7.020  -2.444 126.559  0.00  0.00    +0.149 C 
ATOM      4  C   LIG A   1      -8.512  -2.801 126.668  0.00  0.00    +0.036 C 
ATOM      5  C   LIG A   1      -9.231  -2.796 125.327  0.00  0.00    +0.005 C 
ATOM      6  C   LIG A   1      -8.448  -3.648 124.343  0.00  0.00    +0.032 C 
ENDROOT
BRANCH   3   7
ATOM      7  C   LIG A   1      -6.624  -0.979 126.657  0.00  0.00    -0.019 A 
ATOM      8  C   LIG A   1      -7.569  -0.063 127.163  0.00  0.00    +0.010 A 
ATOM      9  C   LIG A   1      -7.288   1.302 127.241  0.00  0.00    +0.046 A 
ATOM     10  C   LIG A   1      -6.050   1.767 126.816  0.00  0.00    +0.117 A 
ATOM     11  C   LIG A   1      -5.103   0.889 126.307  0.00  0.00    +0.046 A 
ATOM     12  C   LIG A   1      -5.386  -0.478 126.225  0.00  0.00    +0.010 A 
BRANCH  10  13
ATOM     13  O   LIG A   1      -5.717   3.086 126.897  0.00  0.00    -0.507 OA
ATOM     14  H   LIG A   1      -5.297   3.244 127.759  0.00  0.00    +0.292 HD
ENDBRANCH  10  13
ENDBRANCH   3   7
BRANCH   1  15
ATOM     15  C   LIG A   1      -6.899  -1.836 123.409  0.00  0.00    +0.036 C 
BRANCH  15  16
ATOM     16  C   LIG A   1      -8.273  -1.199 123.159  0.00  0.00    +0.037 C 
BRANCH  16  22
ATOM     17  C   LIG A   1      -8.263   3.004 124.108  0.00  0.00    +0.117 A 
ATOM     18  C   LIG A   1      -7.141   2.429 123.523  0.00  0.00    +0.045 A 
ATOM     19  C   LIG A   1      -7.154   1.067 123.211  0.00  0.00    +0.007 A 
ATOM     20  C   LIG A   1      -9.394   2.242 124.372  0.00  0.00    +0.045 A 
ATOM     21  C   LIG A   1      -9.405   0.880 124.060  0.00  0.00    +0.007 A 
ATOM     22  C   LIG A   1      -8.282   0.276 123.478  0.00  0.00    -0.047 A 
BRANCH  17  23
ATOM     23  O   LIG A   1      -8.290   4.325 124.445  0.00  0.00    -0.507 OA
ATOM     24  H   LIG A   1      -8.549   4.834 123.661  0.00  0.00    +0.292 HD
ENDBRANCH  17  23
ENDBRANCH  16  22
ENDBRANCH  15  16
ENDBRANCH   1  15
TORSDOF 6
ENDMDL
MODEL 7
REMARK VINA RESULT:      -6.7      1.859      6.069
REMARK  Name = NuBBE_1857
REMARK  6 active torsions:
REMARK  status: ('A' for Active; 'I' for Inactive)
REMARK    1  A    between atoms: O_1  and  C_2
REMARK    2  A    between atoms: C_7  and  C_8
REMARK    3  A    between atoms: C_8  and  C_9
REMARK    4  A    between atoms: C_9  and  C_10
REMARK    5  A    between atoms: C_13  and  C_18
REMARK    6  A    between atoms: C_21  and  O_22
REMARK                            x       y       z     vdW  Elec       q    Type
REMARK                         _______ _______ _______ _____ _____    ______ ____
ROOT
ATOM      1  C   LIG A   1      -8.217  -1.012 123.805  0.00  0.00    +0.119 C 
ATOM      2  O   LIG A   1      -7.019  -1.568 124.354  0.00  0.00    -0.369 OA
ATOM      3  C   LIG A   1      -7.114  -2.796 125.090  0.00  0.00    +0.149 C 
ATOM      4  C   LIG A   1      -8.014  -3.848 124.419  0.00  0.00    +0.036 C 
ATOM      5  C   LIG A   1      -9.319  -3.272 123.889  0.00  0.00    +0.005 C 
ATOM      6  C   LIG A   1      -9.010  -2.062 123.025  0.00  0.00    +0.032 C 
ENDROOT
BRANCH   3   7
ATOM      7  C   LIG A   1      -7.294  -2.542 126.578  0.00  0.00    -0.019 A 
ATOM      8  C   LIG A   1      -8.220  -3.336 127.286  0.00  0.00    +0.010 A 
ATOM      9  C   LIG A   1      -8.466  -3.129 128.644  0.00  0.00    +0.046 A 
ATOM     10  C   LIG A   1      -7.782  -2.123 129.314  0.00  0.00    +0.117 A 
ATOM     11  C   LIG A   1      -6.869  -1.321 128.642  0.00  0.00    +0.046 A 
ATOM     12  C   LIG A   1      -6.626  -1.527 127.280  0.00  0.00    +0.010 A 
BRANCH  10  13
ATOM     13  O   LIG A   1      -7.966  -1.899 130.645  0.00  0.00    -0.507 OA
ATOM     14  H   LIG A   1      -7.462  -1.107 130.897  0.00  0.00    +0.292 HD
ENDBRANCH  10  13
ENDBRANCH   3   7
BRANCH   1  15
ATOM     15  C   LIG A   1      -9.069  -0.261 124.844  0.00  0.00    +0.036 C 
BRANCH  15  16
ATOM     16  C   LIG A   1      -8.431   1.075 125.251  0.00  0.00    +0.037 C 
BRANCH  16  22
ATOM     17  C   LIG A   1      -7.424   3.453 121.802  0.00  0.00    +0.117 A 
ATOM     18  C   LIG A   1      -8.735   3.031 121.987  0.00  0.00    +0.045 A 
ATOM     19  C   LIG A   1      -9.056   2.267 123.111  0.00  0.00    +0.007 A 
ATOM     20  C   LIG A   1      -6.439   3.133 122.728  0.00  0.00    +0.045 A 
ATOM     21  C   LIG A   1      -6.762   2.367 123.852  0.00  0.00    +0.007 A 
ATOM     22  C   LIG A   1      -8.076   1.922 124.054  0.00  0.00    -0.047 A 
BRANCH  17  23
ATOM     23  O   LIG A   1      -7.061   4.187 120.711  0.00  0.00    -0.507 OA
ATOM     24  H   LIG A   1      -7.143   3.624 119.925  0.00  0.00    +0.292 HD
ENDBRANCH  17  23
ENDBRANCH  16  22
ENDBRANCH  15  16
ENDBRANCH   1  15
TORSDOF 6
ENDMDL
MODEL 8
REMARK VINA RESULT:      -6.7      1.737      2.102
REMARK  Name = NuBBE_1857
REMARK  6 active torsions:
REMARK  status: ('A' for Active; 'I' for Inactive)
REMARK    1  A    between atoms: O_1  and  C_2
REMARK    2  A    between atoms: C_7  and  C_8
REMARK    3  A    between atoms: C_8  and  C_9
REMARK    4  A    between atoms: C_9  and  C_10
REMARK    5  A    between atoms: C_13  and  C_18
REMARK    6  A    between atoms: C_21  and  O_22
REMARK                            x       y       z     vdW  Elec       q    Type
REMARK                         _______ _______ _______ _____ _____    ______ ____
ROOT
ATOM      1  C   LIG A   1      -8.615  -2.643 125.353  0.00  0.00    +0.119 C 
ATOM      2  O   LIG A   1      -9.389  -1.982 124.347  0.00  0.00    -0.369 OA
ATOM      3  C   LIG A   1      -8.693  -1.331 123.274  0.00  0.00    +0.149 C 
ATOM      4  C   LIG A   1      -7.536  -2.163 122.696  0.00  0.00    +0.036 C 
ATOM      5  C   LIG A   1      -6.674  -2.818 123.764  0.00  0.00    +0.005 C 
ATOM      6  C   LIG A   1      -7.571  -3.571 124.731  0.00  0.00    +0.032 C 
ENDROOT
BRANCH   3   7
ATOM      7  C   LIG A   1      -8.437   0.136 123.584  0.00  0.00    -0.019 A 
ATOM      8  C   LIG A   1      -9.546   0.973 123.824  0.00  0.00    +0.010 A 
ATOM      9  C   LIG A   1      -9.386   2.337 124.073  0.00  0.00    +0.046 A 
ATOM     10  C   LIG A   1      -8.108   2.880 124.090  0.00  0.00    +0.117 A 
ATOM     11  C   LIG A   1      -6.999   2.082 123.851  0.00  0.00    +0.046 A 
ATOM     12  C   LIG A   1      -7.159   0.716 123.598  0.00  0.00    +0.010 A 
BRANCH  10  13
ATOM     13  O   LIG A   1      -7.898   4.200 124.356  0.00  0.00    -0.507 OA
ATOM     14  H   LIG A   1      -8.185   4.718 123.585  0.00  0.00    +0.292 HD
ENDBRANCH  10  13
ENDBRANCH   3   7
BRANCH   1  15
ATOM     15  C   LIG A   1      -8.023  -1.678 126.395  0.00  0.00    +0.036 C 
BRANCH  15  16
ATOM     16  C   LIG A   1      -8.260  -2.167 127.831  0.00  0.00    +0.037 C 
BRANCH  16  22
ATOM     17  C   LIG A   1      -4.584  -3.386 129.721  0.00  0.00    +0.117 A 
ATOM     18  C   LIG A   1      -4.543  -2.537 128.621  0.00  0.00    +0.045 A 
ATOM     19  C   LIG A   1      -5.739  -2.139 128.018  0.00  0.00    +0.007 A 
ATOM     20  C   LIG A   1      -5.799  -3.830 130.228  0.00  0.00    +0.045 A 
ATOM     21  C   LIG A   1      -6.994  -3.433 129.623  0.00  0.00    +0.007 A 
ATOM     22  C   LIG A   1      -6.977  -2.584 128.507  0.00  0.00    -0.047 A 
BRANCH  17  23
ATOM     23  O   LIG A   1      -3.442  -3.814 130.331  0.00  0.00    -0.507 OA
ATOM     24  H   LIG A   1      -2.844  -3.055 130.421  0.00  0.00    +0.292 HD
ENDBRANCH  17  23
ENDBRANCH  16  22
ENDBRANCH  15  16
ENDBRANCH   1  15
TORSDOF 6
ENDMDL
MODEL 9
REMARK VINA RESULT:      -6.6      2.410      6.581
REMARK  Name = NuBBE_1857
REMARK  6 active torsions:
REMARK  status: ('A' for Active; 'I' for Inactive)
REMARK    1  A    between atoms: O_1  and  C_2
REMARK    2  A    between atoms: C_7  and  C_8
REMARK    3  A    between atoms: C_8  and  C_9
REMARK    4  A    between atoms: C_9  and  C_10
REMARK    5  A    between atoms: C_13  and  C_18
REMARK    6  A    between atoms: C_21  and  O_22
REMARK                            x       y       z     vdW  Elec       q    Type
REMARK                         _______ _______ _______ _____ _____    ______ ____
ROOT
ATOM      1  C   LIG A   1      -7.202  -0.922 123.216  0.00  0.00    +0.119 C 
ATOM      2  O   LIG A   1      -6.157  -1.642 123.876  0.00  0.00    -0.369 OA
ATOM      3  C   LIG A   1      -6.523  -2.677 124.800  0.00  0.00    +0.149 C 
ATOM      4  C   LIG A   1      -7.652  -3.588 124.288  0.00  0.00    +0.036 C 
ATOM      5  C   LIG A   1      -8.795  -2.822 123.640  0.00  0.00    +0.005 C 
ATOM      6  C   LIG A   1      -8.228  -1.873 122.598  0.00  0.00    +0.032 C 
ENDROOT
BRANCH   3   7
ATOM      7  C   LIG A   1      -6.618  -2.148 126.223  0.00  0.00    -0.019 A 
ATOM      8  C   LIG A   1      -5.523  -1.429 126.743  0.00  0.00    +0.010 A 
ATOM      9  C   LIG A   1      -5.525  -0.951 128.055  0.00  0.00    +0.046 A 
ATOM     10  C   LIG A   1      -6.631  -1.185 128.862  0.00  0.00    +0.117 A 
ATOM     11  C   LIG A   1      -7.721  -1.895 128.378  0.00  0.00    +0.046 A 
ATOM     12  C   LIG A   1      -7.717  -2.377 127.065  0.00  0.00    +0.010 A 
BRANCH  10  13
ATOM     13  O   LIG A   1      -6.694  -0.715 130.140  0.00  0.00    -0.507 OA
ATOM     14  H   LIG A   1      -7.395  -0.044 130.187  0.00  0.00    +0.292 HD
ENDBRANCH  10  13
ENDBRANCH   3   7
BRANCH   1  15
ATOM     15  C   LIG A   1      -7.842   0.165 124.098  0.00  0.00    +0.036 C 
BRANCH  15  16
ATOM     16  C   LIG A   1      -7.008   1.454 124.116  0.00  0.00    +0.037 C 
BRANCH  16  22
ATOM     17  C   LIG A   1      -7.670   3.807 120.567  0.00  0.00    +0.117 A 
ATOM     18  C   LIG A   1      -8.758   3.361 121.309  0.00  0.00    +0.045 A 
ATOM     19  C   LIG A   1      -8.535   2.605 122.463  0.00  0.00    +0.007 A 
ATOM     20  C   LIG A   1      -6.372   3.518 120.969  0.00  0.00    +0.045 A 
ATOM     21  C   LIG A   1      -6.151   2.761 122.122  0.00  0.00    +0.007 A 
ATOM     22  C   LIG A   1      -7.233   2.293 122.881  0.00  0.00    -0.047 A 
BRANCH  17  23
ATOM     23  O   LIG A   1      -7.839   4.532 119.425  0.00  0.00    -0.507 OA
ATOM     24  H   LIG A   1      -7.804   3.925 118.670  0.00  0.00    +0.292 HD
ENDBRANCH  17  23
ENDBRANCH  16  22
ENDBRANCH  15  16
ENDBRANCH   1  15
TORSDOF 6
ENDMDL
