MODEL 1
REMARK VINA RESULT:      -8.7      0.000      0.000
REMARK  Name = NuBBE_1170
REMARK  15 active torsions:
REMARK  status: ('A' for Active; 'I' for Inactive)
REMARK    1  A    between atoms: O_1  and  C_2
REMARK    2  A    between atoms: C_3  and  C_35
REMARK    3  A    between atoms: C_6  and  O_21
REMARK    4  A    between atoms: C_7  and  C_8
REMARK    5  A    between atoms: C_10  and  O_12
REMARK    6  A    between atoms: C_13  and  O_15
REMARK    7  A    between atoms: C_16  and  O_20
REMARK    8  A    between atoms: C_25  and  C_27
REMARK    9  A    between atoms: C_29  and  O_30
REMARK   10  A    between atoms: C_31  and  O_34
REMARK   11  A    between atoms: C_38  and  C_40
REMARK   12  A    between atoms: C_40  and  O_41
REMARK   13  A    between atoms: C_42  and  O_50
REMARK   14  A    between atoms: C_44  and  O_49
REMARK   15  A    between atoms: C_46  and  O_48
REMARK                            x       y       z     vdW  Elec       q    Type
REMARK                         _______ _______ _______ _____ _____    ______ ____
ROOT
ATOM      1  C   LIG A   1      -7.251   1.423 128.628  0.00  0.00    +0.135 A 
ATOM      2  C   LIG A   1      -7.965   2.630 128.404  0.00  0.00    +0.069 A 
ATOM      3  C   LIG A   1      -8.646   3.199 129.497  0.00  0.00    +0.152 A 
ATOM      4  C   LIG A   1      -8.580   2.586 130.753  0.00  0.00    +0.106 A 
ATOM      5  C   LIG A   1      -7.832   1.403 130.947  0.00  0.00    +0.140 A 
ATOM      6  C   LIG A   1      -7.177   0.774 129.879  0.00  0.00    +0.068 A 
ATOM      7  C   LIG A   1      -9.321   3.202 131.860  0.00  0.00    +0.197 A 
ATOM      8  O   LIG A   1      -9.327   2.697 132.987  0.00  0.00    -0.287 OA
ATOM      9  C   LIG A   1     -10.061   4.431 131.588  0.00  0.00    +0.098 A 
ATOM     10  C   LIG A   1     -10.025   4.956 130.357  0.00  0.00    +0.139 A 
ATOM     11  O   LIG A   1      -9.355   4.366 129.291  0.00  0.00    -0.454 OA
ENDROOT
BRANCH   6  12
ATOM     12  C   LIG A   1      -6.446  -0.565 130.086  0.00  0.00    +0.186 C 
ATOM     13  C   LIG A   1      -4.914  -0.428 130.336  0.00  0.00    +0.179 C 
ATOM     14  C   LIG A   1      -4.273  -1.819 130.513  0.00  0.00    +0.176 C 
ATOM     15  C   LIG A   1      -4.638  -2.727 129.330  0.00  0.00    +0.171 C 
ATOM     16  C   LIG A   1      -6.157  -2.750 129.151  0.00  0.00    +0.194 C 
ATOM     17  O   LIG A   1      -6.683  -1.436 128.955  0.00  0.00    -0.366 OA
BRANCH  13  18
ATOM     18  O   LIG A   1      -4.232   0.208 129.236  0.00  0.00    -0.386 OA
ATOM     19  H   LIG A   1      -4.919   0.614 128.668  0.00  0.00    +0.210 HD
ENDBRANCH  13  18
BRANCH  14  20
ATOM     20  O   LIG A   1      -4.701  -2.432 131.738  0.00  0.00    -0.387 OA
ATOM     21  H   LIG A   1      -4.922  -3.358 131.513  0.00  0.00    +0.210 HD
ENDBRANCH  14  20
BRANCH  15  22
ATOM     22  O   LIG A   1      -4.142  -4.051 129.570  0.00  0.00    -0.387 OA
ATOM     23  H   LIG A   1      -3.301  -3.952 130.055  0.00  0.00    +0.210 HD
ENDBRANCH  15  22
ENDBRANCH   6  12
BRANCH  10  24
ATOM     24  C   LIG A   1     -10.757   6.208 130.041  0.00  0.00    +0.021 A 
ATOM     25  C   LIG A   1     -10.368   7.005 128.952  0.00  0.00    +0.060 A 
ATOM     26  C   LIG A   1     -11.083   8.163 128.645  0.00  0.00    +0.159 A 
ATOM     27  C   LIG A   1     -12.179   8.544 129.411  0.00  0.00    +0.158 A 
ATOM     28  C   LIG A   1     -12.574   7.789 130.500  0.00  0.00    +0.050 A 
ATOM     29  C   LIG A   1     -11.859   6.630 130.818  0.00  0.00    +0.015 A 
BRANCH  26  30
ATOM     30  O   LIG A   1     -10.747   8.959 127.584  0.00  0.00    -0.503 OA
ATOM     31  H   LIG A   1     -11.083   9.855 127.758  0.00  0.00    +0.292 HD
ENDBRANCH  26  30
BRANCH  27  32
ATOM     32  O   LIG A   1     -12.877   9.673 129.097  0.00  0.00    -0.503 OA
ATOM     33  H   LIG A   1     -12.578   9.904 128.196  0.00  0.00    +0.292 HD
ENDBRANCH  27  32
ENDBRANCH  10  24
BRANCH   2  34
ATOM     34  C   LIG A   1      -7.939   3.344 127.046  0.00  0.00    +0.187 C 
ATOM     35  O   LIG A   1      -8.569   2.475 126.075  0.00  0.00    -0.361 OA
ATOM     36  C   LIG A   1      -8.592   3.004 124.743  0.00  0.00    +0.175 C 
ATOM     37  C   LIG A   1      -7.168   3.265 124.226  0.00  0.00    +0.176 C 
ATOM     38  C   LIG A   1      -6.460   4.214 125.186  0.00  0.00    +0.177 C 
ATOM     39  C   LIG A   1      -6.491   3.697 126.626  0.00  0.00    +0.179 C 
BRANCH  39  40
ATOM     40  O   LIG A   1      -5.934   4.719 127.466  0.00  0.00    -0.386 OA
ATOM     41  H   LIG A   1      -5.216   5.124 126.935  0.00  0.00    +0.210 HD
ENDBRANCH  39  40
BRANCH  38  42
ATOM     42  O   LIG A   1      -5.094   4.400 124.780  0.00  0.00    -0.387 OA
ATOM     43  H   LIG A   1      -4.684   3.513 124.863  0.00  0.00    +0.210 HD
ENDBRANCH  38  42
BRANCH  37  44
ATOM     44  O   LIG A   1      -7.151   3.875 122.929  0.00  0.00    -0.387 OA
ATOM     45  H   LIG A   1      -7.511   4.783 123.037  0.00  0.00    +0.210 HD
ENDBRANCH  37  44
BRANCH  36  46
ATOM     46  C   LIG A   1      -9.333   1.999 123.848  0.00  0.00    +0.190 C 
BRANCH  46  47
ATOM     47  O   LIG A   1     -10.658   1.780 124.320  0.00  0.00    -0.392 OA
ATOM     48  H   LIG A   1     -10.642   1.934 125.284  0.00  0.00    +0.209 HD
ENDBRANCH  46  47
ENDBRANCH  36  46
ENDBRANCH   2  34
BRANCH   1  49
ATOM     49  O   LIG A   1      -6.562   0.858 127.581  0.00  0.00    -0.506 OA
ATOM     50  H   LIG A   1      -6.295  -0.032 127.894  0.00  0.00    +0.292 HD
ENDBRANCH   1  49
BRANCH   5  51
ATOM     51  O   LIG A   1      -7.719   0.838 132.194  0.00  0.00    -0.505 OA
ATOM     52  H   LIG A   1      -6.788   0.544 132.328  0.00  0.00    +0.292 HD
ENDBRANCH   5  51
TORSDOF 15
ENDMDL
MODEL 2
REMARK VINA RESULT:      -8.6      4.004      7.925
REMARK  Name = NuBBE_1170
REMARK  15 active torsions:
REMARK  status: ('A' for Active; 'I' for Inactive)
REMARK    1  A    between atoms: O_1  and  C_2
REMARK    2  A    between atoms: C_3  and  C_35
REMARK    3  A    between atoms: C_6  and  O_21
REMARK    4  A    between atoms: C_7  and  C_8
REMARK    5  A    between atoms: C_10  and  O_12
REMARK    6  A    between atoms: C_13  and  O_15
REMARK    7  A    between atoms: C_16  and  O_20
REMARK    8  A    between atoms: C_25  and  C_27
REMARK    9  A    between atoms: C_29  and  O_30
REMARK   10  A    between atoms: C_31  and  O_34
REMARK   11  A    between atoms: C_38  and  C_40
REMARK   12  A    between atoms: C_40  and  O_41
REMARK   13  A    between atoms: C_42  and  O_50
REMARK   14  A    between atoms: C_44  and  O_49
REMARK   15  A    between atoms: C_46  and  O_48
REMARK                            x       y       z     vdW  Elec       q    Type
REMARK                         _______ _______ _______ _____ _____    ______ ____
ROOT
ATOM      1  C   LIG A   1      -7.188   3.324 128.134  0.00  0.00    +0.135 A 
ATOM      2  C   LIG A   1      -6.460   3.870 129.225  0.00  0.00    +0.069 A 
ATOM      3  C   LIG A   1      -5.095   4.150 129.025  0.00  0.00    +0.152 A 
ATOM      4  C   LIG A   1      -4.512   3.913 127.776  0.00  0.00    +0.106 A 
ATOM      5  C   LIG A   1      -5.276   3.400 126.703  0.00  0.00    +0.140 A 
ATOM      6  C   LIG A   1      -6.626   3.061 126.867  0.00  0.00    +0.068 A 
ATOM      7  C   LIG A   1      -3.082   4.200 127.616  0.00  0.00    +0.197 A 
ATOM      8  O   LIG A   1      -2.500   3.987 126.548  0.00  0.00    -0.287 OA
ATOM      9  C   LIG A   1      -2.361   4.741 128.766  0.00  0.00    +0.098 A 
ATOM     10  C   LIG A   1      -3.025   4.968 129.905  0.00  0.00    +0.139 A 
ATOM     11  O   LIG A   1      -4.371   4.669 130.081  0.00  0.00    -0.454 OA
ENDROOT
BRANCH   6  12
ATOM     12  C   LIG A   1      -7.418   2.415 125.717  0.00  0.00    +0.186 C 
ATOM     13  C   LIG A   1      -8.101   3.434 124.755  0.00  0.00    +0.179 C 
ATOM     14  C   LIG A   1      -8.881   2.690 123.653  0.00  0.00    +0.176 C 
ATOM     15  C   LIG A   1      -9.846   1.673 124.277  0.00  0.00    +0.171 C 
ATOM     16  C   LIG A   1      -9.079   0.759 125.233  0.00  0.00    +0.194 C 
ATOM     17  O   LIG A   1      -8.409   1.504 126.251  0.00  0.00    -0.366 OA
BRANCH  13  18
ATOM     18  O   LIG A   1      -9.047   4.283 125.435  0.00  0.00    -0.386 OA
ATOM     19  H   LIG A   1      -9.942   3.989 125.166  0.00  0.00    +0.210 HD
ENDBRANCH  13  18
BRANCH  14  20
ATOM     20  O   LIG A   1      -7.988   2.016 122.754  0.00  0.00    -0.387 OA
ATOM     21  H   LIG A   1      -7.284   2.661 122.540  0.00  0.00    +0.210 HD
ENDBRANCH  14  20
BRANCH  15  22
ATOM     22  O   LIG A   1     -10.470   0.903 123.240  0.00  0.00    -0.387 OA
ATOM     23  H   LIG A   1     -11.016   1.523 122.721  0.00  0.00    +0.210 HD
ENDBRANCH  15  22
ENDBRANCH   6  12
BRANCH  10  24
ATOM     24  C   LIG A   1      -2.331   5.523 131.093  0.00  0.00    +0.021 A 
ATOM     25  C   LIG A   1      -2.758   5.188 132.390  0.00  0.00    +0.060 A 
ATOM     26  C   LIG A   1      -2.078   5.691 133.499  0.00  0.00    +0.159 A 
ATOM     27  C   LIG A   1      -0.981   6.529 133.339  0.00  0.00    +0.158 A 
ATOM     28  C   LIG A   1      -0.548   6.891 132.076  0.00  0.00    +0.050 A 
ATOM     29  C   LIG A   1      -1.228   6.396 130.958  0.00  0.00    +0.015 A 
BRANCH  26  30
ATOM     30  O   LIG A   1      -2.451   5.377 134.778  0.00  0.00    -0.503 OA
ATOM     31  H   LIG A   1      -2.090   4.500 134.993  0.00  0.00    +0.292 HD
ENDBRANCH  26  30
BRANCH  27  32
ATOM     32  O   LIG A   1      -0.317   7.008 134.431  0.00  0.00    -0.503 OA
ATOM     33  H   LIG A   1       0.111   7.829 134.118  0.00  0.00    +0.292 HD
ENDBRANCH  27  32
ENDBRANCH  10  24
BRANCH   2  34
ATOM     34  C   LIG A   1      -7.141   4.223 130.555  0.00  0.00    +0.187 C 
ATOM     35  O   LIG A   1      -8.010   3.123 130.914  0.00  0.00    -0.361 OA
ATOM     36  C   LIG A   1      -8.739   3.326 132.132  0.00  0.00    +0.175 C 
ATOM     37  C   LIG A   1      -9.637   4.570 132.038  0.00  0.00    +0.176 C 
ATOM     38  C   LIG A   1      -8.771   5.780 131.703  0.00  0.00    +0.177 C 
ATOM     39  C   LIG A   1      -7.931   5.550 130.445  0.00  0.00    +0.179 C 
BRANCH  39  40
ATOM     40  O   LIG A   1      -7.053   6.675 130.298  0.00  0.00    -0.386 OA
ATOM     41  H   LIG A   1      -6.899   7.000 131.210  0.00  0.00    +0.210 HD
ENDBRANCH  39  40
BRANCH  38  42
ATOM     42  O   LIG A   1      -9.597   6.941 131.514  0.00  0.00    -0.387 OA
ATOM     43  H   LIG A   1      -9.981   7.123 132.397  0.00  0.00    +0.210 HD
ENDBRANCH  38  42
BRANCH  37  44
ATOM     44  O   LIG A   1     -10.318   4.857 133.267  0.00  0.00    -0.387 OA
ATOM     45  H   LIG A   1     -11.104   5.400 133.036  0.00  0.00    +0.210 HD
ENDBRANCH  37  44
BRANCH  36  46
ATOM     46  C   LIG A   1      -9.568   2.061 132.403  0.00  0.00    +0.190 C 
BRANCH  46  47
ATOM     47  O   LIG A   1     -10.834   2.136 131.756  0.00  0.00    -0.392 OA
ATOM     48  H   LIG A   1     -11.344   1.355 132.043  0.00  0.00    +0.209 HD
ENDBRANCH  46  47
ENDBRANCH  36  46
ENDBRANCH   2  34
BRANCH   1  49
ATOM     49  O   LIG A   1      -8.527   3.060 128.299  0.00  0.00    -0.506 OA
ATOM     50  H   LIG A   1      -8.580   2.447 129.063  0.00  0.00    +0.292 HD
ENDBRANCH   1  49
BRANCH   5  51
ATOM     51  O   LIG A   1      -4.715   3.226 125.460  0.00  0.00    -0.505 OA
ATOM     52  H   LIG A   1      -4.139   4.000 125.259  0.00  0.00    +0.292 HD
ENDBRANCH   5  51
TORSDOF 15
ENDMDL
MODEL 3
REMARK VINA RESULT:      -8.1      1.997      8.272
REMARK  Name = NuBBE_1170
REMARK  15 active torsions:
REMARK  status: ('A' for Active; 'I' for Inactive)
REMARK    1  A    between atoms: O_1  and  C_2
REMARK    2  A    between atoms: C_3  and  C_35
REMARK    3  A    between atoms: C_6  and  O_21
REMARK    4  A    between atoms: C_7  and  C_8
REMARK    5  A    between atoms: C_10  and  O_12
REMARK    6  A    between atoms: C_13  and  O_15
REMARK    7  A    between atoms: C_16  and  O_20
REMARK    8  A    between atoms: C_25  and  C_27
REMARK    9  A    between atoms: C_29  and  O_30
REMARK   10  A    between atoms: C_31  and  O_34
REMARK   11  A    between atoms: C_38  and  C_40
REMARK   12  A    between atoms: C_40  and  O_41
REMARK   13  A    between atoms: C_42  and  O_50
REMARK   14  A    between atoms: C_44  and  O_49
REMARK   15  A    between atoms: C_46  and  O_48
REMARK                            x       y       z     vdW  Elec       q    Type
REMARK                         _______ _______ _______ _____ _____    ______ ____
ROOT
ATOM      1  C   LIG A   1      -8.758   5.115 129.477  0.00  0.00    +0.135 A 
ATOM      2  C   LIG A   1      -7.793   4.093 129.684  0.00  0.00    +0.069 A 
ATOM      3  C   LIG A   1      -7.520   3.712 131.012  0.00  0.00    +0.152 A 
ATOM      4  C   LIG A   1      -8.211   4.317 132.066  0.00  0.00    +0.106 A 
ATOM      5  C   LIG A   1      -9.189   5.307 131.821  0.00  0.00    +0.140 A 
ATOM      6  C   LIG A   1      -9.461   5.755 130.520  0.00  0.00    +0.068 A 
ATOM      7  C   LIG A   1      -7.882   3.904 133.435  0.00  0.00    +0.197 A 
ATOM      8  O   LIG A   1      -8.435   4.418 134.411  0.00  0.00    -0.287 OA
ATOM      9  C   LIG A   1      -6.869   2.866 133.610  0.00  0.00    +0.098 A 
ATOM     10  C   LIG A   1      -6.296   2.323 132.530  0.00  0.00    +0.139 A 
ATOM     11  O   LIG A   1      -6.574   2.728 131.229  0.00  0.00    -0.454 OA
ENDROOT
BRANCH   6  12
ATOM     12  C   LIG A   1     -10.460   6.900 130.277  0.00  0.00    +0.186 C 
ATOM     13  C   LIG A   1     -11.946   6.443 130.161  0.00  0.00    +0.179 C 
ATOM     14  C   LIG A   1     -12.860   7.657 129.901  0.00  0.00    +0.176 C 
ATOM     15  C   LIG A   1     -12.354   8.457 128.693  0.00  0.00    +0.171 C 
ATOM     16  C   LIG A   1     -10.879   8.810 128.895  0.00  0.00    +0.194 C 
ATOM     17  O   LIG A   1     -10.081   7.643 129.094  0.00  0.00    -0.366 OA
BRANCH  13  18
ATOM     18  O   LIG A   1     -12.154   5.523 129.071  0.00  0.00    -0.386 OA
ATOM     19  H   LIG A   1     -12.572   6.029 128.344  0.00  0.00    +0.210 HD
ENDBRANCH  13  18
BRANCH  14  20
ATOM     20  O   LIG A   1     -12.922   8.512 131.052  0.00  0.00    -0.387 OA
ATOM     21  H   LIG A   1     -13.855   8.497 131.348  0.00  0.00    +0.210 HD
ENDBRANCH  14  20
BRANCH  15  22
ATOM     22  O   LIG A   1     -13.138   9.648 128.542  0.00  0.00    -0.387 OA
ATOM     23  H   LIG A   1     -12.519  10.400 128.594  0.00  0.00    +0.210 HD
ENDBRANCH  15  22
ENDBRANCH   6  12
BRANCH  10  24
ATOM     24  C   LIG A   1      -5.269   1.260 132.665  0.00  0.00    +0.021 A 
ATOM     25  C   LIG A   1      -5.512  -0.032 132.169  0.00  0.00    +0.060 A 
ATOM     26  C   LIG A   1      -4.527  -1.014 132.272  0.00  0.00    +0.159 A 
ATOM     27  C   LIG A   1      -3.303  -0.733 132.869  0.00  0.00    +0.158 A 
ATOM     28  C   LIG A   1      -3.043   0.525 133.383  0.00  0.00    +0.050 A 
ATOM     29  C   LIG A   1      -4.027   1.514 133.288  0.00  0.00    +0.015 A 
BRANCH  26  30
ATOM     30  O   LIG A   1      -4.716  -2.280 131.789  0.00  0.00    -0.503 OA
ATOM     31  H   LIG A   1      -4.135  -2.884 132.282  0.00  0.00    +0.292 HD
ENDBRANCH  26  30
BRANCH  27  32
ATOM     32  O   LIG A   1      -2.343  -1.698 132.957  0.00  0.00    -0.503 OA
ATOM     33  H   LIG A   1      -2.625  -2.257 133.707  0.00  0.00    +0.292 HD
ENDBRANCH  27  32
ENDBRANCH  10  24
BRANCH   2  34
ATOM     34  C   LIG A   1      -7.122   3.366 128.511  0.00  0.00    +0.187 C 
ATOM     35  O   LIG A   1      -6.774   4.357 127.515  0.00  0.00    -0.361 OA
ATOM     36  C   LIG A   1      -6.159   3.814 126.339  0.00  0.00    +0.175 C 
ATOM     37  C   LIG A   1      -7.090   2.811 125.640  0.00  0.00    +0.176 C 
ATOM     38  C   LIG A   1      -7.461   1.710 126.628  0.00  0.00    +0.177 C 
ATOM     39  C   LIG A   1      -8.052   2.279 127.920  0.00  0.00    +0.179 C 
BRANCH  39  40
ATOM     40  O   LIG A   1      -8.231   1.187 128.833  0.00  0.00    -0.386 OA
ATOM     41  H   LIG A   1      -8.407   1.605 129.702  0.00  0.00    +0.210 HD
ENDBRANCH  39  40
BRANCH  38  42
ATOM     42  O   LIG A   1      -8.408   0.809 126.032  0.00  0.00    -0.387 OA
ATOM     43  H   LIG A   1      -9.230   0.927 126.553  0.00  0.00    +0.210 HD
ENDBRANCH  38  42
BRANCH  37  44
ATOM     44  O   LIG A   1      -6.477   2.182 124.507  0.00  0.00    -0.387 OA
ATOM     45  H   LIG A   1      -5.614   2.629 124.365  0.00  0.00    +0.210 HD
ENDBRANCH  37  44
BRANCH  36  46
ATOM     46  C   LIG A   1      -5.804   4.985 125.409  0.00  0.00    +0.190 C 
BRANCH  46  47
ATOM     47  O   LIG A   1      -6.969   5.726 125.060  0.00  0.00    -0.392 OA
ATOM     48  H   LIG A   1      -7.166   6.312 125.815  0.00  0.00    +0.209 HD
ENDBRANCH  46  47
ENDBRANCH  36  46
ENDBRANCH   2  34
BRANCH   1  49
ATOM     49  O   LIG A   1      -9.055   5.492 128.189  0.00  0.00    -0.506 OA
ATOM     50  H   LIG A   1      -8.193   5.710 127.775  0.00  0.00    +0.292 HD
ENDBRANCH   1  49
BRANCH   5  51
ATOM     51  O   LIG A   1      -9.910   5.857 132.854  0.00  0.00    -0.505 OA
ATOM     52  H   LIG A   1      -9.317   6.443 133.380  0.00  0.00    +0.292 HD
ENDBRANCH   5  51
TORSDOF 15
ENDMDL
MODEL 4
REMARK VINA RESULT:      -8.0      4.512      7.409
REMARK  Name = NuBBE_1170
REMARK  15 active torsions:
REMARK  status: ('A' for Active; 'I' for Inactive)
REMARK    1  A    between atoms: O_1  and  C_2
REMARK    2  A    between atoms: C_3  and  C_35
REMARK    3  A    between atoms: C_6  and  O_21
REMARK    4  A    between atoms: C_7  and  C_8
REMARK    5  A    between atoms: C_10  and  O_12
REMARK    6  A    between atoms: C_13  and  O_15
REMARK    7  A    between atoms: C_16  and  O_20
REMARK    8  A    between atoms: C_25  and  C_27
REMARK    9  A    between atoms: C_29  and  O_30
REMARK   10  A    between atoms: C_31  and  O_34
REMARK   11  A    between atoms: C_38  and  C_40
REMARK   12  A    between atoms: C_40  and  O_41
REMARK   13  A    between atoms: C_42  and  O_50
REMARK   14  A    between atoms: C_44  and  O_49
REMARK   15  A    between atoms: C_46  and  O_48
REMARK                            x       y       z     vdW  Elec       q    Type
REMARK                         _______ _______ _______ _____ _____    ______ ____
ROOT
ATOM      1  C   LIG A   1      -6.759   3.069 128.617  0.00  0.00    +0.135 A 
ATOM      2  C   LIG A   1      -6.179   3.942 129.576  0.00  0.00    +0.069 A 
ATOM      3  C   LIG A   1      -4.888   4.439 129.311  0.00  0.00    +0.152 A 
ATOM      4  C   LIG A   1      -4.236   4.086 128.125  0.00  0.00    +0.106 A 
ATOM      5  C   LIG A   1      -4.858   3.241 127.178  0.00  0.00    +0.140 A 
ATOM      6  C   LIG A   1      -6.121   2.684 127.418  0.00  0.00    +0.068 A 
ATOM      7  C   LIG A   1      -2.885   4.610 127.899  0.00  0.00    +0.197 A 
ATOM      8  O   LIG A   1      -2.244   4.315 126.885  0.00  0.00    -0.287 OA
ATOM      9  C   LIG A   1      -2.312   5.488 128.916  0.00  0.00    +0.098 A 
ATOM     10  C   LIG A   1      -3.038   5.794 129.998  0.00  0.00    +0.139 A 
ATOM     11  O   LIG A   1      -4.307   5.279 130.241  0.00  0.00    -0.454 OA
ENDROOT
BRANCH   6  12
ATOM     12  C   LIG A   1      -6.744   1.690 126.421  0.00  0.00    +0.186 C 
ATOM     13  C   LIG A   1      -6.240   0.224 126.576  0.00  0.00    +0.179 C 
ATOM     14  C   LIG A   1      -6.906  -0.686 125.525  0.00  0.00    +0.176 C 
ATOM     15  C   LIG A   1      -6.715  -0.102 124.118  0.00  0.00    +0.171 C 
ATOM     16  C   LIG A   1      -7.199   1.348 124.095  0.00  0.00    +0.194 C 
ATOM     17  O   LIG A   1      -6.519   2.146 125.065  0.00  0.00    -0.366 OA
BRANCH  13  18
ATOM     18  O   LIG A   1      -4.816   0.109 126.385  0.00  0.00    -0.386 OA
ATOM     19  H   LIG A   1      -4.451   1.018 126.388  0.00  0.00    +0.210 HD
ENDBRANCH  13  18
BRANCH  14  20
ATOM     20  O   LIG A   1      -8.308  -0.844 125.793  0.00  0.00    -0.387 OA
ATOM     21  H   LIG A   1      -8.431  -1.784 126.035  0.00  0.00    +0.210 HD
ENDBRANCH  14  20
BRANCH  15  22
ATOM     22  O   LIG A   1      -7.446  -0.890 123.168  0.00  0.00    -0.387 OA
ATOM     23  H   LIG A   1      -7.297  -1.824 123.405  0.00  0.00    +0.210 HD
ENDBRANCH  15  22
ENDBRANCH   6  12
BRANCH  10  24
ATOM     24  C   LIG A   1      -2.497   6.689 131.050  0.00  0.00    +0.021 A 
ATOM     25  C   LIG A   1      -1.263   6.406 131.661  0.00  0.00    +0.060 A 
ATOM     26  C   LIG A   1      -0.748   7.271 132.626  0.00  0.00    +0.159 A 
ATOM     27  C   LIG A   1      -1.447   8.414 133.000  0.00  0.00    +0.158 A 
ATOM     28  C   LIG A   1      -2.672   8.709 132.429  0.00  0.00    +0.050 A 
ATOM     29  C   LIG A   1      -3.198   7.844 131.465  0.00  0.00    +0.015 A 
BRANCH  26  30
ATOM     30  O   LIG A   1       0.456   7.041 133.233  0.00  0.00    -0.503 OA
ATOM     31  H   LIG A   1       0.463   7.513 134.083  0.00  0.00    +0.292 HD
ENDBRANCH  26  30
BRANCH  27  32
ATOM     32  O   LIG A   1      -0.930   9.259 133.938  0.00  0.00    -0.503 OA
ATOM     33  H   LIG A   1      -0.515   8.669 134.597  0.00  0.00    +0.292 HD
ENDBRANCH  27  32
ENDBRANCH  10  24
BRANCH   2  34
ATOM     34  C   LIG A   1      -6.950   4.402 130.820  0.00  0.00    +0.187 C 
ATOM     35  O   LIG A   1      -7.776   3.299 131.263  0.00  0.00    -0.361 OA
ATOM     36  C   LIG A   1      -8.582   3.595 132.411  0.00  0.00    +0.175 C 
ATOM     37  C   LIG A   1      -9.541   4.763 132.129  0.00  0.00    +0.176 C 
ATOM     38  C   LIG A   1      -8.725   5.978 131.698  0.00  0.00    +0.177 C 
ATOM     39  C   LIG A   1      -7.805   5.657 130.517  0.00  0.00    +0.179 C 
BRANCH  39  40
ATOM     40  O   LIG A   1      -6.983   6.809 130.283  0.00  0.00    -0.386 OA
ATOM     41  H   LIG A   1      -6.093   6.559 130.608  0.00  0.00    +0.210 HD
ENDBRANCH  39  40
BRANCH  38  42
ATOM     42  O   LIG A   1      -9.601   7.057 131.334  0.00  0.00    -0.387 OA
ATOM     43  H   LIG A   1      -9.031   7.855 131.332  0.00  0.00    +0.210 HD
ENDBRANCH  38  42
BRANCH  37  44
ATOM     44  O   LIG A   1     -10.304   5.146 133.281  0.00  0.00    -0.387 OA
ATOM     45  H   LIG A   1      -9.717   5.033 134.061  0.00  0.00    +0.210 HD
ENDBRANCH  37  44
BRANCH  36  46
ATOM     46  C   LIG A   1      -9.355   2.321 132.787  0.00  0.00    +0.190 C 
BRANCH  46  47
ATOM     47  O   LIG A   1     -10.518   2.176 131.979  0.00  0.00    -0.392 OA
ATOM     48  H   LIG A   1     -10.451   2.842 131.268  0.00  0.00    +0.209 HD
ENDBRANCH  46  47
ENDBRANCH  36  46
ENDBRANCH   2  34
BRANCH   1  49
ATOM     49  O   LIG A   1      -8.026   2.586 128.843  0.00  0.00    -0.506 OA
ATOM     50  H   LIG A   1      -7.934   1.952 129.585  0.00  0.00    +0.292 HD
ENDBRANCH   1  49
BRANCH   5  51
ATOM     51  O   LIG A   1      -4.240   2.946 125.985  0.00  0.00    -0.505 OA
ATOM     52  H   LIG A   1      -3.768   3.749 125.664  0.00  0.00    +0.292 HD
ENDBRANCH   5  51
TORSDOF 15
ENDMDL
MODEL 5
REMARK VINA RESULT:      -7.6      2.892      8.224
REMARK  Name = NuBBE_1170
REMARK  15 active torsions:
REMARK  status: ('A' for Active; 'I' for Inactive)
REMARK    1  A    between atoms: O_1  and  C_2
REMARK    2  A    between atoms: C_3  and  C_35
REMARK    3  A    between atoms: C_6  and  O_21
REMARK    4  A    between atoms: C_7  and  C_8
REMARK    5  A    between atoms: C_10  and  O_12
REMARK    6  A    between atoms: C_13  and  O_15
REMARK    7  A    between atoms: C_16  and  O_20
REMARK    8  A    between atoms: C_25  and  C_27
REMARK    9  A    between atoms: C_29  and  O_30
REMARK   10  A    between atoms: C_31  and  O_34
REMARK   11  A    between atoms: C_38  and  C_40
REMARK   12  A    between atoms: C_40  and  O_41
REMARK   13  A    between atoms: C_42  and  O_50
REMARK   14  A    between atoms: C_44  and  O_49
REMARK   15  A    between atoms: C_46  and  O_48
REMARK                            x       y       z     vdW  Elec       q    Type
REMARK                         _______ _______ _______ _____ _____    ______ ____
ROOT
ATOM      1  C   LIG A   1      -8.240   1.701 128.401  0.00  0.00    +0.135 A 
ATOM      2  C   LIG A   1      -8.195   1.319 129.769  0.00  0.00    +0.069 A 
ATOM      3  C   LIG A   1      -7.783   0.006 130.068  0.00  0.00    +0.152 A 
ATOM      4  C   LIG A   1      -7.412  -0.860 129.034  0.00  0.00    +0.106 A 
ATOM      5  C   LIG A   1      -7.437  -0.435 127.686  0.00  0.00    +0.140 A 
ATOM      6  C   LIG A   1      -7.886   0.846 127.335  0.00  0.00    +0.068 A 
ATOM      7  C   LIG A   1      -7.009  -2.224 129.389  0.00  0.00    +0.197 A 
ATOM      8  O   LIG A   1      -6.696  -3.047 128.522  0.00  0.00    -0.287 OA
ATOM      9  C   LIG A   1      -6.994  -2.588 130.804  0.00  0.00    +0.098 A 
ATOM     10  C   LIG A   1      -7.330  -1.669 131.717  0.00  0.00    +0.139 A 
ATOM     11  O   LIG A   1      -7.746  -0.383 131.393  0.00  0.00    -0.454 OA
ENDROOT
BRANCH   6  12
ATOM     12  C   LIG A   1      -7.998   1.261 125.857  0.00  0.00    +0.186 C 
ATOM     13  C   LIG A   1      -6.782   2.078 125.325  0.00  0.00    +0.179 C 
ATOM     14  C   LIG A   1      -6.998   2.458 123.847  0.00  0.00    +0.176 C 
ATOM     15  C   LIG A   1      -8.351   3.161 123.670  0.00  0.00    +0.171 C 
ATOM     16  C   LIG A   1      -9.460   2.293 124.267  0.00  0.00    +0.194 C 
ATOM     17  O   LIG A   1      -9.221   2.006 125.646  0.00  0.00    -0.366 OA
BRANCH  13  18
ATOM     18  O   LIG A   1      -6.588   3.309 126.049  0.00  0.00    -0.386 OA
ATOM     19  H   LIG A   1      -7.064   3.220 126.900  0.00  0.00    +0.210 HD
ENDBRANCH  13  18
BRANCH  14  20
ATOM     20  O   LIG A   1      -6.945   1.299 123.002  0.00  0.00    -0.387 OA
ATOM     21  H   LIG A   1      -7.806   0.847 123.112  0.00  0.00    +0.210 HD
ENDBRANCH  14  20
BRANCH  15  22
ATOM     22  O   LIG A   1      -8.593   3.394 122.276  0.00  0.00    -0.387 OA
ATOM     23  H   LIG A   1      -7.886   3.989 121.965  0.00  0.00    +0.210 HD
ENDBRANCH  15  22
ENDBRANCH   6  12
BRANCH  10  24
ATOM     24  C   LIG A   1      -7.321  -1.995 133.164  0.00  0.00    +0.021 A 
ATOM     25  C   LIG A   1      -8.254  -2.901 133.697  0.00  0.00    +0.060 A 
ATOM     26  C   LIG A   1      -8.215  -3.225 135.052  0.00  0.00    +0.159 A 
ATOM     27  C   LIG A   1      -7.265  -2.655 135.892  0.00  0.00    +0.158 A 
ATOM     28  C   LIG A   1      -6.345  -1.746 135.400  0.00  0.00    +0.050 A 
ATOM     29  C   LIG A   1      -6.380  -1.412 134.043  0.00  0.00    +0.015 A 
BRANCH  26  30
ATOM     30  O   LIG A   1      -9.094  -4.114 135.608  0.00  0.00    -0.503 OA
ATOM     31  H   LIG A   1      -9.997  -3.833 135.381  0.00  0.00    +0.292 HD
ENDBRANCH  26  30
BRANCH  27  32
ATOM     32  O   LIG A   1      -7.230  -2.986 137.215  0.00  0.00    -0.503 OA
ATOM     33  H   LIG A   1      -7.112  -2.134 137.678  0.00  0.00    +0.292 HD
ENDBRANCH  27  32
ENDBRANCH  10  24
BRANCH   2  34
ATOM     34  C   LIG A   1      -8.503   2.314 130.896  0.00  0.00    +0.187 C 
ATOM     35  O   LIG A   1      -9.568   3.183 130.442  0.00  0.00    -0.361 OA
ATOM     36  C   LIG A   1      -9.945   4.191 131.389  0.00  0.00    +0.175 C 
ATOM     37  C   LIG A   1      -8.758   5.107 131.726  0.00  0.00    +0.176 C 
ATOM     38  C   LIG A   1      -7.610   4.253 132.254  0.00  0.00    +0.177 C 
ATOM     39  C   LIG A   1      -7.244   3.127 131.285  0.00  0.00    +0.179 C 
BRANCH  39  40
ATOM     40  O   LIG A   1      -6.264   2.301 131.931  0.00  0.00    -0.386 OA
ATOM     41  H   LIG A   1      -6.740   1.874 132.674  0.00  0.00    +0.210 HD
ENDBRANCH  39  40
BRANCH  38  42
ATOM     42  O   LIG A   1      -6.452   5.072 132.487  0.00  0.00    -0.387 OA
ATOM     43  H   LIG A   1      -6.563   5.412 133.400  0.00  0.00    +0.210 HD
ENDBRANCH  38  42
BRANCH  37  44
ATOM     44  O   LIG A   1      -9.073   6.076 132.735  0.00  0.00    -0.387 OA
ATOM     45  H   LIG A   1      -8.371   6.764 132.697  0.00  0.00    +0.210 HD
ENDBRANCH  37  44
BRANCH  36  46
ATOM     46  C   LIG A   1     -11.111   4.991 130.788  0.00  0.00    +0.190 C 
BRANCH  46  47
ATOM     47  O   LIG A   1     -11.797   5.725 131.797  0.00  0.00    -0.392 OA
ATOM     48  H   LIG A   1     -12.272   5.072 132.346  0.00  0.00    +0.209 HD
ENDBRANCH  46  47
ENDBRANCH  36  46
ENDBRANCH   2  34
BRANCH   1  49
ATOM     49  O   LIG A   1      -8.621   2.983 128.085  0.00  0.00    -0.506 OA
ATOM     50  H   LIG A   1      -9.012   2.925 127.187  0.00  0.00    +0.292 HD
ENDBRANCH   1  49
BRANCH   5  51
ATOM     51  O   LIG A   1      -7.014  -1.268 126.678  0.00  0.00    -0.505 OA
ATOM     52  H   LIG A   1      -6.048  -1.430 126.784  0.00  0.00    +0.292 HD
ENDBRANCH   5  51
TORSDOF 15
ENDMDL
MODEL 6
REMARK VINA RESULT:      -7.5      3.853      7.830
REMARK  Name = NuBBE_1170
REMARK  15 active torsions:
REMARK  status: ('A' for Active; 'I' for Inactive)
REMARK    1  A    between atoms: O_1  and  C_2
REMARK    2  A    between atoms: C_3  and  C_35
REMARK    3  A    between atoms: C_6  and  O_21
REMARK    4  A    between atoms: C_7  and  C_8
REMARK    5  A    between atoms: C_10  and  O_12
REMARK    6  A    between atoms: C_13  and  O_15
REMARK    7  A    between atoms: C_16  and  O_20
REMARK    8  A    between atoms: C_25  and  C_27
REMARK    9  A    between atoms: C_29  and  O_30
REMARK   10  A    between atoms: C_31  and  O_34
REMARK   11  A    between atoms: C_38  and  C_40
REMARK   12  A    between atoms: C_40  and  O_41
REMARK   13  A    between atoms: C_42  and  O_50
REMARK   14  A    between atoms: C_44  and  O_49
REMARK   15  A    between atoms: C_46  and  O_48
REMARK                            x       y       z     vdW  Elec       q    Type
REMARK                         _______ _______ _______ _____ _____    ______ ____
ROOT
ATOM      1  C   LIG A   1      -6.980   0.951 127.819  0.00  0.00    +0.135 A 
ATOM      2  C   LIG A   1      -6.044   1.500 128.736  0.00  0.00    +0.069 A 
ATOM      3  C   LIG A   1      -5.513   2.772 128.445  0.00  0.00    +0.152 A 
ATOM      4  C   LIG A   1      -5.934   3.456 127.300  0.00  0.00    +0.106 A 
ATOM      5  C   LIG A   1      -6.894   2.893 126.428  0.00  0.00    +0.140 A 
ATOM      6  C   LIG A   1      -7.414   1.611 126.649  0.00  0.00    +0.068 A 
ATOM      7  C   LIG A   1      -5.342   4.770 127.025  0.00  0.00    +0.197 A 
ATOM      8  O   LIG A   1      -5.649   5.414 126.017  0.00  0.00    -0.287 OA
ATOM      9  C   LIG A   1      -4.367   5.294 127.978  0.00  0.00    +0.098 A 
ATOM     10  C   LIG A   1      -4.064   4.573 129.064  0.00  0.00    +0.139 A 
ATOM     11  O   LIG A   1      -4.592   3.313 129.320  0.00  0.00    -0.454 OA
ENDROOT
BRANCH   6  12
ATOM     12  C   LIG A   1      -8.385   0.973 125.640  0.00  0.00    +0.186 C 
ATOM     13  C   LIG A   1      -7.691   0.301 124.417  0.00  0.00    +0.179 C 
ATOM     14  C   LIG A   1      -8.746  -0.290 123.460  0.00  0.00    +0.176 C 
ATOM     15  C   LIG A   1      -9.783   0.778 123.085  0.00  0.00    +0.171 C 
ATOM     16  C   LIG A   1     -10.362   1.398 124.358  0.00  0.00    +0.194 C 
ATOM     17  O   LIG A   1      -9.340   1.960 125.182  0.00  0.00    -0.366 OA
BRANCH  13  18
ATOM     18  O   LIG A   1      -6.908   1.236 123.648  0.00  0.00    -0.386 OA
ATOM     19  H   LIG A   1      -6.004   0.865 123.579  0.00  0.00    +0.210 HD
ENDBRANCH  13  18
BRANCH  14  20
ATOM     20  O   LIG A   1      -9.409  -1.415 124.055  0.00  0.00    -0.387 OA
ATOM     21  H   LIG A   1      -8.772  -1.796 124.693  0.00  0.00    +0.210 HD
ENDBRANCH  14  20
BRANCH  15  22
ATOM     22  O   LIG A   1     -10.824   0.182 122.300  0.00  0.00    -0.387 OA
ATOM     23  H   LIG A   1     -10.830   0.648 121.442  0.00  0.00    +0.210 HD
ENDBRANCH  15  22
ENDBRANCH   6  12
BRANCH  10  24
ATOM     24  C   LIG A   1      -3.084   5.073 130.060  0.00  0.00    +0.021 A 
ATOM     25  C   LIG A   1      -2.968   4.455 131.318  0.00  0.00    +0.060 A 
ATOM     26  C   LIG A   1      -2.022   4.913 132.234  0.00  0.00    +0.159 A 
ATOM     27  C   LIG A   1      -1.191   5.983 131.922  0.00  0.00    +0.158 A 
ATOM     28  C   LIG A   1      -1.295   6.623 130.700  0.00  0.00    +0.050 A 
ATOM     29  C   LIG A   1      -2.245   6.174 129.777  0.00  0.00    +0.015 A 
BRANCH  26  30
ATOM     30  O   LIG A   1      -1.865   4.330 133.462  0.00  0.00    -0.503 OA
ATOM     31  H   LIG A   1      -1.298   3.547 133.357  0.00  0.00    +0.292 HD
ENDBRANCH  26  30
BRANCH  27  32
ATOM     32  O   LIG A   1      -0.262   6.417 132.822  0.00  0.00    -0.503 OA
ATOM     33  H   LIG A   1      -0.765   6.550 133.649  0.00  0.00    +0.292 HD
ENDBRANCH  27  32
ENDBRANCH  10  24
BRANCH   2  34
ATOM     34  C   LIG A   1      -5.674   0.782 130.040  0.00  0.00    +0.187 C 
ATOM     35  O   LIG A   1      -5.596  -0.636 129.760  0.00  0.00    -0.361 OA
ATOM     36  C   LIG A   1      -5.284  -1.443 130.903  0.00  0.00    +0.175 C 
ATOM     37  C   LIG A   1      -6.345  -1.280 132.003  0.00  0.00    +0.176 C 
ATOM     38  C   LIG A   1      -6.445   0.195 132.377  0.00  0.00    +0.177 C 
ATOM     39  C   LIG A   1      -6.707   1.078 131.155  0.00  0.00    +0.179 C 
BRANCH  39  40
ATOM     40  O   LIG A   1      -6.639   2.445 131.585  0.00  0.00    -0.386 OA
ATOM     41  H   LIG A   1      -7.508   2.626 132.000  0.00  0.00    +0.210 HD
ENDBRANCH  39  40
BRANCH  38  42
ATOM     42  O   LIG A   1      -7.498   0.391 133.336  0.00  0.00    -0.387 OA
ATOM     43  H   LIG A   1      -8.241  -0.159 133.009  0.00  0.00    +0.210 HD
ENDBRANCH  38  42
BRANCH  37  44
ATOM     44  O   LIG A   1      -6.023  -2.005 133.197  0.00  0.00    -0.387 OA
ATOM     45  H   LIG A   1      -5.042  -2.040 133.253  0.00  0.00    +0.210 HD
ENDBRANCH  37  44
BRANCH  36  46
ATOM     46  C   LIG A   1      -5.186  -2.904 130.437  0.00  0.00    +0.190 C 
BRANCH  46  47
ATOM     47  O   LIG A   1      -5.940  -3.108 129.247  0.00  0.00    -0.392 OA
ATOM     48  H   LIG A   1      -6.316  -4.007 129.303  0.00  0.00    +0.209 HD
ENDBRANCH  46  47
ENDBRANCH  36  46
ENDBRANCH   2  34
BRANCH   1  49
ATOM     49  O   LIG A   1      -7.526  -0.281 128.091  0.00  0.00    -0.506 OA
ATOM     50  H   LIG A   1      -8.462  -0.105 128.326  0.00  0.00    +0.292 HD
ENDBRANCH   1  49
BRANCH   5  51
ATOM     51  O   LIG A   1      -7.350   3.594 125.337  0.00  0.00    -0.505 OA
ATOM     52  H   LIG A   1      -7.633   4.491 125.631  0.00  0.00    +0.292 HD
ENDBRANCH   5  51
TORSDOF 15
ENDMDL
MODEL 7
REMARK VINA RESULT:      -7.4      3.025      8.701
REMARK  Name = NuBBE_1170
REMARK  15 active torsions:
REMARK  status: ('A' for Active; 'I' for Inactive)
REMARK    1  A    between atoms: O_1  and  C_2
REMARK    2  A    between atoms: C_3  and  C_35
REMARK    3  A    between atoms: C_6  and  O_21
REMARK    4  A    between atoms: C_7  and  C_8
REMARK    5  A    between atoms: C_10  and  O_12
REMARK    6  A    between atoms: C_13  and  O_15
REMARK    7  A    between atoms: C_16  and  O_20
REMARK    8  A    between atoms: C_25  and  C_27
REMARK    9  A    between atoms: C_29  and  O_30
REMARK   10  A    between atoms: C_31  and  O_34
REMARK   11  A    between atoms: C_38  and  C_40
REMARK   12  A    between atoms: C_40  and  O_41
REMARK   13  A    between atoms: C_42  and  O_50
REMARK   14  A    between atoms: C_44  and  O_49
REMARK   15  A    between atoms: C_46  and  O_48
REMARK                            x       y       z     vdW  Elec       q    Type
REMARK                         _______ _______ _______ _____ _____    ______ ____
ROOT
ATOM      1  C   LIG A   1      -8.066   5.014 130.239  0.00  0.00    +0.135 A 
ATOM      2  C   LIG A   1      -6.994   4.137 130.553  0.00  0.00    +0.069 A 
ATOM      3  C   LIG A   1      -7.318   2.866 131.067  0.00  0.00    +0.152 A 
ATOM      4  C   LIG A   1      -8.659   2.501 131.226  0.00  0.00    +0.106 A 
ATOM      5  C   LIG A   1      -9.701   3.388 130.871  0.00  0.00    +0.140 A 
ATOM      6  C   LIG A   1      -9.428   4.680 130.401  0.00  0.00    +0.068 A 
ATOM      7  C   LIG A   1      -8.952   1.176 131.782  0.00  0.00    +0.197 A 
ATOM      8  O   LIG A   1     -10.113   0.802 131.973  0.00  0.00    -0.287 OA
ATOM      9  C   LIG A   1      -7.823   0.309 132.114  0.00  0.00    +0.098 A 
ATOM     10  C   LIG A   1      -6.578   0.742 131.885  0.00  0.00    +0.139 A 
ATOM     11  O   LIG A   1      -6.285   2.007 131.389  0.00  0.00    -0.454 OA
ENDROOT
BRANCH   6  12
ATOM     12  C   LIG A   1     -10.572   5.667 130.109  0.00  0.00    +0.186 C 
ATOM     13  C   LIG A   1     -10.871   5.874 128.594  0.00  0.00    +0.179 C 
ATOM     14  C   LIG A   1     -12.017   6.889 128.408  0.00  0.00    +0.176 C 
ATOM     15  C   LIG A   1     -11.708   8.185 129.170  0.00  0.00    +0.171 C 
ATOM     16  C   LIG A   1     -11.386   7.858 130.628  0.00  0.00    +0.194 C 
ATOM     17  O   LIG A   1     -10.294   6.943 130.734  0.00  0.00    -0.366 OA
BRANCH  13  18
ATOM     18  O   LIG A   1      -9.735   6.392 127.875  0.00  0.00    -0.386 OA
ATOM     19  H   LIG A   1      -9.818   6.088 126.948  0.00  0.00    +0.210 HD
ENDBRANCH  13  18
BRANCH  14  20
ATOM     20  O   LIG A   1     -13.265   6.348 128.866  0.00  0.00    -0.387 OA
ATOM     21  H   LIG A   1     -13.060   5.859 129.688  0.00  0.00    +0.210 HD
ENDBRANCH  14  20
BRANCH  15  22
ATOM     22  O   LIG A   1     -12.835   9.069 129.091  0.00  0.00    -0.387 OA
ATOM     23  H   LIG A   1     -12.777   9.522 128.229  0.00  0.00    +0.210 HD
ENDBRANCH  15  22
ENDBRANCH   6  12
BRANCH  10  24
ATOM     24  C   LIG A   1      -5.405  -0.111 132.200  0.00  0.00    +0.021 A 
ATOM     25  C   LIG A   1      -4.292   0.427 132.868  0.00  0.00    +0.060 A 
ATOM     26  C   LIG A   1      -3.209  -0.392 133.187  0.00  0.00    +0.159 A 
ATOM     27  C   LIG A   1      -3.212  -1.740 132.846  0.00  0.00    +0.158 A 
ATOM     28  C   LIG A   1      -4.287  -2.293 132.173  0.00  0.00    +0.050 A 
ATOM     29  C   LIG A   1      -5.374  -1.478 131.843  0.00  0.00    +0.015 A 
BRANCH  26  30
ATOM     30  O   LIG A   1      -2.112   0.088 133.851  0.00  0.00    -0.503 OA
ATOM     31  H   LIG A   1      -1.798   0.882 133.386  0.00  0.00    +0.292 HD
ENDBRANCH  26  30
BRANCH  27  32
ATOM     32  O   LIG A   1      -2.152  -2.534 133.172  0.00  0.00    -0.503 OA
ATOM     33  H   LIG A   1      -1.495  -2.367 132.468  0.00  0.00    +0.292 HD
ENDBRANCH  27  32
ENDBRANCH  10  24
BRANCH   2  34
ATOM     34  C   LIG A   1      -5.533   4.514 130.274  0.00  0.00    +0.187 C 
ATOM     35  O   LIG A   1      -5.397   5.941 130.474  0.00  0.00    -0.361 OA
ATOM     36  C   LIG A   1      -4.079   6.445 130.219  0.00  0.00    +0.175 C 
ATOM     37  C   LIG A   1      -3.653   6.173 128.768  0.00  0.00    +0.176 C 
ATOM     38  C   LIG A   1      -3.733   4.673 128.503  0.00  0.00    +0.177 C 
ATOM     39  C   LIG A   1      -5.114   4.106 128.840  0.00  0.00    +0.179 C 
BRANCH  39  40
ATOM     40  O   LIG A   1      -5.043   2.680 128.699  0.00  0.00    -0.386 OA
ATOM     41  H   LIG A   1      -5.198   2.509 127.746  0.00  0.00    +0.210 HD
ENDBRANCH  39  40
BRANCH  38  42
ATOM     42  O   LIG A   1      -3.433   4.398 127.125  0.00  0.00    -0.387 OA
ATOM     43  H   LIG A   1      -3.621   3.442 127.012  0.00  0.00    +0.210 HD
ENDBRANCH  38  42
BRANCH  37  44
ATOM     44  O   LIG A   1      -2.308   6.586 128.497  0.00  0.00    -0.387 OA
ATOM     45  H   LIG A   1      -2.090   7.290 129.147  0.00  0.00    +0.210 HD
ENDBRANCH  37  44
BRANCH  36  46
ATOM     46  C   LIG A   1      -4.083   7.951 130.524  0.00  0.00    +0.190 C 
BRANCH  46  47
ATOM     47  O   LIG A   1      -4.332   8.707 129.343  0.00  0.00    -0.392 OA
ATOM     48  H   LIG A   1      -4.391   8.068 128.607  0.00  0.00    +0.209 HD
ENDBRANCH  46  47
ENDBRANCH  36  46
ENDBRANCH   2  34
BRANCH   1  49
ATOM     49  O   LIG A   1      -7.776   6.252 129.719  0.00  0.00    -0.506 OA
ATOM     50  H   LIG A   1      -7.048   6.604 130.273  0.00  0.00    +0.292 HD
ENDBRANCH   1  49
BRANCH   5  51
ATOM     51  O   LIG A   1     -11.017   3.003 130.970  0.00  0.00    -0.505 OA
ATOM     52  H   LIG A   1     -11.139   2.498 131.807  0.00  0.00    +0.292 HD
ENDBRANCH   5  51
TORSDOF 15
ENDMDL
MODEL 8
REMARK VINA RESULT:      -7.4      3.852      7.941
REMARK  Name = NuBBE_1170
REMARK  15 active torsions:
REMARK  status: ('A' for Active; 'I' for Inactive)
REMARK    1  A    between atoms: O_1  and  C_2
REMARK    2  A    between atoms: C_3  and  C_35
REMARK    3  A    between atoms: C_6  and  O_21
REMARK    4  A    between atoms: C_7  and  C_8
REMARK    5  A    between atoms: C_10  and  O_12
REMARK    6  A    between atoms: C_13  and  O_15
REMARK    7  A    between atoms: C_16  and  O_20
REMARK    8  A    between atoms: C_25  and  C_27
REMARK    9  A    between atoms: C_29  and  O_30
REMARK   10  A    between atoms: C_31  and  O_34
REMARK   11  A    between atoms: C_38  and  C_40
REMARK   12  A    between atoms: C_40  and  O_41
REMARK   13  A    between atoms: C_42  and  O_50
REMARK   14  A    between atoms: C_44  and  O_49
REMARK   15  A    between atoms: C_46  and  O_48
REMARK                            x       y       z     vdW  Elec       q    Type
REMARK                         _______ _______ _______ _____ _____    ______ ____
ROOT
ATOM      1  C   LIG A   1      -7.307   3.095 127.771  0.00  0.00    +0.135 A 
ATOM      2  C   LIG A   1      -6.670   3.585 128.943  0.00  0.00    +0.069 A 
ATOM      3  C   LIG A   1      -5.304   3.916 128.854  0.00  0.00    +0.152 A 
ATOM      4  C   LIG A   1      -4.633   3.782 127.634  0.00  0.00    +0.106 A 
ATOM      5  C   LIG A   1      -5.308   3.323 126.480  0.00  0.00    +0.140 A 
ATOM      6  C   LIG A   1      -6.654   2.935 126.530  0.00  0.00    +0.068 A 
ATOM      7  C   LIG A   1      -3.206   4.119 127.591  0.00  0.00    +0.197 A 
ATOM      8  O   LIG A   1      -2.549   3.997 126.553  0.00  0.00    -0.287 OA
ATOM      9  C   LIG A   1      -2.580   4.600 128.820  0.00  0.00    +0.098 A 
ATOM     10  C   LIG A   1      -3.324   4.729 129.925  0.00  0.00    +0.139 A 
ATOM     11  O   LIG A   1      -4.668   4.382 129.989  0.00  0.00    -0.454 OA
ENDROOT
BRANCH   6  12
ATOM     12  C   LIG A   1      -7.349   2.348 125.289  0.00  0.00    +0.186 C 
ATOM     13  C   LIG A   1      -8.131   3.392 124.436  0.00  0.00    +0.179 C 
ATOM     14  C   LIG A   1      -8.802   2.704 123.230  0.00  0.00    +0.176 C 
ATOM     15  C   LIG A   1      -9.651   1.515 123.701  0.00  0.00    +0.171 C 
ATOM     16  C   LIG A   1      -8.797   0.585 124.563  0.00  0.00    +0.194 C 
ATOM     17  O   LIG A   1      -8.234   1.272 125.682  0.00  0.00    -0.366 OA
BRANCH  13  18
ATOM     18  O   LIG A   1      -9.180   4.038 125.184  0.00  0.00    -0.386 OA
ATOM     19  H   LIG A   1      -9.535   4.756 124.620  0.00  0.00    +0.210 HD
ENDBRANCH  13  18
BRANCH  14  20
ATOM     20  O   LIG A   1      -7.823   2.250 122.284  0.00  0.00    -0.387 OA
ATOM     21  H   LIG A   1      -7.019   2.049 122.805  0.00  0.00    +0.210 HD
ENDBRANCH  14  20
BRANCH  15  22
ATOM     22  O   LIG A   1     -10.165   0.811 122.562  0.00  0.00    -0.387 OA
ATOM     23  H   LIG A   1     -10.032  -0.140 122.737  0.00  0.00    +0.210 HD
ENDBRANCH  15  22
ENDBRANCH   6  12
BRANCH  10  24
ATOM     24  C   LIG A   1      -2.727   5.221 131.192  0.00  0.00    +0.021 A 
ATOM     25  C   LIG A   1      -3.133   4.685 132.426  0.00  0.00    +0.060 A 
ATOM     26  C   LIG A   1      -2.543   5.132 133.607  0.00  0.00    +0.159 A 
ATOM     27  C   LIG A   1      -1.557   6.112 133.582  0.00  0.00    +0.158 A 
ATOM     28  C   LIG A   1      -1.150   6.671 132.384  0.00  0.00    +0.050 A 
ATOM     29  C   LIG A   1      -1.741   6.233 131.195  0.00  0.00    +0.015 A 
BRANCH  26  30
ATOM     30  O   LIG A   1      -2.896   4.625 134.828  0.00  0.00    -0.503 OA
ATOM     31  H   LIG A   1      -2.870   3.655 134.774  0.00  0.00    +0.292 HD
ENDBRANCH  26  30
BRANCH  27  32
ATOM     32  O   LIG A   1      -0.979   6.536 134.743  0.00  0.00    -0.503 OA
ATOM     33  H   LIG A   1      -0.072   6.794 134.486  0.00  0.00    +0.292 HD
ENDBRANCH  27  32
ENDBRANCH  10  24
BRANCH   2  34
ATOM     34  C   LIG A   1      -7.447   3.826 130.244  0.00  0.00    +0.187 C 
ATOM     35  O   LIG A   1      -8.083   5.123 130.147  0.00  0.00    -0.361 OA
ATOM     36  C   LIG A   1      -8.828   5.499 131.313  0.00  0.00    +0.175 C 
ATOM     37  C   LIG A   1      -7.923   5.556 132.554  0.00  0.00    +0.176 C 
ATOM     38  C   LIG A   1      -7.253   4.198 132.739  0.00  0.00    +0.177 C 
ATOM     39  C   LIG A   1      -6.513   3.750 131.477  0.00  0.00    +0.179 C 
BRANCH  39  40
ATOM     40  O   LIG A   1      -6.045   2.412 131.700  0.00  0.00    -0.386 OA
ATOM     41  H   LIG A   1      -6.831   1.915 132.012  0.00  0.00    +0.210 HD
ENDBRANCH  39  40
BRANCH  38  42
ATOM     42  O   LIG A   1      -6.326   4.250 133.836  0.00  0.00    -0.387 OA
ATOM     43  H   LIG A   1      -6.871   4.489 134.615  0.00  0.00    +0.210 HD
ENDBRANCH  38  42
BRANCH  37  44
ATOM     44  O   LIG A   1      -8.647   5.844 133.757  0.00  0.00    -0.387 OA
ATOM     45  H   LIG A   1      -8.002   5.795 134.497  0.00  0.00    +0.210 HD
ENDBRANCH  37  44
BRANCH  36  46
ATOM     46  C   LIG A   1      -9.480   6.863 131.038  0.00  0.00    +0.190 C 
BRANCH  46  47
ATOM     47  O   LIG A   1      -9.305   7.243 129.677  0.00  0.00    -0.392 OA
ATOM     48  H   LIG A   1      -9.188   8.212 129.669  0.00  0.00    +0.209 HD
ENDBRANCH  46  47
ENDBRANCH  36  46
ENDBRANCH   2  34
BRANCH   1  49
ATOM     49  O   LIG A   1      -8.645   2.783 127.828  0.00  0.00    -0.506 OA
ATOM     50  H   LIG A   1      -8.948   3.095 128.707  0.00  0.00    +0.292 HD
ENDBRANCH   1  49
BRANCH   5  51
ATOM     51  O   LIG A   1      -4.662   3.250 125.269  0.00  0.00    -0.505 OA
ATOM     52  H   LIG A   1      -3.762   3.642 125.365  0.00  0.00    +0.292 HD
ENDBRANCH   5  51
TORSDOF 15
ENDMDL
MODEL 9
REMARK VINA RESULT:      -7.4      3.682      8.096
REMARK  Name = NuBBE_1170
REMARK  15 active torsions:
REMARK  status: ('A' for Active; 'I' for Inactive)
REMARK    1  A    between atoms: O_1  and  C_2
REMARK    2  A    between atoms: C_3  and  C_35
REMARK    3  A    between atoms: C_6  and  O_21
REMARK    4  A    between atoms: C_7  and  C_8
REMARK    5  A    between atoms: C_10  and  O_12
REMARK    6  A    between atoms: C_13  and  O_15
REMARK    7  A    between atoms: C_16  and  O_20
REMARK    8  A    between atoms: C_25  and  C_27
REMARK    9  A    between atoms: C_29  and  O_30
REMARK   10  A    between atoms: C_31  and  O_34
REMARK   11  A    between atoms: C_38  and  C_40
REMARK   12  A    between atoms: C_40  and  O_41
REMARK   13  A    between atoms: C_42  and  O_50
REMARK   14  A    between atoms: C_44  and  O_49
REMARK   15  A    between atoms: C_46  and  O_48
REMARK                            x       y       z     vdW  Elec       q    Type
REMARK                         _______ _______ _______ _____ _____    ______ ____
ROOT
ATOM      1  C   LIG A   1      -7.530   2.658 127.726  0.00  0.00    +0.135 A 
ATOM      2  C   LIG A   1      -6.861   3.142 128.882  0.00  0.00    +0.069 A 
ATOM      3  C   LIG A   1      -5.519   3.546 128.740  0.00  0.00    +0.152 A 
ATOM      4  C   LIG A   1      -4.903   3.484 127.486  0.00  0.00    +0.106 A 
ATOM      5  C   LIG A   1      -5.610   3.028 126.350  0.00  0.00    +0.140 A 
ATOM      6  C   LIG A   1      -6.932   2.571 126.451  0.00  0.00    +0.068 A 
ATOM      7  C   LIG A   1      -3.499   3.895 127.387  0.00  0.00    +0.197 A 
ATOM      8  O   LIG A   1      -2.888   3.840 126.315  0.00  0.00    -0.287 OA
ATOM      9  C   LIG A   1      -2.837   4.368 128.600  0.00  0.00    +0.098 A 
ATOM     10  C   LIG A   1      -3.531   4.424 129.743  0.00  0.00    +0.139 A 
ATOM     11  O   LIG A   1      -4.853   4.007 129.858  0.00  0.00    -0.454 OA
ENDROOT
BRANCH   6  12
ATOM     12  C   LIG A   1      -7.656   1.988 125.224  0.00  0.00    +0.186 C 
ATOM     13  C   LIG A   1      -8.368   3.051 124.334  0.00  0.00    +0.179 C 
ATOM     14  C   LIG A   1      -9.076   2.368 123.147  0.00  0.00    +0.176 C 
ATOM     15  C   LIG A   1      -9.999   1.249 123.649  0.00  0.00    +0.171 C 
ATOM     16  C   LIG A   1      -9.208   0.296 124.546  0.00  0.00    +0.194 C 
ATOM     17  O   LIG A   1      -8.608   0.982 125.645  0.00  0.00    -0.366 OA
BRANCH  13  18
ATOM     18  O   LIG A   1      -9.378   3.784 125.055  0.00  0.00    -0.386 OA
ATOM     19  H   LIG A   1      -8.920   4.500 125.542  0.00  0.00    +0.210 HD
ENDBRANCH  13  18
BRANCH  14  20
ATOM     20  O   LIG A   1      -8.123   1.824 122.221  0.00  0.00    -0.387 OA
ATOM     21  H   LIG A   1      -8.224   0.852 122.271  0.00  0.00    +0.210 HD
ENDBRANCH  14  20
BRANCH  15  22
ATOM     22  O   LIG A   1     -10.552   0.543 122.530  0.00  0.00    -0.387 OA
ATOM     23  H   LIG A   1     -11.021  -0.233 122.892  0.00  0.00    +0.210 HD
ENDBRANCH  15  22
ENDBRANCH   6  12
BRANCH  10  24
ATOM     24  C   LIG A   1      -2.899   4.906 130.996  0.00  0.00    +0.021 A 
ATOM     25  C   LIG A   1      -3.286   4.376 132.239  0.00  0.00    +0.060 A 
ATOM     26  C   LIG A   1      -2.661   4.813 133.407  0.00  0.00    +0.159 A 
ATOM     27  C   LIG A   1      -1.660   5.776 133.359  0.00  0.00    +0.158 A 
ATOM     28  C   LIG A   1      -1.271   6.329 132.152  0.00  0.00    +0.050 A 
ATOM     29  C   LIG A   1      -1.896   5.901 130.977  0.00  0.00    +0.015 A 
BRANCH  26  30
ATOM     30  O   LIG A   1      -2.996   4.312 134.635  0.00  0.00    -0.503 OA
ATOM     31  H   LIG A   1      -2.263   4.493 135.248  0.00  0.00    +0.292 HD
ENDBRANCH  26  30
BRANCH  27  32
ATOM     32  O   LIG A   1      -1.049   6.190 134.507  0.00  0.00    -0.503 OA
ATOM     33  H   LIG A   1      -0.100   6.014 134.357  0.00  0.00    +0.292 HD
ENDBRANCH  27  32
ENDBRANCH  10  24
BRANCH   2  34
ATOM     34  C   LIG A   1      -7.584   3.302 130.226  0.00  0.00    +0.187 C 
ATOM     35  O   LIG A   1      -7.055   4.482 130.877  0.00  0.00    -0.361 OA
ATOM     36  C   LIG A   1      -7.622   4.743 132.168  0.00  0.00    +0.175 C 
ATOM     37  C   LIG A   1      -7.372   3.572 133.130  0.00  0.00    +0.176 C 
ATOM     38  C   LIG A   1      -7.948   2.299 132.520  0.00  0.00    +0.177 C 
ATOM     39  C   LIG A   1      -7.406   2.045 131.111  0.00  0.00    +0.179 C 
BRANCH  39  40
ATOM     40  O   LIG A   1      -8.111   0.918 130.572  0.00  0.00    -0.386 OA
ATOM     41  H   LIG A   1      -8.941   0.863 131.090  0.00  0.00    +0.210 HD
ENDBRANCH  39  40
BRANCH  38  42
ATOM     42  O   LIG A   1      -7.643   1.169 133.354  0.00  0.00    -0.387 OA
ATOM     43  H   LIG A   1      -6.851   1.439 133.865  0.00  0.00    +0.210 HD
ENDBRANCH  38  42
BRANCH  37  44
ATOM     44  O   LIG A   1      -7.998   3.758 134.406  0.00  0.00    -0.387 OA
ATOM     45  H   LIG A   1      -8.702   4.433 134.282  0.00  0.00    +0.210 HD
ENDBRANCH  37  44
BRANCH  36  46
ATOM     46  C   LIG A   1      -7.002   6.044 132.701  0.00  0.00    +0.190 C 
BRANCH  46  47
ATOM     47  O   LIG A   1      -6.100   5.775 133.769  0.00  0.00    -0.392 OA
ATOM     48  H   LIG A   1      -5.326   5.326 133.377  0.00  0.00    +0.209 HD
ENDBRANCH  46  47
ENDBRANCH  36  46
ENDBRANCH   2  34
BRANCH   1  49
ATOM     49  O   LIG A   1      -8.846   2.276 127.835  0.00  0.00    -0.506 OA
ATOM     50  H   LIG A   1      -9.368   3.075 127.612  0.00  0.00    +0.292 HD
ENDBRANCH   1  49
BRANCH   5  51
ATOM     51  O   LIG A   1      -5.021   3.027 125.108  0.00  0.00    -0.505 OA
ATOM     52  H   LIG A   1      -4.051   2.890 125.216  0.00  0.00    +0.292 HD
ENDBRANCH   5  51
TORSDOF 15
ENDMDL
