MODEL 1
REMARK VINA RESULT:      -8.7      0.000      0.000
REMARK  Name = NuBBE_958
REMARK  14 active torsions:
REMARK  status: ('A' for Active; 'I' for Inactive)
REMARK    1  A    between atoms: C_1  and  O_2
REMARK    2  A    between atoms: O_2  and  C_3
REMARK    3  A    between atoms: C_3  and  C_4
REMARK    4  A    between atoms: C_4  and  C_5
REMARK    5  A    between atoms: C_7  and  C_8
REMARK    6  A    between atoms: C_15  and  O_17
REMARK    7  A    between atoms: O_17  and  C_18
REMARK    8  A    between atoms: C_18  and  C_19
REMARK    9  A    between atoms: C_19  and  C_20
REMARK   10  A    between atoms: C_19  and  C_21
REMARK   11  A    between atoms: C_23  and  C_24
REMARK   12  A    between atoms: C_23  and  C_25
REMARK   13  A    between atoms: C_31  and  C_34
REMARK   14  A    between atoms: C_38  and  C_40
REMARK                            x       y       z     vdW  Elec       q    Type
REMARK                         _______ _______ _______ _____ _____    ______ ____
ROOT
ATOM      1  C   LIG A   1      -7.158  -1.410 124.124  0.00  0.00    +0.022 C 
ATOM      2  C   LIG A   1      -7.598   0.076 124.563  0.00  0.00    +0.036 C 
ATOM      3  C   LIG A   1      -7.680   0.960 123.289  0.00  0.00    +0.019 C 
ATOM      4  C   LIG A   1      -6.686   0.736 125.691  0.00  0.00    +0.037 C 
ATOM      5  C   LIG A   1      -7.211   0.692 127.133  0.00  0.00    +0.104 C 
ATOM      6  C   LIG A   1      -8.462  -0.113 127.444  0.00  0.00    +0.165 C 
ATOM      7  C   LIG A   1      -9.199  -0.817 126.345  0.00  0.00    +0.129 C 
ATOM      8  C   LIG A   1      -8.758  -2.270 126.090  0.00  0.00    +0.195 C 
ATOM      9  C   LIG A   1      -8.104  -2.575 124.687  0.00  0.00    +0.007 C 
ATOM     10  C   LIG A   1      -9.251  -2.791 123.651  0.00  0.00    +0.015 C 
ATOM     11  C   LIG A   1      -7.389  -3.955 124.750  0.00  0.00    +0.015 C 
ATOM     12  C   LIG A   1      -9.037  -0.035 125.071  0.00  0.00    +0.149 C 
ATOM     13  O   LIG A   1     -10.013   0.422 124.478  0.00  0.00    -0.296 OA
ATOM     14  O   LIG A   1      -8.488   1.316 127.320  0.00  0.00    -0.363 OA
ATOM     15  C   LIG A   1      -6.184   1.106 128.194  0.00  0.00    +0.044 C 
ATOM     16  C   LIG A   1      -5.547   2.502 127.897  0.00  0.00    +0.015 C 
ATOM     17  C   LIG A   1      -5.117   2.579 126.411  0.00  0.00    +0.011 C 
ATOM     18  C   LIG A   1      -6.228   2.187 125.428  0.00  0.00    +0.008 C 
ATOM     19  C   LIG A   1      -6.523   3.670 128.199  0.00  0.00    +0.015 C 
ATOM     20  C   LIG A   1      -6.652   1.065 129.643  0.00  0.00    +0.127 C 
ATOM     21  C   LIG A   1      -5.585   1.480 130.625  0.00  0.00    +0.308 C 
ATOM     22  O   LIG A   1      -4.683   2.399 130.227  0.00  0.00    -0.456 OA
ATOM     23  C   LIG A   1      -4.310   2.567 128.840  0.00  0.00    +0.216 C 
ATOM     24  O   LIG A   1      -5.602   1.081 131.787  0.00  0.00    -0.251 OA
ENDROOT
BRANCH  23  25
ATOM     25  C   LIG A   1      -3.445   3.788 128.706  0.00  0.00    +0.031 A 
ATOM     26  C   LIG A   1      -2.738   4.195 127.589  0.00  0.00    +0.202 A 
ATOM     27  O   LIG A   1      -2.122   5.382 127.806  0.00  0.00    -0.471 OA
ATOM     28  C   LIG A   1      -2.433   5.762 129.069  0.00  0.00    +0.195 A 
ATOM     29  C   LIG A   1      -3.241   4.823 129.666  0.00  0.00    +0.048 A 
ENDBRANCH  23  25
BRANCH   1  30
ATOM     30  C   LIG A   1      -5.639  -1.751 124.213  0.00  0.00    +0.125 C 
BRANCH  30  31
ATOM     31  C   LIG A   1      -5.097  -2.602 123.076  0.00  0.00    +0.307 C 
ATOM     32  O   LIG A   1      -5.514  -2.622 121.940  0.00  0.00    -0.251 OA
BRANCH  31  34
ATOM     33  C   LIG A   1      -4.214  -4.751 123.345  0.00  0.00    +0.280 C 
ATOM     34  O   LIG A   1      -4.057  -3.348 123.546  0.00  0.00    -0.468 OA
ENDBRANCH  31  34
ENDBRANCH  30  31
ENDBRANCH   1  30
BRANCH   8  35
ATOM     35  O   LIG A   1      -7.862  -2.747 127.126  0.00  0.00    -0.460 OA
BRANCH  35  36
ATOM     36  C   LIG A   1      -8.452  -3.448 128.149  0.00  0.00    +0.310 C 
ATOM     37  O   LIG A   1      -9.476  -4.105 128.051  0.00  0.00    -0.251 OA
BRANCH  36  38
ATOM     38  C   LIG A   1      -7.618  -3.323 129.411  0.00  0.00    +0.092 C 
ATOM     39  C   LIG A   1      -6.186  -2.990 129.034  0.00  0.00    +0.019 C 
ATOM     40  C   LIG A   1      -8.199  -2.273 130.356  0.00  0.00    +0.019 C 
ENDBRANCH  36  38
ENDBRANCH  35  36
ENDBRANCH   8  35
TORSDOF 7
ENDMDL
MODEL 2
REMARK VINA RESULT:      -8.3      4.808      8.845
REMARK  Name = NuBBE_958
REMARK  14 active torsions:
REMARK  status: ('A' for Active; 'I' for Inactive)
REMARK    1  A    between atoms: C_1  and  O_2
REMARK    2  A    between atoms: O_2  and  C_3
REMARK    3  A    between atoms: C_3  and  C_4
REMARK    4  A    between atoms: C_4  and  C_5
REMARK    5  A    between atoms: C_7  and  C_8
REMARK    6  A    between atoms: C_15  and  O_17
REMARK    7  A    between atoms: O_17  and  C_18
REMARK    8  A    between atoms: C_18  and  C_19
REMARK    9  A    between atoms: C_19  and  C_20
REMARK   10  A    between atoms: C_19  and  C_21
REMARK   11  A    between atoms: C_23  and  C_24
REMARK   12  A    between atoms: C_23  and  C_25
REMARK   13  A    between atoms: C_31  and  C_34
REMARK   14  A    between atoms: C_38  and  C_40
REMARK                            x       y       z     vdW  Elec       q    Type
REMARK                         _______ _______ _______ _____ _____    ______ ____
ROOT
ATOM      1  C   LIG A   1      -8.703   3.260 129.867  0.00  0.00    +0.022 C 
ATOM      2  C   LIG A   1      -8.144   2.520 131.185  0.00  0.00    +0.036 C 
ATOM      3  C   LIG A   1      -9.229   1.532 131.690  0.00  0.00    +0.019 C 
ATOM      4  C   LIG A   1      -7.644   3.500 132.337  0.00  0.00    +0.037 C 
ATOM      5  C   LIG A   1      -6.132   3.748 132.441  0.00  0.00    +0.104 C 
ATOM      6  C   LIG A   1      -5.214   3.204 131.360  0.00  0.00    +0.165 C 
ATOM      7  C   LIG A   1      -5.776   2.395 130.230  0.00  0.00    +0.129 C 
ATOM      8  C   LIG A   1      -6.177   3.205 128.983  0.00  0.00    +0.195 C 
ATOM      9  C   LIG A   1      -7.709   3.215 128.610  0.00  0.00    +0.007 C 
ATOM     10  C   LIG A   1      -8.024   1.914 127.808  0.00  0.00    +0.015 C 
ATOM     11  C   LIG A   1      -7.976   4.359 127.590  0.00  0.00    +0.015 C 
ATOM     12  C   LIG A   1      -6.980   1.641 130.722  0.00  0.00    +0.149 C 
ATOM     13  O   LIG A   1      -7.016   0.412 130.692  0.00  0.00    -0.296 OA
ATOM     14  O   LIG A   1      -5.348   2.564 132.637  0.00  0.00    -0.363 OA
ATOM     15  C   LIG A   1      -5.741   4.886 133.392  0.00  0.00    +0.044 C 
ATOM     16  C   LIG A   1      -6.356   4.712 134.818  0.00  0.00    +0.015 C 
ATOM     17  C   LIG A   1      -7.859   4.356 134.704  0.00  0.00    +0.011 C 
ATOM     18  C   LIG A   1      -8.142   3.177 133.763  0.00  0.00    +0.008 C 
ATOM     19  C   LIG A   1      -5.638   3.608 135.637  0.00  0.00    +0.015 C 
ATOM     20  C   LIG A   1      -4.252   5.182 133.518  0.00  0.00    +0.127 C 
ATOM     21  C   LIG A   1      -3.949   6.317 134.466  0.00  0.00    +0.308 C 
ATOM     22  O   LIG A   1      -4.771   6.497 135.519  0.00  0.00    -0.456 OA
ATOM     23  C   LIG A   1      -6.162   6.104 135.490  0.00  0.00    +0.216 C 
ATOM     24  O   LIG A   1      -2.926   6.985 134.349  0.00  0.00    -0.251 OA
ENDROOT
BRANCH  23  25
ATOM     25  C   LIG A   1      -6.746   6.255 136.866  0.00  0.00    +0.031 A 
ATOM     26  C   LIG A   1      -6.114   6.026 138.075  0.00  0.00    +0.202 A 
ATOM     27  O   LIG A   1      -6.926   6.329 139.116  0.00  0.00    -0.471 OA
ATOM     28  C   LIG A   1      -8.094   6.771 138.589  0.00  0.00    +0.195 A 
ATOM     29  C   LIG A   1      -8.040   6.746 137.216  0.00  0.00    +0.048 A 
ENDBRANCH  23  25
BRANCH   1  30
ATOM     30  C   LIG A   1      -9.378   4.650 130.071  0.00  0.00    +0.125 C 
BRANCH  30  31
ATOM     31  C   LIG A   1     -10.863   4.609 130.394  0.00  0.00    +0.307 C 
ATOM     32  O   LIG A   1     -11.623   3.702 130.136  0.00  0.00    -0.251 OA
BRANCH  31  34
ATOM     33  C   LIG A   1     -10.413   6.056 132.176  0.00  0.00    +0.280 C 
ATOM     34  O   LIG A   1     -11.206   5.768 131.025  0.00  0.00    -0.468 OA
ENDBRANCH  31  34
ENDBRANCH  30  31
ENDBRANCH   1  30
BRANCH   8  35
ATOM     35  O   LIG A   1      -5.717   4.578 129.067  0.00  0.00    -0.460 OA
BRANCH  35  36
ATOM     36  C   LIG A   1      -4.589   4.874 128.341  0.00  0.00    +0.310 C 
ATOM     37  O   LIG A   1      -4.358   4.480 127.209  0.00  0.00    -0.251 OA
BRANCH  36  38
ATOM     38  C   LIG A   1      -3.691   5.804 129.137  0.00  0.00    +0.092 C 
ATOM     39  C   LIG A   1      -2.868   6.647 128.179  0.00  0.00    +0.019 C 
ATOM     40  C   LIG A   1      -4.506   6.680 130.086  0.00  0.00    +0.019 C 
ENDBRANCH  36  38
ENDBRANCH  35  36
ENDBRANCH   8  35
TORSDOF 7
ENDMDL
MODEL 3
REMARK VINA RESULT:      -8.3      2.191      7.951
REMARK  Name = NuBBE_958
REMARK  14 active torsions:
REMARK  status: ('A' for Active; 'I' for Inactive)
REMARK    1  A    between atoms: C_1  and  O_2
REMARK    2  A    between atoms: O_2  and  C_3
REMARK    3  A    between atoms: C_3  and  C_4
REMARK    4  A    between atoms: C_4  and  C_5
REMARK    5  A    between atoms: C_7  and  C_8
REMARK    6  A    between atoms: C_15  and  O_17
REMARK    7  A    between atoms: O_17  and  C_18
REMARK    8  A    between atoms: C_18  and  C_19
REMARK    9  A    between atoms: C_19  and  C_20
REMARK   10  A    between atoms: C_19  and  C_21
REMARK   11  A    between atoms: C_23  and  C_24
REMARK   12  A    between atoms: C_23  and  C_25
REMARK   13  A    between atoms: C_31  and  C_34
REMARK   14  A    between atoms: C_38  and  C_40
REMARK                            x       y       z     vdW  Elec       q    Type
REMARK                         _______ _______ _______ _____ _____    ______ ____
ROOT
ATOM      1  C   LIG A   1      -5.620   1.879 131.197  0.00  0.00    +0.022 C 
ATOM      2  C   LIG A   1      -7.079   1.657 130.548  0.00  0.00    +0.036 C 
ATOM      3  C   LIG A   1      -7.875   0.681 131.455  0.00  0.00    +0.019 C 
ATOM      4  C   LIG A   1      -7.066   1.186 129.026  0.00  0.00    +0.037 C 
ATOM      5  C   LIG A   1      -7.301   2.261 127.956  0.00  0.00    +0.104 C 
ATOM      6  C   LIG A   1      -7.358   3.722 128.371  0.00  0.00    +0.165 C 
ATOM      7  C   LIG A   1      -7.232   4.102 129.815  0.00  0.00    +0.129 C 
ATOM      8  C   LIG A   1      -5.797   4.391 130.291  0.00  0.00    +0.195 C 
ATOM      9  C   LIG A   1      -5.202   3.415 131.379  0.00  0.00    +0.007 C 
ATOM     10  C   LIG A   1      -5.710   3.878 132.779  0.00  0.00    +0.015 C 
ATOM     11  C   LIG A   1      -3.661   3.616 131.452  0.00  0.00    +0.015 C 
ATOM     12  C   LIG A   1      -7.806   2.999 130.661  0.00  0.00    +0.149 C 
ATOM     13  O   LIG A   1      -8.755   3.205 131.416  0.00  0.00    -0.296 OA
ATOM     14  O   LIG A   1      -8.544   2.966 128.084  0.00  0.00    -0.363 OA
ATOM     15  C   LIG A   1      -7.024   1.798 126.521  0.00  0.00    +0.044 C 
ATOM     16  C   LIG A   1      -7.804   0.494 126.152  0.00  0.00    +0.015 C 
ATOM     17  C   LIG A   1      -7.651  -0.549 127.287  0.00  0.00    +0.011 C 
ATOM     18  C   LIG A   1      -7.993   0.001 128.678  0.00  0.00    +0.008 C 
ATOM     19  C   LIG A   1      -9.313   0.760 125.913  0.00  0.00    +0.015 C 
ATOM     20  C   LIG A   1      -7.228   2.834 125.423  0.00  0.00    +0.127 C 
ATOM     21  C   LIG A   1      -6.930   2.304 124.042  0.00  0.00    +0.308 C 
ATOM     22  O   LIG A   1      -7.170   1.000 123.800  0.00  0.00    -0.456 OA
ATOM     23  C   LIG A   1      -7.122  -0.002 124.842  0.00  0.00    +0.216 C 
ATOM     24  O   LIG A   1      -6.589   3.056 123.133  0.00  0.00    -0.251 OA
ENDROOT
BRANCH  23  25
ATOM     25  C   LIG A   1      -7.623  -1.308 124.296  0.00  0.00    +0.031 A 
ATOM     26  C   LIG A   1      -7.168  -2.576 124.606  0.00  0.00    +0.202 A 
ATOM     27  O   LIG A   1      -7.899  -3.526 123.975  0.00  0.00    -0.471 OA
ATOM     28  C   LIG A   1      -8.847  -2.879 123.254  0.00  0.00    +0.195 A 
ATOM     29  C   LIG A   1      -8.725  -1.520 123.413  0.00  0.00    +0.048 A 
ENDBRANCH  23  25
BRANCH   1  30
ATOM     30  C   LIG A   1      -4.465   0.984 130.655  0.00  0.00    +0.125 C 
BRANCH  30  31
ATOM     31  C   LIG A   1      -4.238  -0.313 131.414  0.00  0.00    +0.307 C 
ATOM     32  O   LIG A   1      -3.498  -0.464 132.362  0.00  0.00    -0.251 OA
BRANCH  31  34
ATOM     33  C   LIG A   1      -4.624  -1.634 129.523  0.00  0.00    +0.280 C 
ATOM     34  O   LIG A   1      -5.007  -1.290 130.853  0.00  0.00    -0.468 OA
ENDBRANCH  31  34
ENDBRANCH  30  31
ENDBRANCH   1  30
BRANCH   8  35
ATOM     35  O   LIG A   1      -4.868   4.459 129.180  0.00  0.00    -0.460 OA
BRANCH  35  36
ATOM     36  C   LIG A   1      -4.380   5.709 128.885  0.00  0.00    +0.310 C 
ATOM     37  O   LIG A   1      -4.789   6.754 129.367  0.00  0.00    -0.251 OA
BRANCH  36  38
ATOM     38  C   LIG A   1      -3.227   5.597 127.905  0.00  0.00    +0.092 C 
ATOM     39  C   LIG A   1      -2.163   6.617 128.265  0.00  0.00    +0.019 C 
ATOM     40  C   LIG A   1      -2.653   4.181 127.887  0.00  0.00    +0.019 C 
ENDBRANCH  36  38
ENDBRANCH  35  36
ENDBRANCH   8  35
TORSDOF 7
ENDMDL
MODEL 4
REMARK VINA RESULT:      -8.2      2.313      6.652
REMARK  Name = NuBBE_958
REMARK  14 active torsions:
REMARK  status: ('A' for Active; 'I' for Inactive)
REMARK    1  A    between atoms: C_1  and  O_2
REMARK    2  A    between atoms: O_2  and  C_3
REMARK    3  A    between atoms: C_3  and  C_4
REMARK    4  A    between atoms: C_4  and  C_5
REMARK    5  A    between atoms: C_7  and  C_8
REMARK    6  A    between atoms: C_15  and  O_17
REMARK    7  A    between atoms: O_17  and  C_18
REMARK    8  A    between atoms: C_18  and  C_19
REMARK    9  A    between atoms: C_19  and  C_20
REMARK   10  A    between atoms: C_19  and  C_21
REMARK   11  A    between atoms: C_23  and  C_24
REMARK   12  A    between atoms: C_23  and  C_25
REMARK   13  A    between atoms: C_31  and  C_34
REMARK   14  A    between atoms: C_38  and  C_40
REMARK                            x       y       z     vdW  Elec       q    Type
REMARK                         _______ _______ _______ _____ _____    ______ ____
ROOT
ATOM      1  C   LIG A   1      -5.254   3.788 126.511  0.00  0.00    +0.022 C 
ATOM      2  C   LIG A   1      -6.201   3.384 127.750  0.00  0.00    +0.036 C 
ATOM      3  C   LIG A   1      -5.835   4.284 128.961  0.00  0.00    +0.019 C 
ATOM      4  C   LIG A   1      -6.181   1.836 128.127  0.00  0.00    +0.037 C 
ATOM      5  C   LIG A   1      -7.338   0.972 127.605  0.00  0.00    +0.104 C 
ATOM      6  C   LIG A   1      -8.334   1.574 126.629  0.00  0.00    +0.165 C 
ATOM      7  C   LIG A   1      -8.213   3.010 126.218  0.00  0.00    +0.129 C 
ATOM      8  C   LIG A   1      -7.367   3.258 124.955  0.00  0.00    +0.195 C 
ATOM      9  C   LIG A   1      -6.039   4.089 125.146  0.00  0.00    +0.007 C 
ATOM     10  C   LIG A   1      -6.408   5.605 125.141  0.00  0.00    +0.015 C 
ATOM     11  C   LIG A   1      -5.146   3.914 123.885  0.00  0.00    +0.015 C 
ATOM     12  C   LIG A   1      -7.622   3.795 127.355  0.00  0.00    +0.149 C 
ATOM     13  O   LIG A   1      -8.237   4.726 127.873  0.00  0.00    -0.296 OA
ATOM     14  O   LIG A   1      -8.640   1.406 128.021  0.00  0.00    -0.363 OA
ATOM     15  C   LIG A   1      -7.129  -0.538 127.781  0.00  0.00    +0.044 C 
ATOM     16  C   LIG A   1      -6.791  -0.927 129.256  0.00  0.00    +0.015 C 
ATOM     17  C   LIG A   1      -5.699   0.019 129.813  0.00  0.00    +0.011 C 
ATOM     18  C   LIG A   1      -6.021   1.508 129.628  0.00  0.00    +0.008 C 
ATOM     19  C   LIG A   1      -8.034  -0.860 130.182  0.00  0.00    +0.015 C 
ATOM     20  C   LIG A   1      -8.243  -1.440 127.265  0.00  0.00    +0.127 C 
ATOM     21  C   LIG A   1      -7.961  -2.909 127.469  0.00  0.00    +0.308 C 
ATOM     22  O   LIG A   1      -7.237  -3.270 128.546  0.00  0.00    -0.456 OA
ATOM     23  C   LIG A   1      -6.264  -2.390 129.154  0.00  0.00    +0.216 C 
ATOM     24  O   LIG A   1      -8.470  -3.759 126.742  0.00  0.00    -0.251 OA
ENDROOT
BRANCH  23  25
ATOM     25  C   LIG A   1      -5.777  -3.002 130.437  0.00  0.00    +0.031 A 
ATOM     26  C   LIG A   1      -6.539  -3.612 131.416  0.00  0.00    +0.202 A 
ATOM     27  O   LIG A   1      -5.757  -4.112 132.404  0.00  0.00    -0.471 OA
ATOM     28  C   LIG A   1      -4.473  -3.838 132.066  0.00  0.00    +0.195 A 
ATOM     29  C   LIG A   1      -4.426  -3.160 130.871  0.00  0.00    +0.048 A 
ENDBRANCH  23  25
BRANCH   1  30
ATOM     30  C   LIG A   1      -3.962   2.940 126.306  0.00  0.00    +0.125 C 
BRANCH  30  31
ATOM     31  C   LIG A   1      -2.678   3.583 126.804  0.00  0.00    +0.307 C 
ATOM     32  O   LIG A   1      -1.600   3.039 126.899  0.00  0.00    -0.251 OA
BRANCH  31  34
ATOM     33  C   LIG A   1      -2.399   5.278 128.391  0.00  0.00    +0.280 C 
ATOM     34  O   LIG A   1      -2.936   4.882 127.130  0.00  0.00    -0.468 OA
ENDBRANCH  31  34
ENDBRANCH  30  31
ENDBRANCH   1  30
BRANCH   8  35
ATOM     35  O   LIG A   1      -7.038   2.018 124.279  0.00  0.00    -0.460 OA
BRANCH  35  36
ATOM     36  C   LIG A   1      -7.956   1.579 123.357  0.00  0.00    +0.310 C 
ATOM     37  O   LIG A   1      -8.710   2.298 122.719  0.00  0.00    -0.251 OA
BRANCH  36  38
ATOM     38  C   LIG A   1      -7.866   0.072 123.213  0.00  0.00    +0.092 C 
ATOM     39  C   LIG A   1      -6.675  -0.437 124.005  0.00  0.00    +0.019 C 
ATOM     40  C   LIG A   1      -9.159  -0.606 123.661  0.00  0.00    +0.019 C 
ENDBRANCH  36  38
ENDBRANCH  35  36
ENDBRANCH   8  35
TORSDOF 7
ENDMDL
MODEL 5
REMARK VINA RESULT:      -8.2      7.015     11.253
REMARK  Name = NuBBE_958
REMARK  14 active torsions:
REMARK  status: ('A' for Active; 'I' for Inactive)
REMARK    1  A    between atoms: C_1  and  O_2
REMARK    2  A    between atoms: O_2  and  C_3
REMARK    3  A    between atoms: C_3  and  C_4
REMARK    4  A    between atoms: C_4  and  C_5
REMARK    5  A    between atoms: C_7  and  C_8
REMARK    6  A    between atoms: C_15  and  O_17
REMARK    7  A    between atoms: O_17  and  C_18
REMARK    8  A    between atoms: C_18  and  C_19
REMARK    9  A    between atoms: C_19  and  C_20
REMARK   10  A    between atoms: C_19  and  C_21
REMARK   11  A    between atoms: C_23  and  C_24
REMARK   12  A    between atoms: C_23  and  C_25
REMARK   13  A    between atoms: C_31  and  C_34
REMARK   14  A    between atoms: C_38  and  C_40
REMARK                            x       y       z     vdW  Elec       q    Type
REMARK                         _______ _______ _______ _____ _____    ______ ____
ROOT
ATOM      1  C   LIG A   1      -7.144   4.882 132.170  0.00  0.00    +0.022 C 
ATOM      2  C   LIG A   1      -7.308   4.407 133.701  0.00  0.00    +0.036 C 
ATOM      3  C   LIG A   1      -8.711   3.764 133.867  0.00  0.00    +0.019 C 
ATOM      4  C   LIG A   1      -7.039   5.544 134.784  0.00  0.00    +0.037 C 
ATOM      5  C   LIG A   1      -5.660   5.559 135.459  0.00  0.00    +0.104 C 
ATOM      6  C   LIG A   1      -4.575   4.624 134.952  0.00  0.00    +0.165 C 
ATOM      7  C   LIG A   1      -4.865   3.666 133.837  0.00  0.00    +0.129 C 
ATOM      8  C   LIG A   1      -4.567   4.200 132.424  0.00  0.00    +0.195 C 
ATOM      9  C   LIG A   1      -5.803   4.369 131.457  0.00  0.00    +0.007 C 
ATOM     10  C   LIG A   1      -6.114   2.981 130.816  0.00  0.00    +0.015 C 
ATOM     11  C   LIG A   1      -5.385   5.256 130.249  0.00  0.00    +0.015 C 
ATOM     12  C   LIG A   1      -6.312   3.263 133.904  0.00  0.00    +0.149 C 
ATOM     13  O   LIG A   1      -6.638   2.087 134.059  0.00  0.00    -0.296 OA
ATOM     14  O   LIG A   1      -5.321   4.347 136.146  0.00  0.00    -0.363 OA
ATOM     15  C   LIG A   1      -5.376   6.816 136.291  0.00  0.00    +0.044 C 
ATOM     16  C   LIG A   1      -6.493   7.100 137.346  0.00  0.00    +0.015 C 
ATOM     17  C   LIG A   1      -7.887   6.977 136.683  0.00  0.00    +0.011 C 
ATOM     18  C   LIG A   1      -8.088   5.666 135.912  0.00  0.00    +0.008 C 
ATOM     19  C   LIG A   1      -6.422   6.127 138.553  0.00  0.00    +0.015 C 
ATOM     20  C   LIG A   1      -4.013   6.886 136.969  0.00  0.00    +0.127 C 
ATOM     21  C   LIG A   1      -3.808   8.153 137.762  0.00  0.00    +0.308 C 
ATOM     22  O   LIG A   1      -4.886   8.718 138.341  0.00  0.00    -0.456 OA
ATOM     23  C   LIG A   1      -6.221   8.563 137.807  0.00  0.00    +0.216 C 
ATOM     24  O   LIG A   1      -2.681   8.595 137.971  0.00  0.00    -0.251 OA
ENDROOT
BRANCH  23  25
ATOM     25  C   LIG A   1      -7.211   9.140 138.778  0.00  0.00    +0.031 A 
ATOM     26  C   LIG A   1      -7.081   9.234 140.152  0.00  0.00    +0.202 A 
ATOM     27  O   LIG A   1      -8.142   9.873 140.701  0.00  0.00    -0.471 OA
ATOM     28  C   LIG A   1      -8.969  10.211 139.681  0.00  0.00    +0.195 A 
ATOM     29  C   LIG A   1      -8.449   9.786 138.482  0.00  0.00    +0.048 A 
ENDBRANCH  23  25
BRANCH   1  30
ATOM     30  C   LIG A   1      -7.480   6.371 131.854  0.00  0.00    +0.125 C 
BRANCH  30  31
ATOM     31  C   LIG A   1      -8.806   6.601 131.148  0.00  0.00    +0.307 C 
ATOM     32  O   LIG A   1      -8.961   6.749 129.956  0.00  0.00    -0.251 OA
BRANCH  31  34
ATOM     33  C   LIG A   1     -11.061   6.160 131.586  0.00  0.00    +0.280 C 
ATOM     34  O   LIG A   1      -9.802   6.616 132.079  0.00  0.00    -0.468 OA
ENDBRANCH  31  34
ENDBRANCH  30  31
ENDBRANCH   1  30
BRANCH   8  35
ATOM     35  O   LIG A   1      -3.846   5.457 132.468  0.00  0.00    -0.460 OA
BRANCH  35  36
ATOM     36  C   LIG A   1      -2.506   5.387 132.174  0.00  0.00    +0.310 C 
ATOM     37  O   LIG A   1      -1.783   4.433 132.418  0.00  0.00    -0.251 OA
BRANCH  36  38
ATOM     38  C   LIG A   1      -2.065   6.651 131.460  0.00  0.00    +0.092 C 
ATOM     39  C   LIG A   1      -1.934   6.368 129.975  0.00  0.00    +0.019 C 
ATOM     40  C   LIG A   1      -3.036   7.800 131.721  0.00  0.00    +0.019 C 
ENDBRANCH  36  38
ENDBRANCH  35  36
ENDBRANCH   8  35
TORSDOF 7
ENDMDL
MODEL 6
REMARK VINA RESULT:      -8.1      2.827      8.113
REMARK  Name = NuBBE_958
REMARK  14 active torsions:
REMARK  status: ('A' for Active; 'I' for Inactive)
REMARK    1  A    between atoms: C_1  and  O_2
REMARK    2  A    between atoms: O_2  and  C_3
REMARK    3  A    between atoms: C_3  and  C_4
REMARK    4  A    between atoms: C_4  and  C_5
REMARK    5  A    between atoms: C_7  and  C_8
REMARK    6  A    between atoms: C_15  and  O_17
REMARK    7  A    between atoms: O_17  and  C_18
REMARK    8  A    between atoms: C_18  and  C_19
REMARK    9  A    between atoms: C_19  and  C_20
REMARK   10  A    between atoms: C_19  and  C_21
REMARK   11  A    between atoms: C_23  and  C_24
REMARK   12  A    between atoms: C_23  and  C_25
REMARK   13  A    between atoms: C_31  and  C_34
REMARK   14  A    between atoms: C_38  and  C_40
REMARK                            x       y       z     vdW  Elec       q    Type
REMARK                         _______ _______ _______ _____ _____    ______ ____
ROOT
ATOM      1  C   LIG A   1      -7.858   3.584 130.975  0.00  0.00    +0.022 C 
ATOM      2  C   LIG A   1      -6.896   3.099 129.776  0.00  0.00    +0.036 C 
ATOM      3  C   LIG A   1      -6.945   4.165 128.648  0.00  0.00    +0.019 C 
ATOM      4  C   LIG A   1      -7.199   1.634 129.229  0.00  0.00    +0.037 C 
ATOM      5  C   LIG A   1      -6.305   0.495 129.739  0.00  0.00    +0.104 C 
ATOM      6  C   LIG A   1      -5.308   0.775 130.852  0.00  0.00    +0.165 C 
ATOM      7  C   LIG A   1      -5.169   2.159 131.409  0.00  0.00    +0.129 C 
ATOM      8  C   LIG A   1      -6.067   2.468 132.622  0.00  0.00    +0.195 C 
ATOM      9  C   LIG A   1      -7.167   3.580 132.422  0.00  0.00    +0.007 C 
ATOM     10  C   LIG A   1      -6.494   4.973 132.624  0.00  0.00    +0.015 C 
ATOM     11  C   LIG A   1      -8.199   3.488 133.582  0.00  0.00    +0.015 C 
ATOM     12  C   LIG A   1      -5.468   3.155 130.323  0.00  0.00    +0.149 C 
ATOM     13  O   LIG A   1      -4.624   3.973 129.961  0.00  0.00    -0.296 OA
ATOM     14  O   LIG A   1      -4.907   0.674 129.477  0.00  0.00    -0.363 OA
ATOM     15  C   LIG A   1      -6.804  -0.910 129.382  0.00  0.00    +0.044 C 
ATOM     16  C   LIG A   1      -7.067  -1.079 127.850  0.00  0.00    +0.015 C 
ATOM     17  C   LIG A   1      -7.878   0.128 127.319  0.00  0.00    +0.011 C 
ATOM     18  C   LIG A   1      -7.274   1.488 127.693  0.00  0.00    +0.008 C 
ATOM     19  C   LIG A   1      -5.751  -1.199 127.037  0.00  0.00    +0.015 C 
ATOM     20  C   LIG A   1      -5.959  -2.076 129.879  0.00  0.00    +0.127 C 
ATOM     21  C   LIG A   1      -6.518  -3.423 129.492  0.00  0.00    +0.308 C 
ATOM     22  O   LIG A   1      -7.190  -3.518 128.328  0.00  0.00    -0.456 OA
ATOM     23  C   LIG A   1      -7.894  -2.396 127.748  0.00  0.00    +0.216 C 
ATOM     24  O   LIG A   1      -6.272  -4.426 130.157  0.00  0.00    -0.251 OA
ENDROOT
BRANCH  23  25
ATOM     25  C   LIG A   1      -8.367  -2.768 126.371  0.00  0.00    +0.031 A 
ATOM     26  C   LIG A   1      -9.651  -2.660 125.869  0.00  0.00    +0.202 A 
ATOM     27  O   LIG A   1      -9.698  -3.025 124.565  0.00  0.00    -0.471 OA
ATOM     28  C   LIG A   1      -8.436  -3.365 124.205  0.00  0.00    +0.195 A 
ATOM     29  C   LIG A   1      -7.580  -3.226 125.272  0.00  0.00    +0.048 A 
ENDBRANCH  23  25
BRANCH   1  30
ATOM     30  C   LIG A   1      -9.312   3.021 130.983  0.00  0.00    +0.125 C 
BRANCH  30  31
ATOM     31  C   LIG A   1     -10.391   4.006 130.565  0.00  0.00    +0.307 C 
ATOM     32  O   LIG A   1     -11.482   3.721 130.122  0.00  0.00    -0.251 OA
BRANCH  31  34
ATOM     33  C   LIG A   1     -10.568   5.951 131.851  0.00  0.00    +0.280 C 
ATOM     34  O   LIG A   1      -9.931   5.273 130.770  0.00  0.00    -0.468 OA
ENDBRANCH  31  34
ENDBRANCH  30  31
ENDBRANCH   1  30
BRANCH   8  35
ATOM     35  O   LIG A   1      -6.712   1.272 133.128  0.00  0.00    -0.460 OA
BRANCH  35  36
ATOM     36  C   LIG A   1      -6.077   0.649 134.175  0.00  0.00    +0.310 C 
ATOM     37  O   LIG A   1      -5.471   1.219 135.068  0.00  0.00    -0.251 OA
BRANCH  36  38
ATOM     38  C   LIG A   1      -6.279  -0.852 134.083  0.00  0.00    +0.092 C 
ATOM     39  C   LIG A   1      -7.370  -1.150 133.071  0.00  0.00    +0.019 C 
ATOM     40  C   LIG A   1      -4.977  -1.564 133.720  0.00  0.00    +0.019 C 
ENDBRANCH  36  38
ENDBRANCH  35  36
ENDBRANCH   8  35
TORSDOF 7
ENDMDL
MODEL 7
REMARK VINA RESULT:      -8.0      2.646      7.912
REMARK  Name = NuBBE_958
REMARK  14 active torsions:
REMARK  status: ('A' for Active; 'I' for Inactive)
REMARK    1  A    between atoms: C_1  and  O_2
REMARK    2  A    between atoms: O_2  and  C_3
REMARK    3  A    between atoms: C_3  and  C_4
REMARK    4  A    between atoms: C_4  and  C_5
REMARK    5  A    between atoms: C_7  and  C_8
REMARK    6  A    between atoms: C_15  and  O_17
REMARK    7  A    between atoms: O_17  and  C_18
REMARK    8  A    between atoms: C_18  and  C_19
REMARK    9  A    between atoms: C_19  and  C_20
REMARK   10  A    between atoms: C_19  and  C_21
REMARK   11  A    between atoms: C_23  and  C_24
REMARK   12  A    between atoms: C_23  and  C_25
REMARK   13  A    between atoms: C_31  and  C_34
REMARK   14  A    between atoms: C_38  and  C_40
REMARK                            x       y       z     vdW  Elec       q    Type
REMARK                         _______ _______ _______ _____ _____    ______ ____
ROOT
ATOM      1  C   LIG A   1      -6.759   1.850 132.229  0.00  0.00    +0.022 C 
ATOM      2  C   LIG A   1      -7.920   1.393 131.209  0.00  0.00    +0.036 C 
ATOM      3  C   LIG A   1      -8.557   0.083 131.747  0.00  0.00    +0.019 C 
ATOM      4  C   LIG A   1      -7.458   1.255 129.691  0.00  0.00    +0.037 C 
ATOM      5  C   LIG A   1      -7.781   2.424 128.750  0.00  0.00    +0.104 C 
ATOM      6  C   LIG A   1      -8.354   3.707 129.328  0.00  0.00    +0.165 C 
ATOM      7  C   LIG A   1      -8.644   3.810 130.795  0.00  0.00    +0.129 C 
ATOM      8  C   LIG A   1      -7.489   4.360 131.652  0.00  0.00    +0.195 C 
ATOM      9  C   LIG A   1      -6.864   3.374 132.714  0.00  0.00    +0.007 C 
ATOM     10  C   LIG A   1      -7.761   3.400 133.990  0.00  0.00    +0.015 C 
ATOM     11  C   LIG A   1      -5.502   3.948 133.199  0.00  0.00    +0.015 C 
ATOM     12  C   LIG A   1      -9.022   2.450 131.314  0.00  0.00    +0.149 C 
ATOM     13  O   LIG A   1     -10.123   2.248 131.825  0.00  0.00    -0.296 OA
ATOM     14  O   LIG A   1      -9.176   2.743 128.654  0.00  0.00    -0.363 OA
ATOM     15  C   LIG A   1      -7.092   2.345 127.382  0.00  0.00    +0.044 C 
ATOM     16  C   LIG A   1      -7.355   0.984 126.658  0.00  0.00    +0.015 C 
ATOM     17  C   LIG A   1      -7.132  -0.188 127.644  0.00  0.00    +0.011 C 
ATOM     18  C   LIG A   1      -7.898  -0.036 128.965  0.00  0.00    +0.008 C 
ATOM     19  C   LIG A   1      -8.793   0.893 126.084  0.00  0.00    +0.015 C 
ATOM     20  C   LIG A   1      -7.368   3.490 126.417  0.00  0.00    +0.127 C 
ATOM     21  C   LIG A   1      -6.650   3.343 125.097  0.00  0.00    +0.308 C 
ATOM     22  O   LIG A   1      -6.435   2.096 124.631  0.00  0.00    -0.456 OA
ATOM     23  C   LIG A   1      -6.304   0.954 125.508  0.00  0.00    +0.216 C 
ATOM     24  O   LIG A   1      -6.372   4.324 124.413  0.00  0.00    -0.251 OA
ENDROOT
BRANCH  23  25
ATOM     25  C   LIG A   1      -6.271  -0.301 124.683  0.00  0.00    +0.031 A 
ATOM     26  C   LIG A   1      -6.890  -0.521 123.467  0.00  0.00    +0.202 A 
ATOM     27  O   LIG A   1      -6.587  -1.748 122.978  0.00  0.00    -0.471 OA
ATOM     28  C   LIG A   1      -5.755  -2.333 123.874  0.00  0.00    +0.195 A 
ATOM     29  C   LIG A   1      -5.527  -1.493 124.937  0.00  0.00    +0.048 A 
ENDBRANCH  23  25
BRANCH   1  30
ATOM     30  C   LIG A   1      -5.304   1.411 131.881  0.00  0.00    +0.125 C 
BRANCH  30  31
ATOM     31  C   LIG A   1      -4.880   0.064 132.443  0.00  0.00    +0.307 C 
ATOM     32  O   LIG A   1      -5.349  -0.480 133.418  0.00  0.00    -0.251 OA
BRANCH  31  34
ATOM     33  C   LIG A   1      -4.194  -0.488 130.276  0.00  0.00    +0.280 C 
ATOM     34  O   LIG A   1      -3.879  -0.439 131.666  0.00  0.00    -0.468 OA
ENDBRANCH  31  34
ENDBRANCH  30  31
ENDBRANCH   1  30
BRANCH   8  35
ATOM     35  O   LIG A   1      -6.417   4.886 130.830  0.00  0.00    -0.460 OA
BRANCH  35  36
ATOM     36  C   LIG A   1      -6.299   6.255 130.808  0.00  0.00    +0.310 C 
ATOM     37  O   LIG A   1      -7.234   7.040 130.796  0.00  0.00    -0.251 OA
BRANCH  36  38
ATOM     38  C   LIG A   1      -4.834   6.649 130.846  0.00  0.00    +0.092 C 
ATOM     39  C   LIG A   1      -3.999   5.531 130.250  0.00  0.00    +0.019 C 
ATOM     40  C   LIG A   1      -4.597   7.968 130.113  0.00  0.00    +0.019 C 
ENDBRANCH  36  38
ENDBRANCH  35  36
ENDBRANCH   8  35
TORSDOF 7
ENDMDL
MODEL 8
REMARK VINA RESULT:      -7.8      2.961      8.345
REMARK  Name = NuBBE_958
REMARK  14 active torsions:
REMARK  status: ('A' for Active; 'I' for Inactive)
REMARK    1  A    between atoms: C_1  and  O_2
REMARK    2  A    between atoms: O_2  and  C_3
REMARK    3  A    between atoms: C_3  and  C_4
REMARK    4  A    between atoms: C_4  and  C_5
REMARK    5  A    between atoms: C_7  and  C_8
REMARK    6  A    between atoms: C_15  and  O_17
REMARK    7  A    between atoms: O_17  and  C_18
REMARK    8  A    between atoms: C_18  and  C_19
REMARK    9  A    between atoms: C_19  and  C_20
REMARK   10  A    between atoms: C_19  and  C_21
REMARK   11  A    between atoms: C_23  and  C_24
REMARK   12  A    between atoms: C_23  and  C_25
REMARK   13  A    between atoms: C_31  and  C_34
REMARK   14  A    between atoms: C_38  and  C_40
REMARK                            x       y       z     vdW  Elec       q    Type
REMARK                         _______ _______ _______ _____ _____    ______ ____
ROOT
ATOM      1  C   LIG A   1      -7.217   2.253 133.203  0.00  0.00    +0.022 C 
ATOM      2  C   LIG A   1      -8.096   2.395 131.860  0.00  0.00    +0.036 C 
ATOM      3  C   LIG A   1      -9.448   1.663 132.080  0.00  0.00    +0.019 C 
ATOM      4  C   LIG A   1      -7.364   1.914 130.530  0.00  0.00    +0.037 C 
ATOM      5  C   LIG A   1      -6.740   2.999 129.640  0.00  0.00    +0.104 C 
ATOM      6  C   LIG A   1      -6.691   4.433 130.141  0.00  0.00    +0.165 C 
ATOM      7  C   LIG A   1      -7.290   4.789 131.467  0.00  0.00    +0.129 C 
ATOM      8  C   LIG A   1      -6.320   4.716 132.661  0.00  0.00    +0.195 C 
ATOM      9  C   LIG A   1      -6.640   3.638 133.768  0.00  0.00    +0.007 C 
ATOM     10  C   LIG A   1      -7.710   4.233 134.733  0.00  0.00    +0.015 C 
ATOM     11  C   LIG A   1      -5.386   3.446 134.667  0.00  0.00    +0.015 C 
ATOM     12  C   LIG A   1      -8.455   3.878 131.738  0.00  0.00    +0.149 C 
ATOM     13  O   LIG A   1      -9.589   4.327 131.896  0.00  0.00    -0.296 OA
ATOM     14  O   LIG A   1      -7.663   3.994 129.179  0.00  0.00    -0.363 OA
ATOM     15  C   LIG A   1      -5.838   2.459 128.523  0.00  0.00    +0.044 C 
ATOM     16  C   LIG A   1      -6.555   1.388 127.640  0.00  0.00    +0.015 C 
ATOM     17  C   LIG A   1      -7.275   0.357 128.543  0.00  0.00    +0.011 C 
ATOM     18  C   LIG A   1      -8.186   0.995 129.600  0.00  0.00    +0.008 C 
ATOM     19  C   LIG A   1      -7.592   2.021 126.674  0.00  0.00    +0.015 C 
ATOM     20  C   LIG A   1      -5.182   3.498 127.622  0.00  0.00    +0.127 C 
ATOM     21  C   LIG A   1      -4.306   2.890 126.553  0.00  0.00    +0.308 C 
ATOM     22  O   LIG A   1      -4.655   1.684 126.061  0.00  0.00    -0.456 OA
ATOM     23  C   LIG A   1      -5.400   0.718 126.838  0.00  0.00    +0.216 C 
ATOM     24  O   LIG A   1      -3.373   3.519 126.064  0.00  0.00    -0.251 OA
ENDROOT
BRANCH  23  25
ATOM     25  C   LIG A   1      -5.796  -0.428 125.951  0.00  0.00    +0.031 A 
ATOM     26  C   LIG A   1      -5.702  -1.778 126.235  0.00  0.00    +0.202 A 
ATOM     27  O   LIG A   1      -6.217  -2.526 125.229  0.00  0.00    -0.471 OA
ATOM     28  C   LIG A   1      -6.660  -1.663 124.283  0.00  0.00    +0.195 A 
ATOM     29  C   LIG A   1      -6.428  -0.365 124.673  0.00  0.00    +0.048 A 
ENDBRANCH  23  25
BRANCH   1  30
ATOM     30  C   LIG A   1      -6.181   1.089 133.247  0.00  0.00    +0.125 C 
BRANCH  30  31
ATOM     31  C   LIG A   1      -6.565  -0.089 134.127  0.00  0.00    +0.307 C 
ATOM     32  O   LIG A   1      -6.194  -0.279 135.264  0.00  0.00    -0.251 OA
BRANCH  31  34
ATOM     33  C   LIG A   1      -6.843  -1.398 132.208  0.00  0.00    +0.280 C 
ATOM     34  O   LIG A   1      -7.402  -0.906 133.425  0.00  0.00    -0.468 OA
ENDBRANCH  31  34
ENDBRANCH  30  31
ENDBRANCH   1  30
BRANCH   8  35
ATOM     35  O   LIG A   1      -4.949   4.533 132.226  0.00  0.00    -0.460 OA
BRANCH  35  36
ATOM     36  C   LIG A   1      -4.118   5.613 132.400  0.00  0.00    +0.310 C 
ATOM     37  O   LIG A   1      -4.401   6.623 133.025  0.00  0.00    -0.251 OA
BRANCH  36  38
ATOM     38  C   LIG A   1      -2.778   5.347 131.740  0.00  0.00    +0.092 C 
ATOM     39  C   LIG A   1      -1.935   4.472 132.650  0.00  0.00    +0.019 C 
ATOM     40  C   LIG A   1      -2.957   4.704 130.365  0.00  0.00    +0.019 C 
ENDBRANCH  36  38
ENDBRANCH  35  36
ENDBRANCH   8  35
TORSDOF 7
ENDMDL
MODEL 9
REMARK VINA RESULT:      -7.8      4.149      8.689
REMARK  Name = NuBBE_958
REMARK  14 active torsions:
REMARK  status: ('A' for Active; 'I' for Inactive)
REMARK    1  A    between atoms: C_1  and  O_2
REMARK    2  A    between atoms: O_2  and  C_3
REMARK    3  A    between atoms: C_3  and  C_4
REMARK    4  A    between atoms: C_4  and  C_5
REMARK    5  A    between atoms: C_7  and  C_8
REMARK    6  A    between atoms: C_15  and  O_17
REMARK    7  A    between atoms: O_17  and  C_18
REMARK    8  A    between atoms: C_18  and  C_19
REMARK    9  A    between atoms: C_19  and  C_20
REMARK   10  A    between atoms: C_19  and  C_21
REMARK   11  A    between atoms: C_23  and  C_24
REMARK   12  A    between atoms: C_23  and  C_25
REMARK   13  A    between atoms: C_31  and  C_34
REMARK   14  A    between atoms: C_38  and  C_40
REMARK                            x       y       z     vdW  Elec       q    Type
REMARK                         _______ _______ _______ _____ _____    ______ ____
ROOT
ATOM      1  C   LIG A   1      -5.973   5.016 129.898  0.00  0.00    +0.022 C 
ATOM      2  C   LIG A   1      -4.777   3.937 129.944  0.00  0.00    +0.036 C 
ATOM      3  C   LIG A   1      -4.168   3.819 128.520  0.00  0.00    +0.019 C 
ATOM      4  C   LIG A   1      -5.183   2.517 130.540  0.00  0.00    +0.037 C 
ATOM      5  C   LIG A   1      -4.819   2.241 132.006  0.00  0.00    +0.104 C 
ATOM      6  C   LIG A   1      -4.261   3.369 132.858  0.00  0.00    +0.165 C 
ATOM      7  C   LIG A   1      -4.025   4.722 132.258  0.00  0.00    +0.129 C 
ATOM      8  C   LIG A   1      -5.208   5.701 132.370  0.00  0.00    +0.195 C 
ATOM      9  C   LIG A   1      -5.877   6.160 131.017  0.00  0.00    +0.007 C 
ATOM     10  C   LIG A   1      -5.028   7.327 130.424  0.00  0.00    +0.015 C 
ATOM     11  C   LIG A   1      -7.253   6.815 131.328  0.00  0.00    +0.015 C 
ATOM     12  C   LIG A   1      -3.674   4.556 130.805  0.00  0.00    +0.149 C 
ATOM     13  O   LIG A   1      -2.594   4.947 130.364  0.00  0.00    -0.296 OA
ATOM     14  O   LIG A   1      -3.420   2.347 132.302  0.00  0.00    -0.363 OA
ATOM     15  C   LIG A   1      -5.458   0.975 132.590  0.00  0.00    +0.044 C 
ATOM     16  C   LIG A   1      -5.175  -0.293 131.719  0.00  0.00    +0.015 C 
ATOM     17  C   LIG A   1      -5.441   0.024 130.227  0.00  0.00    +0.011 C 
ATOM     18  C   LIG A   1      -4.723   1.286 129.729  0.00  0.00    +0.008 C 
ATOM     19  C   LIG A   1      -3.717  -0.799 131.875  0.00  0.00    +0.015 C 
ATOM     20  C   LIG A   1      -5.140   0.665 134.047  0.00  0.00    +0.127 C 
ATOM     21  C   LIG A   1      -5.809  -0.591 134.548  0.00  0.00    +0.308 C 
ATOM     22  O   LIG A   1      -6.013  -1.592 133.669  0.00  0.00    -0.456 OA
ATOM     23  C   LIG A   1      -6.183  -1.355 132.253  0.00  0.00    +0.216 C 
ATOM     24  O   LIG A   1      -6.056  -0.746 135.741  0.00  0.00    -0.251 OA
ENDROOT
BRANCH  23  25
ATOM     25  C   LIG A   1      -6.192  -2.671 131.529  0.00  0.00    +0.031 A 
ATOM     26  C   LIG A   1      -6.958  -3.017 130.430  0.00  0.00    +0.202 A 
ATOM     27  O   LIG A   1      -6.656  -4.266 129.999  0.00  0.00    -0.471 OA
ATOM     28  C   LIG A   1      -5.680  -4.739 130.812  0.00  0.00    +0.195 A 
ATOM     29  C   LIG A   1      -5.357  -3.804 131.766  0.00  0.00    +0.048 A 
ENDBRANCH  23  25
BRANCH   1  30
ATOM     30  C   LIG A   1      -7.416   4.460 129.704  0.00  0.00    +0.125 C 
BRANCH  30  31
ATOM     31  C   LIG A   1      -7.830   4.214 128.263  0.00  0.00    +0.307 C 
ATOM     32  O   LIG A   1      -8.294   5.036 127.505  0.00  0.00    -0.251 OA
BRANCH  31  34
ATOM     33  C   LIG A   1      -8.407   1.986 128.679  0.00  0.00    +0.280 C 
ATOM     34  O   LIG A   1      -7.592   2.907 127.956  0.00  0.00    -0.468 OA
ENDBRANCH  31  34
ENDBRANCH  30  31
ENDBRANCH   1  30
BRANCH   8  35
ATOM     35  O   LIG A   1      -6.246   5.188 133.243  0.00  0.00    -0.460 OA
BRANCH  35  36
ATOM     36  C   LIG A   1      -6.165   5.576 134.558  0.00  0.00    +0.310 C 
ATOM     37  O   LIG A   1      -5.339   6.352 135.012  0.00  0.00    -0.251 OA
BRANCH  36  38
ATOM     38  C   LIG A   1      -7.284   4.933 135.357  0.00  0.00    +0.092 C 
ATOM     39  C   LIG A   1      -7.917   5.976 136.261  0.00  0.00    +0.019 C 
ATOM     40  C   LIG A   1      -8.323   4.294 134.438  0.00  0.00    +0.019 C 
ENDBRANCH  36  38
ENDBRANCH  35  36
ENDBRANCH   8  35
TORSDOF 7
ENDMDL
