MODEL 1
REMARK VINA RESULT:      -8.3      0.000      0.000
REMARK  Name = NuBBE_1464
REMARK  14 active torsions:
REMARK  status: ('A' for Active; 'I' for Inactive)
REMARK    1  A    between atoms: C_1  and  C_2
REMARK    2  A    between atoms: C_4  and  C_5
REMARK    3  A    between atoms: C_10  and  C_11
REMARK    4  A    between atoms: C_10  and  C_12
REMARK    5  A    between atoms: C_13  and  C_15
REMARK    6  A    between atoms: C_15  and  O_17
REMARK    7  A    between atoms: C_15  and  C_18
REMARK    8  A    between atoms: C_18  and  O_19
REMARK    9  A    between atoms: O_19  and  C_20
REMARK   10  A    between atoms: C_24  and  C_25
REMARK   11  A    between atoms: C_26  and  C_28
REMARK   12  A    between atoms: C_38  and  O_40
REMARK   13  A    between atoms: O_40  and  C_41
REMARK   14  A    between atoms: C_41  and  C_42
REMARK                            x       y       z     vdW  Elec       q    Type
REMARK                         _______ _______ _______ _____ _____    ______ ____
ROOT
ATOM      1  C   LIG A   1      -4.428   1.612 129.992  0.00  0.00    +0.057 C 
ATOM      2  C   LIG A   1      -5.588   0.980 129.295  0.00  0.00    +0.125 C 
ATOM      3  C   LIG A   1      -6.438   1.519 128.148  0.00  0.00    +0.070 C 
ATOM      4  C   LIG A   1      -6.299   0.453 127.016  0.00  0.00    +0.045 C 
ATOM      5  C   LIG A   1      -5.233   0.975 126.014  0.00  0.00    +0.020 C 
ATOM      6  C   LIG A   1      -5.618  -0.706 127.737  0.00  0.00    +0.109 C 
ATOM      7  O   LIG A   1      -5.265  -0.421 129.041  0.00  0.00    -0.488 OA
ATOM      8  C   LIG A   1      -5.440  -1.926 127.228  0.00  0.00    +0.088 C 
ATOM      9  C   LIG A   1      -6.291  -2.216 126.059  0.00  0.00    +0.165 C 
ATOM     10  C   LIG A   1      -7.724  -1.657 126.152  0.00  0.00    +0.034 C 
ATOM     11  C   LIG A   1      -8.374  -2.287 127.421  0.00  0.00    +0.019 C 
ATOM     12  C   LIG A   1      -8.577  -2.233 124.999  0.00  0.00    +0.019 C 
ATOM     13  C   LIG A   1      -7.639  -0.058 126.289  0.00  0.00    +0.056 C 
ATOM     14  O   LIG A   1      -5.874  -2.933 125.158  0.00  0.00    -0.292 OA
ATOM     15  C   LIG A   1      -7.052   1.348 129.566  0.00  0.00    +0.044 C 
ATOM     16  C   LIG A   1      -7.555   2.765 130.023  0.00  0.00    +0.023 C 
ATOM     17  C   LIG A   1      -6.608   3.435 131.036  0.00  0.00    +0.016 C 
ATOM     18  C   LIG A   1      -8.989   2.644 130.645  0.00  0.00    +0.216 C 
ATOM     19  O   LIG A   1      -8.949   1.656 131.695  0.00  0.00    -0.456 OA
ATOM     20  C   LIG A   1      -8.559   0.401 131.360  0.00  0.00    +0.308 C 
ATOM     21  C   LIG A   1      -7.994   0.234 129.966  0.00  0.00    +0.133 C 
ATOM     22  O   LIG A   1      -8.706  -0.540 132.131  0.00  0.00    -0.251 OA
ATOM     23  C   LIG A   1      -7.636   3.552 128.694  0.00  0.00    +0.056 C 
ATOM     24  C   LIG A   1      -6.556   2.987 127.767  0.00  0.00    +0.189 C 
ENDROOT
BRANCH  18  25
ATOM     25  C   LIG A   1      -9.587   3.934 131.167  0.00  0.00    +0.031 A 
ATOM     26  C   LIG A   1      -9.424   4.476 132.431  0.00  0.00    +0.202 A 
ATOM     27  O   LIG A   1     -10.124   5.629 132.570  0.00  0.00    -0.471 OA
ATOM     28  C   LIG A   1     -10.755   5.851 131.392  0.00  0.00    +0.195 A 
ATOM     29  C   LIG A   1     -10.464   4.846 130.500  0.00  0.00    +0.048 A 
ENDBRANCH  18  25
BRANCH  13  30
ATOM     30  C   LIG A   1      -7.998   0.666 124.952  0.00  0.00    +0.227 C 
BRANCH  30  31
ATOM     31  O   LIG A   1      -7.686  -0.182 123.847  0.00  0.00    -0.380 OA
ATOM     32  H   LIG A   1      -8.271  -0.964 123.914  0.00  0.00    +0.210 HD
ENDBRANCH  30  31
BRANCH  30  33
ATOM     33  C   LIG A   1      -9.412   1.318 124.807  0.00  0.00    +0.336 C 
ATOM     34  O   LIG A   1     -10.466   0.751 124.544  0.00  0.00    -0.248 OA
BRANCH  33  35
ATOM     35  O   LIG A   1      -9.298   2.625 125.167  0.00  0.00    -0.466 OA
ATOM     36  C   LIG A   1      -8.238   3.274 124.476  0.00  0.00    +0.280 C 
ENDBRANCH  33  35
ENDBRANCH  30  33
ENDBRANCH  13  30
BRANCH  24  37
ATOM     37  O   LIG A   1      -5.339   3.726 127.947  0.00  0.00    -0.461 OA
BRANCH  37  38
ATOM     38  C   LIG A   1      -4.958   4.442 126.848  0.00  0.00    +0.304 C 
ATOM     39  C   LIG A   1      -3.559   4.107 126.431  0.00  0.00    +0.136 C 
ATOM     40  O   LIG A   1      -5.642   5.281 126.277  0.00  0.00    -0.251 OA
ENDBRANCH  37  38
ENDBRANCH  24  37
TORSDOF 7
ENDMDL
MODEL 2
REMARK VINA RESULT:      -7.9      5.521      8.361
REMARK  Name = NuBBE_1464
REMARK  14 active torsions:
REMARK  status: ('A' for Active; 'I' for Inactive)
REMARK    1  A    between atoms: C_1  and  C_2
REMARK    2  A    between atoms: C_4  and  C_5
REMARK    3  A    between atoms: C_10  and  C_11
REMARK    4  A    between atoms: C_10  and  C_12
REMARK    5  A    between atoms: C_13  and  C_15
REMARK    6  A    between atoms: C_15  and  O_17
REMARK    7  A    between atoms: C_15  and  C_18
REMARK    8  A    between atoms: C_18  and  O_19
REMARK    9  A    between atoms: O_19  and  C_20
REMARK   10  A    between atoms: C_24  and  C_25
REMARK   11  A    between atoms: C_26  and  C_28
REMARK   12  A    between atoms: C_38  and  O_40
REMARK   13  A    between atoms: O_40  and  C_41
REMARK   14  A    between atoms: C_41  and  C_42
REMARK                            x       y       z     vdW  Elec       q    Type
REMARK                         _______ _______ _______ _____ _____    ______ ____
ROOT
ATOM      1  C   LIG A   1      -1.584   4.359 132.622  0.00  0.00    +0.057 C 
ATOM      2  C   LIG A   1      -2.888   4.935 133.066  0.00  0.00    +0.125 C 
ATOM      3  C   LIG A   1      -3.910   5.744 132.271  0.00  0.00    +0.070 C 
ATOM      4  C   LIG A   1      -5.234   4.923 132.375  0.00  0.00    +0.045 C 
ATOM      5  C   LIG A   1      -5.377   4.103 131.064  0.00  0.00    +0.020 C 
ATOM      6  C   LIG A   1      -4.898   3.889 133.444  0.00  0.00    +0.109 C 
ATOM      7  O   LIG A   1      -3.584   3.934 133.869  0.00  0.00    -0.488 OA
ATOM      8  C   LIG A   1      -5.776   3.059 134.011  0.00  0.00    +0.088 C 
ATOM      9  C   LIG A   1      -7.182   3.462 133.827  0.00  0.00    +0.165 C 
ATOM     10  C   LIG A   1      -7.435   4.979 133.919  0.00  0.00    +0.034 C 
ATOM     11  C   LIG A   1      -6.958   5.433 135.332  0.00  0.00    +0.019 C 
ATOM     12  C   LIG A   1      -8.957   5.246 133.959  0.00  0.00    +0.019 C 
ATOM     13  C   LIG A   1      -6.581   5.708 132.769  0.00  0.00    +0.056 C 
ATOM     14  O   LIG A   1      -8.054   2.610 133.713  0.00  0.00    -0.292 OA
ATOM     15  C   LIG A   1      -3.096   6.414 133.414  0.00  0.00    +0.044 C 
ATOM     16  C   LIG A   1      -2.303   7.610 132.773  0.00  0.00    +0.023 C 
ATOM     17  C   LIG A   1      -0.814   7.285 132.551  0.00  0.00    +0.016 C 
ATOM     18  C   LIG A   1      -2.434   8.881 133.681  0.00  0.00    +0.216 C 
ATOM     19  O   LIG A   1      -2.015   8.533 135.017  0.00  0.00    -0.456 OA
ATOM     20  C   LIG A   1      -2.684   7.533 135.642  0.00  0.00    +0.308 C 
ATOM     21  C   LIG A   1      -3.648   6.743 134.783  0.00  0.00    +0.133 C 
ATOM     22  O   LIG A   1      -2.544   7.323 136.842  0.00  0.00    -0.251 OA
ATOM     23  C   LIG A   1      -3.051   7.851 131.441  0.00  0.00    +0.056 C 
ATOM     24  C   LIG A   1      -3.610   6.500 130.986  0.00  0.00    +0.189 C 
ENDROOT
BRANCH  18  25
ATOM     25  C   LIG A   1      -1.684  10.107 133.204  0.00  0.00    +0.031 A 
ATOM     26  C   LIG A   1      -0.351  10.407 133.429  0.00  0.00    +0.202 A 
ATOM     27  O   LIG A   1      -0.012  11.601 132.882  0.00  0.00    -0.471 OA
ATOM     28  C   LIG A   1      -1.127  12.094 132.291  0.00  0.00    +0.195 A 
ATOM     29  C   LIG A   1      -2.179  11.224 132.459  0.00  0.00    +0.048 A 
ENDBRANCH  18  25
BRANCH  13  30
ATOM     30  C   LIG A   1      -7.476   6.156 131.568  0.00  0.00    +0.227 C 
BRANCH  30  31
ATOM     31  O   LIG A   1      -6.836   7.217 130.860  0.00  0.00    -0.380 OA
ATOM     32  H   LIG A   1      -6.437   7.807 131.532  0.00  0.00    +0.210 HD
ENDBRANCH  30  31
BRANCH  30  33
ATOM     33  C   LIG A   1      -8.037   5.062 130.602  0.00  0.00    +0.336 C 
ATOM     34  O   LIG A   1      -8.752   4.111 130.896  0.00  0.00    -0.248 OA
BRANCH  33  35
ATOM     35  O   LIG A   1      -7.708   5.428 129.334  0.00  0.00    -0.466 OA
ATOM     36  C   LIG A   1      -7.934   4.377 128.403  0.00  0.00    +0.280 C 
ENDBRANCH  33  35
ENDBRANCH  30  33
ENDBRANCH  13  30
BRANCH  24  37
ATOM     37  O   LIG A   1      -2.650   5.845 130.145  0.00  0.00    -0.461 OA
BRANCH  37  38
ATOM     38  C   LIG A   1      -2.982   5.845 128.820  0.00  0.00    +0.304 C 
ATOM     39  C   LIG A   1      -2.705   4.517 128.183  0.00  0.00    +0.136 C 
ATOM     40  O   LIG A   1      -3.423   6.803 128.199  0.00  0.00    -0.251 OA
ENDBRANCH  37  38
ENDBRANCH  24  37
TORSDOF 7
ENDMDL
MODEL 3
REMARK VINA RESULT:      -7.8      3.035      7.234
REMARK  Name = NuBBE_1464
REMARK  14 active torsions:
REMARK  status: ('A' for Active; 'I' for Inactive)
REMARK    1  A    between atoms: C_1  and  C_2
REMARK    2  A    between atoms: C_4  and  C_5
REMARK    3  A    between atoms: C_10  and  C_11
REMARK    4  A    between atoms: C_10  and  C_12
REMARK    5  A    between atoms: C_13  and  C_15
REMARK    6  A    between atoms: C_15  and  O_17
REMARK    7  A    between atoms: C_15  and  C_18
REMARK    8  A    between atoms: C_18  and  O_19
REMARK    9  A    between atoms: O_19  and  C_20
REMARK   10  A    between atoms: C_24  and  C_25
REMARK   11  A    between atoms: C_26  and  C_28
REMARK   12  A    between atoms: C_38  and  O_40
REMARK   13  A    between atoms: O_40  and  C_41
REMARK   14  A    between atoms: C_41  and  C_42
REMARK                            x       y       z     vdW  Elec       q    Type
REMARK                         _______ _______ _______ _____ _____    ______ ____
ROOT
ATOM      1  C   LIG A   1      -8.355   3.624 133.094  0.00  0.00    +0.057 C 
ATOM      2  C   LIG A   1      -6.986   3.767 132.515  0.00  0.00    +0.125 C 
ATOM      3  C   LIG A   1      -6.562   4.309 131.152  0.00  0.00    +0.070 C 
ATOM      4  C   LIG A   1      -5.598   5.492 131.477  0.00  0.00    +0.045 C 
ATOM      5  C   LIG A   1      -6.417   6.806 131.361  0.00  0.00    +0.020 C 
ATOM      6  C   LIG A   1      -5.356   5.318 132.974  0.00  0.00    +0.109 C 
ATOM      7  O   LIG A   1      -6.104   4.307 133.545  0.00  0.00    -0.488 OA
ATOM      8  C   LIG A   1      -4.453   5.993 133.687  0.00  0.00    +0.088 C 
ATOM      9  C   LIG A   1      -3.418   6.652 132.871  0.00  0.00    +0.165 C 
ATOM     10  C   LIG A   1      -2.937   5.833 131.658  0.00  0.00    +0.034 C 
ATOM     11  C   LIG A   1      -2.367   4.492 132.213  0.00  0.00    +0.019 C 
ATOM     12  C   LIG A   1      -1.694   6.511 131.037  0.00  0.00    +0.019 C 
ATOM     13  C   LIG A   1      -4.195   5.561 130.695  0.00  0.00    +0.056 C 
ATOM     14  O   LIG A   1      -2.941   7.721 133.229  0.00  0.00    -0.292 OA
ATOM     15  C   LIG A   1      -6.388   2.800 131.485  0.00  0.00    +0.044 C 
ATOM     16  C   LIG A   1      -7.215   1.995 130.418  0.00  0.00    +0.023 C 
ATOM     17  C   LIG A   1      -8.553   1.472 130.974  0.00  0.00    +0.016 C 
ATOM     18  C   LIG A   1      -6.364   0.794 129.881  0.00  0.00    +0.216 C 
ATOM     19  O   LIG A   1      -5.918   0.011 131.008  0.00  0.00    -0.456 OA
ATOM     20  C   LIG A   1      -5.167   0.637 131.948  0.00  0.00    +0.308 C 
ATOM     21  C   LIG A   1      -5.069   2.142 131.822  0.00  0.00    +0.133 C 
ATOM     22  O   LIG A   1      -4.569   0.005 132.812  0.00  0.00    -0.251 OA
ATOM     23  C   LIG A   1      -7.420   3.027 129.285  0.00  0.00    +0.056 C 
ATOM     24  C   LIG A   1      -7.471   4.411 129.936  0.00  0.00    +0.189 C 
ENDROOT
BRANCH  18  25
ATOM     25  C   LIG A   1      -7.053  -0.097 128.870  0.00  0.00    +0.031 A 
ATOM     26  C   LIG A   1      -7.472  -1.403 129.059  0.00  0.00    +0.202 A 
ATOM     27  O   LIG A   1      -8.028  -1.913 127.932  0.00  0.00    -0.471 OA
ATOM     28  C   LIG A   1      -7.978  -0.940 126.991  0.00  0.00    +0.195 A 
ATOM     29  C   LIG A   1      -7.390   0.191 127.509  0.00  0.00    +0.048 A 
ENDBRANCH  18  25
BRANCH  13  30
ATOM     30  C   LIG A   1      -4.174   6.478 129.429  0.00  0.00    +0.227 C 
BRANCH  30  31
ATOM     31  O   LIG A   1      -3.607   7.745 129.762  0.00  0.00    -0.380 OA
ATOM     32  H   LIG A   1      -3.995   8.013 130.620  0.00  0.00    +0.210 HD
ENDBRANCH  30  31
BRANCH  30  33
ATOM     33  C   LIG A   1      -3.588   5.906 128.098  0.00  0.00    +0.336 C 
ATOM     34  O   LIG A   1      -2.488   5.391 127.934  0.00  0.00    -0.248 OA
BRANCH  33  35
ATOM     35  O   LIG A   1      -4.576   5.949 127.164  0.00  0.00    -0.466 OA
ATOM     36  C   LIG A   1      -5.025   4.648 126.806  0.00  0.00    +0.280 C 
ENDBRANCH  33  35
ENDBRANCH  30  33
ENDBRANCH  13  30
BRANCH  24  37
ATOM     37  O   LIG A   1      -8.830   4.735 130.262  0.00  0.00    -0.461 OA
BRANCH  37  38
ATOM     38  C   LIG A   1      -9.354   5.747 129.508  0.00  0.00    +0.304 C 
ATOM     39  C   LIG A   1      -9.939   6.827 130.367  0.00  0.00    +0.136 C 
ATOM     40  O   LIG A   1      -9.384   5.778 128.285  0.00  0.00    -0.251 OA
ENDBRANCH  37  38
ENDBRANCH  24  37
TORSDOF 7
ENDMDL
MODEL 4
REMARK VINA RESULT:      -7.6      2.127      7.013
REMARK  Name = NuBBE_1464
REMARK  14 active torsions:
REMARK  status: ('A' for Active; 'I' for Inactive)
REMARK    1  A    between atoms: C_1  and  C_2
REMARK    2  A    between atoms: C_4  and  C_5
REMARK    3  A    between atoms: C_10  and  C_11
REMARK    4  A    between atoms: C_10  and  C_12
REMARK    5  A    between atoms: C_13  and  C_15
REMARK    6  A    between atoms: C_15  and  O_17
REMARK    7  A    between atoms: C_15  and  C_18
REMARK    8  A    between atoms: C_18  and  O_19
REMARK    9  A    between atoms: O_19  and  C_20
REMARK   10  A    between atoms: C_24  and  C_25
REMARK   11  A    between atoms: C_26  and  C_28
REMARK   12  A    between atoms: C_38  and  O_40
REMARK   13  A    between atoms: O_40  and  C_41
REMARK   14  A    between atoms: C_41  and  C_42
REMARK                            x       y       z     vdW  Elec       q    Type
REMARK                         _______ _______ _______ _____ _____    ______ ____
ROOT
ATOM      1  C   LIG A   1      -5.482   0.154 128.277  0.00  0.00    +0.057 C 
ATOM      2  C   LIG A   1      -5.879   1.547 128.640  0.00  0.00    +0.125 C 
ATOM      3  C   LIG A   1      -7.216   2.256 128.438  0.00  0.00    +0.070 C 
ATOM      4  C   LIG A   1      -7.656   2.691 129.872  0.00  0.00    +0.045 C 
ATOM      5  C   LIG A   1      -8.681   1.643 130.382  0.00  0.00    +0.020 C 
ATOM      6  C   LIG A   1      -6.397   2.434 130.694  0.00  0.00    +0.109 C 
ATOM      7  O   LIG A   1      -5.377   1.834 129.980  0.00  0.00    -0.488 OA
ATOM      8  C   LIG A   1      -6.218   2.814 131.961  0.00  0.00    +0.088 C 
ATOM      9  C   LIG A   1      -7.164   3.852 132.412  0.00  0.00    +0.165 C 
ATOM     10  C   LIG A   1      -7.491   4.927 131.357  0.00  0.00    +0.034 C 
ATOM     11  C   LIG A   1      -6.143   5.604 130.967  0.00  0.00    +0.019 C 
ATOM     12  C   LIG A   1      -8.283   6.076 132.021  0.00  0.00    +0.019 C 
ATOM     13  C   LIG A   1      -8.155   4.205 130.083  0.00  0.00    +0.056 C 
ATOM     14  O   LIG A   1      -7.550   3.867 133.573  0.00  0.00    -0.292 OA
ATOM     15  C   LIG A   1      -5.962   2.702 127.635  0.00  0.00    +0.044 C 
ATOM     16  C   LIG A   1      -6.313   2.547 126.111  0.00  0.00    +0.023 C 
ATOM     17  C   LIG A   1      -5.681   1.293 125.480  0.00  0.00    +0.016 C 
ATOM     18  C   LIG A   1      -5.848   3.822 125.326  0.00  0.00    +0.216 C 
ATOM     19  O   LIG A   1      -4.448   4.040 125.599  0.00  0.00    -0.456 OA
ATOM     20  C   LIG A   1      -4.082   4.219 126.892  0.00  0.00    +0.308 C 
ATOM     21  C   LIG A   1      -5.153   3.946 127.927  0.00  0.00    +0.133 C 
ATOM     22  O   LIG A   1      -2.964   4.624 127.189  0.00  0.00    -0.251 OA
ATOM     23  C   LIG A   1      -7.858   2.481 126.114  0.00  0.00    +0.056 C 
ATOM     24  C   LIG A   1      -8.281   1.836 127.437  0.00  0.00    +0.189 C 
ENDROOT
BRANCH  18  25
ATOM     25  C   LIG A   1      -6.088   3.794 123.831  0.00  0.00    +0.031 A 
ATOM     26  C   LIG A   1      -5.284   4.345 122.848  0.00  0.00    +0.202 A 
ATOM     27  O   LIG A   1      -5.814   4.160 121.613  0.00  0.00    -0.471 OA
ATOM     28  C   LIG A   1      -6.975   3.484 121.780  0.00  0.00    +0.195 A 
ATOM     29  C   LIG A   1      -7.194   3.237 123.115  0.00  0.00    +0.048 A 
ENDBRANCH  18  25
BRANCH  13  30
ATOM     30  C   LIG A   1      -9.702   4.418 130.027  0.00  0.00    +0.227 C 
BRANCH  30  31
ATOM     31  O   LIG A   1     -10.265   4.198 131.320  0.00  0.00    -0.380 OA
ATOM     32  H   LIG A   1     -11.059   3.638 131.192  0.00  0.00    +0.210 HD
ENDBRANCH  30  31
BRANCH  30  33
ATOM     33  C   LIG A   1     -10.256   5.720 129.362  0.00  0.00    +0.336 C 
ATOM     34  O   LIG A   1      -9.607   6.623 128.849  0.00  0.00    -0.248 OA
BRANCH  33  35
ATOM     35  O   LIG A   1     -11.611   5.613 129.322  0.00  0.00    -0.466 OA
ATOM     36  C   LIG A   1     -12.249   6.854 129.597  0.00  0.00    +0.280 C 
ENDBRANCH  33  35
ENDBRANCH  30  33
ENDBRANCH  13  30
BRANCH  24  37
ATOM     37  O   LIG A   1      -8.378   0.415 127.264  0.00  0.00    -0.461 OA
BRANCH  37  38
ATOM     38  C   LIG A   1      -9.102   0.038 126.169  0.00  0.00    +0.304 C 
ATOM     39  C   LIG A   1      -8.419  -1.057 125.408  0.00  0.00    +0.136 C 
ATOM     40  O   LIG A   1     -10.162   0.537 125.813  0.00  0.00    -0.251 OA
ENDBRANCH  37  38
ENDBRANCH  24  37
TORSDOF 7
ENDMDL
MODEL 5
REMARK VINA RESULT:      -7.5      2.849      6.420
REMARK  Name = NuBBE_1464
REMARK  14 active torsions:
REMARK  status: ('A' for Active; 'I' for Inactive)
REMARK    1  A    between atoms: C_1  and  C_2
REMARK    2  A    between atoms: C_4  and  C_5
REMARK    3  A    between atoms: C_10  and  C_11
REMARK    4  A    between atoms: C_10  and  C_12
REMARK    5  A    between atoms: C_13  and  C_15
REMARK    6  A    between atoms: C_15  and  O_17
REMARK    7  A    between atoms: C_15  and  C_18
REMARK    8  A    between atoms: C_18  and  O_19
REMARK    9  A    between atoms: O_19  and  C_20
REMARK   10  A    between atoms: C_24  and  C_25
REMARK   11  A    between atoms: C_26  and  C_28
REMARK   12  A    between atoms: C_38  and  O_40
REMARK   13  A    between atoms: O_40  and  C_41
REMARK   14  A    between atoms: C_41  and  C_42
REMARK                            x       y       z     vdW  Elec       q    Type
REMARK                         _______ _______ _______ _____ _____    ______ ____
ROOT
ATOM      1  C   LIG A   1      -8.428   2.712 129.100  0.00  0.00    +0.057 C 
ATOM      2  C   LIG A   1      -7.360   1.669 129.132  0.00  0.00    +0.125 C 
ATOM      3  C   LIG A   1      -6.521   1.178 130.309  0.00  0.00    +0.070 C 
ATOM      4  C   LIG A   1      -6.804  -0.355 130.387  0.00  0.00    +0.045 C 
ATOM      5  C   LIG A   1      -7.865  -0.576 131.499  0.00  0.00    +0.020 C 
ATOM      6  C   LIG A   1      -7.548  -0.620 129.082  0.00  0.00    +0.109 C 
ATOM      7  O   LIG A   1      -7.814   0.522 128.351  0.00  0.00    -0.488 OA
ATOM      8  C   LIG A   1      -7.854  -1.828 128.606  0.00  0.00    +0.088 C 
ATOM      9  C   LIG A   1      -7.086  -2.925 129.224  0.00  0.00    +0.165 C 
ATOM     10  C   LIG A   1      -5.607  -2.596 129.506  0.00  0.00    +0.034 C 
ATOM     11  C   LIG A   1      -4.956  -2.227 128.139  0.00  0.00    +0.019 C 
ATOM     12  C   LIG A   1      -4.861  -3.887 129.914  0.00  0.00    +0.019 C 
ATOM     13  C   LIG A   1      -5.547  -1.350 130.520  0.00  0.00    +0.056 C 
ATOM     14  O   LIG A   1      -7.604  -4.022 129.385  0.00  0.00    -0.292 OA
ATOM     15  C   LIG A   1      -5.859   1.981 129.154  0.00  0.00    +0.044 C 
ATOM     16  C   LIG A   1      -5.215   3.263 129.796  0.00  0.00    +0.023 C 
ATOM     17  C   LIG A   1      -6.053   4.533 129.557  0.00  0.00    +0.016 C 
ATOM     18  C   LIG A   1      -3.770   3.473 129.226  0.00  0.00    +0.216 C 
ATOM     19  O   LIG A   1      -3.846   3.499 127.786  0.00  0.00    -0.456 OA
ATOM     20  C   LIG A   1      -4.357   2.406 127.166  0.00  0.00    +0.308 C 
ATOM     21  C   LIG A   1      -4.999   1.374 128.068  0.00  0.00    +0.133 C 
ATOM     22  O   LIG A   1      -4.256   2.254 125.954  0.00  0.00    -0.251 OA
ATOM     23  C   LIG A   1      -5.128   2.897 131.295  0.00  0.00    +0.056 C 
ATOM     24  C   LIG A   1      -6.295   1.953 131.598  0.00  0.00    +0.189 C 
ENDROOT
BRANCH  18  25
ATOM     25  C   LIG A   1      -3.040   4.701 129.730  0.00  0.00    +0.031 A 
ATOM     26  C   LIG A   1      -2.585   5.768 128.974  0.00  0.00    +0.202 A 
ATOM     27  O   LIG A   1      -1.947   6.684 129.744  0.00  0.00    -0.471 OA
ATOM     28  C   LIG A   1      -1.980   6.222 131.016  0.00  0.00    +0.195 A 
ATOM     29  C   LIG A   1      -2.633   5.013 131.066  0.00  0.00    +0.048 A 
ENDBRANCH  18  25
BRANCH  13  30
ATOM     30  C   LIG A   1      -5.190  -1.794 131.975  0.00  0.00    +0.227 C 
BRANCH  30  31
ATOM     31  O   LIG A   1      -5.766  -3.071 132.244  0.00  0.00    -0.380 OA
ATOM     32  H   LIG A   1      -6.733  -2.978 132.120  0.00  0.00    +0.210 HD
ENDBRANCH  30  31
BRANCH  30  33
ATOM     33  C   LIG A   1      -3.698  -1.715 132.438  0.00  0.00    +0.336 C 
ATOM     34  O   LIG A   1      -2.883  -2.629 132.466  0.00  0.00    -0.248 OA
BRANCH  33  35
ATOM     35  O   LIG A   1      -3.413  -0.407 132.677  0.00  0.00    -0.466 OA
ATOM     36  C   LIG A   1      -4.042   0.065 133.863  0.00  0.00    +0.280 C 
ENDBRANCH  33  35
ENDBRANCH  30  33
ENDBRANCH  13  30
BRANCH  24  37
ATOM     37  O   LIG A   1      -7.434   2.720 132.014  0.00  0.00    -0.461 OA
BRANCH  37  38
ATOM     38  C   LIG A   1      -7.722   2.607 133.344  0.00  0.00    +0.304 C 
ATOM     39  C   LIG A   1      -8.878   3.478 133.734  0.00  0.00    +0.136 C 
ATOM     40  O   LIG A   1      -7.110   1.913 134.147  0.00  0.00    -0.251 OA
ENDBRANCH  37  38
ENDBRANCH  24  37
TORSDOF 7
ENDMDL
MODEL 6
REMARK VINA RESULT:      -7.4      2.215      7.106
REMARK  Name = NuBBE_1464
REMARK  14 active torsions:
REMARK  status: ('A' for Active; 'I' for Inactive)
REMARK    1  A    between atoms: C_1  and  C_2
REMARK    2  A    between atoms: C_4  and  C_5
REMARK    3  A    between atoms: C_10  and  C_11
REMARK    4  A    between atoms: C_10  and  C_12
REMARK    5  A    between atoms: C_13  and  C_15
REMARK    6  A    between atoms: C_15  and  O_17
REMARK    7  A    between atoms: C_15  and  C_18
REMARK    8  A    between atoms: C_18  and  O_19
REMARK    9  A    between atoms: O_19  and  C_20
REMARK   10  A    between atoms: C_24  and  C_25
REMARK   11  A    between atoms: C_26  and  C_28
REMARK   12  A    between atoms: C_38  and  O_40
REMARK   13  A    between atoms: O_40  and  C_41
REMARK   14  A    between atoms: C_41  and  C_42
REMARK                            x       y       z     vdW  Elec       q    Type
REMARK                         _______ _______ _______ _____ _____    ______ ____
ROOT
ATOM      1  C   LIG A   1      -3.861   1.493 129.571  0.00  0.00    +0.057 C 
ATOM      2  C   LIG A   1      -4.854   2.581 129.822  0.00  0.00    +0.125 C 
ATOM      3  C   LIG A   1      -6.376   2.546 129.713  0.00  0.00    +0.070 C 
ATOM      4  C   LIG A   1      -6.885   2.950 131.133  0.00  0.00    +0.045 C 
ATOM      5  C   LIG A   1      -7.253   1.643 131.885  0.00  0.00    +0.020 C 
ATOM      6  C   LIG A   1      -5.610   3.442 131.812  0.00  0.00    +0.109 C 
ATOM      7  O   LIG A   1      -4.472   3.279 131.046  0.00  0.00    -0.488 OA
ATOM      8  C   LIG A   1      -5.561   4.060 132.993  0.00  0.00    +0.088 C 
ATOM      9  C   LIG A   1      -6.859   4.597 133.441  0.00  0.00    +0.165 C 
ATOM     10  C   LIG A   1      -7.721   5.213 132.322  0.00  0.00    +0.034 C 
ATOM     11  C   LIG A   1      -6.886   6.366 131.689  0.00  0.00    +0.019 C 
ATOM     12  C   LIG A   1      -8.925   5.953 132.947  0.00  0.00    +0.019 C 
ATOM     13  C   LIG A   1      -8.033   4.072 131.233  0.00  0.00    +0.056 C 
ATOM     14  O   LIG A   1      -7.136   4.618 134.633  0.00  0.00    -0.292 OA
ATOM     15  C   LIG A   1      -5.537   3.388 128.711  0.00  0.00    +0.044 C 
ATOM     16  C   LIG A   1      -5.861   2.845 127.272  0.00  0.00    +0.023 C 
ATOM     17  C   LIG A   1      -4.744   1.945 126.711  0.00  0.00    +0.016 C 
ATOM     18  C   LIG A   1      -6.108   4.046 126.295  0.00  0.00    +0.216 C 
ATOM     19  O   LIG A   1      -4.968   4.929 126.360  0.00  0.00    -0.456 OA
ATOM     20  C   LIG A   1      -4.657   5.462 127.567  0.00  0.00    +0.308 C 
ATOM     21  C   LIG A   1      -5.405   4.894 128.754  0.00  0.00    +0.133 C 
ATOM     22  O   LIG A   1      -3.853   6.382 127.670  0.00  0.00    -0.251 OA
ATOM     23  C   LIG A   1      -7.183   2.072 127.480  0.00  0.00    +0.056 C 
ATOM     24  C   LIG A   1      -7.168   1.526 128.910  0.00  0.00    +0.189 C 
ENDROOT
BRANCH  18  25
ATOM     25  C   LIG A   1      -6.393   3.671 124.856  0.00  0.00    +0.031 A 
ATOM     26  C   LIG A   1      -5.647   4.015 123.742  0.00  0.00    +0.202 A 
ATOM     27  O   LIG A   1      -6.206   3.534 122.603  0.00  0.00    -0.471 OA
ATOM     28  C   LIG A   1      -7.329   2.869 122.965  0.00  0.00    +0.195 A 
ATOM     29  C   LIG A   1      -7.494   2.922 124.329  0.00  0.00    +0.048 A 
ENDBRANCH  18  25
BRANCH  13  30
ATOM     30  C   LIG A   1      -9.494   3.531 131.352  0.00  0.00    +0.227 C 
BRANCH  30  31
ATOM     31  O   LIG A   1      -9.958   3.688 132.693  0.00  0.00    -0.380 OA
ATOM     32  H   LIG A   1      -9.206   3.468 133.281  0.00  0.00    +0.210 HD
ENDBRANCH  30  31
BRANCH  30  33
ATOM     33  C   LIG A   1     -10.556   4.002 130.306  0.00  0.00    +0.336 C 
ATOM     34  O   LIG A   1     -11.704   3.593 130.181  0.00  0.00    -0.248 OA
BRANCH  33  35
ATOM     35  O   LIG A   1     -10.028   5.061 129.635  0.00  0.00    -0.466 OA
ATOM     36  C   LIG A   1     -10.849   6.218 129.739  0.00  0.00    +0.280 C 
ENDBRANCH  33  35
ENDBRANCH  30  33
ENDBRANCH  13  30
BRANCH  24  37
ATOM     37  O   LIG A   1      -6.585   0.215 128.914  0.00  0.00    -0.461 OA
BRANCH  37  38
ATOM     38  C   LIG A   1      -7.494  -0.796 129.038  0.00  0.00    +0.304 C 
ATOM     39  C   LIG A   1      -7.633  -1.572 127.764  0.00  0.00    +0.136 C 
ATOM     40  O   LIG A   1      -8.151  -1.040 130.042  0.00  0.00    -0.251 OA
ENDBRANCH  37  38
ENDBRANCH  24  37
TORSDOF 7
ENDMDL
MODEL 7
REMARK VINA RESULT:      -7.4      2.204      5.582
REMARK  Name = NuBBE_1464
REMARK  14 active torsions:
REMARK  status: ('A' for Active; 'I' for Inactive)
REMARK    1  A    between atoms: C_1  and  C_2
REMARK    2  A    between atoms: C_4  and  C_5
REMARK    3  A    between atoms: C_10  and  C_11
REMARK    4  A    between atoms: C_10  and  C_12
REMARK    5  A    between atoms: C_13  and  C_15
REMARK    6  A    between atoms: C_15  and  O_17
REMARK    7  A    between atoms: C_15  and  C_18
REMARK    8  A    between atoms: C_18  and  O_19
REMARK    9  A    between atoms: O_19  and  C_20
REMARK   10  A    between atoms: C_24  and  C_25
REMARK   11  A    between atoms: C_26  and  C_28
REMARK   12  A    between atoms: C_38  and  O_40
REMARK   13  A    between atoms: O_40  and  C_41
REMARK   14  A    between atoms: C_41  and  C_42
REMARK                            x       y       z     vdW  Elec       q    Type
REMARK                         _______ _______ _______ _____ _____    ______ ____
ROOT
ATOM      1  C   LIG A   1      -8.799   3.639 129.525  0.00  0.00    +0.057 C 
ATOM      2  C   LIG A   1      -7.987   2.893 128.518  0.00  0.00    +0.125 C 
ATOM      3  C   LIG A   1      -6.898   1.845 128.736  0.00  0.00    +0.070 C 
ATOM      4  C   LIG A   1      -7.405   0.581 127.972  0.00  0.00    +0.045 C 
ATOM      5  C   LIG A   1      -8.047  -0.369 129.018  0.00  0.00    +0.020 C 
ATOM      6  C   LIG A   1      -8.582   1.130 127.172  0.00  0.00    +0.109 C 
ATOM      7  O   LIG A   1      -8.875   2.452 127.446  0.00  0.00    -0.488 OA
ATOM      8  C   LIG A   1      -9.241   0.462 126.223  0.00  0.00    +0.088 C 
ATOM      9  C   LIG A   1      -8.516  -0.714 125.707  0.00  0.00    +0.165 C 
ATOM     10  C   LIG A   1      -6.996  -0.515 125.551  0.00  0.00    +0.034 C 
ATOM     11  C   LIG A   1      -6.793   0.676 124.567  0.00  0.00    +0.019 C 
ATOM     12  C   LIG A   1      -6.396  -1.713 124.780  0.00  0.00    +0.019 C 
ATOM     13  C   LIG A   1      -6.376  -0.174 126.994  0.00  0.00    +0.056 C 
ATOM     14  O   LIG A   1      -9.134  -1.709 125.353  0.00  0.00    -0.292 OA
ATOM     15  C   LIG A   1      -6.537   3.243 128.159  0.00  0.00    +0.044 C 
ATOM     16  C   LIG A   1      -5.498   3.892 129.143  0.00  0.00    +0.023 C 
ATOM     17  C   LIG A   1      -6.129   4.960 130.055  0.00  0.00    +0.016 C 
ATOM     18  C   LIG A   1      -4.319   4.526 128.328  0.00  0.00    +0.216 C 
ATOM     19  O   LIG A   1      -4.874   5.438 127.358  0.00  0.00    -0.456 OA
ATOM     20  C   LIG A   1      -5.751   4.934 126.454  0.00  0.00    +0.308 C 
ATOM     21  C   LIG A   1      -6.220   3.517 126.706  0.00  0.00    +0.133 C 
ATOM     22  O   LIG A   1      -6.096   5.579 125.471  0.00  0.00    -0.251 OA
ATOM     23  C   LIG A   1      -4.973   2.678 129.946  0.00  0.00    +0.056 C 
ATOM     24  C   LIG A   1      -6.115   1.661 130.026  0.00  0.00    +0.189 C 
ENDROOT
BRANCH  18  25
ATOM     25  C   LIG A   1      -3.256   5.225 129.150  0.00  0.00    +0.031 A 
ATOM     26  C   LIG A   1      -2.338   6.159 128.702  0.00  0.00    +0.202 A 
ATOM     27  O   LIG A   1      -1.512   6.561 129.700  0.00  0.00    -0.471 OA
ATOM     28  C   LIG A   1      -1.885   5.888 130.815  0.00  0.00    +0.195 A 
ATOM     29  C   LIG A   1      -2.944   5.056 130.536  0.00  0.00    +0.048 A 
ENDBRANCH  18  25
BRANCH  13  30
ATOM     30  C   LIG A   1      -5.629  -1.398 127.617  0.00  0.00    +0.227 C 
BRANCH  30  31
ATOM     31  O   LIG A   1      -4.589  -0.940 128.480  0.00  0.00    -0.380 OA
ATOM     32  H   LIG A   1      -5.016  -0.402 129.178  0.00  0.00    +0.210 HD
ENDBRANCH  30  31
BRANCH  30  33
ATOM     33  C   LIG A   1      -6.474  -2.538 128.273  0.00  0.00    +0.336 C 
ATOM     34  O   LIG A   1      -7.456  -3.098 127.799  0.00  0.00    -0.248 OA
BRANCH  33  35
ATOM     35  O   LIG A   1      -5.843  -2.907 129.419  0.00  0.00    -0.466 OA
ATOM     36  C   LIG A   1      -6.693  -3.662 130.273  0.00  0.00    +0.280 C 
ENDBRANCH  33  35
ENDBRANCH  30  33
ENDBRANCH  13  30
BRANCH  24  37
ATOM     37  O   LIG A   1      -6.890   1.907 131.209  0.00  0.00    -0.461 OA
BRANCH  37  38
ATOM     38  C   LIG A   1      -6.693   0.989 132.201  0.00  0.00    +0.304 C 
ATOM     39  C   LIG A   1      -5.782  -0.114 131.758  0.00  0.00    +0.136 C 
ATOM     40  O   LIG A   1      -7.208   1.023 133.311  0.00  0.00    -0.251 OA
ENDBRANCH  37  38
ENDBRANCH  24  37
TORSDOF 7
ENDMDL
MODEL 8
REMARK VINA RESULT:      -7.3      1.699      7.065
REMARK  Name = NuBBE_1464
REMARK  14 active torsions:
REMARK  status: ('A' for Active; 'I' for Inactive)
REMARK    1  A    between atoms: C_1  and  C_2
REMARK    2  A    between atoms: C_4  and  C_5
REMARK    3  A    between atoms: C_10  and  C_11
REMARK    4  A    between atoms: C_10  and  C_12
REMARK    5  A    between atoms: C_13  and  C_15
REMARK    6  A    between atoms: C_15  and  O_17
REMARK    7  A    between atoms: C_15  and  C_18
REMARK    8  A    between atoms: C_18  and  O_19
REMARK    9  A    between atoms: O_19  and  C_20
REMARK   10  A    between atoms: C_24  and  C_25
REMARK   11  A    between atoms: C_26  and  C_28
REMARK   12  A    between atoms: C_38  and  O_40
REMARK   13  A    between atoms: O_40  and  C_41
REMARK   14  A    between atoms: C_41  and  C_42
REMARK                            x       y       z     vdW  Elec       q    Type
REMARK                         _______ _______ _______ _____ _____    ______ ____
ROOT
ATOM      1  C   LIG A   1      -4.232   2.126 127.020  0.00  0.00    +0.057 C 
ATOM      2  C   LIG A   1      -5.509   2.488 127.703  0.00  0.00    +0.125 C 
ATOM      3  C   LIG A   1      -6.303   1.708 128.748  0.00  0.00    +0.070 C 
ATOM      4  C   LIG A   1      -6.393   2.669 129.976  0.00  0.00    +0.045 C 
ATOM      5  C   LIG A   1      -5.297   2.236 130.987  0.00  0.00    +0.020 C 
ATOM      6  C   LIG A   1      -5.889   3.988 129.399  0.00  0.00    +0.109 C 
ATOM      7  O   LIG A   1      -5.439   3.892 128.097  0.00  0.00    -0.488 OA
ATOM      8  C   LIG A   1      -5.942   5.167 130.023  0.00  0.00    +0.088 C 
ATOM      9  C   LIG A   1      -6.877   5.198 131.163  0.00  0.00    +0.165 C 
ATOM     10  C   LIG A   1      -8.190   4.422 130.939  0.00  0.00    +0.034 C 
ATOM     11  C   LIG A   1      -8.884   5.055 129.696  0.00  0.00    +0.019 C 
ATOM     12  C   LIG A   1      -9.175   4.735 132.088  0.00  0.00    +0.019 C 
ATOM     13  C   LIG A   1      -7.829   2.879 130.667  0.00  0.00    +0.056 C 
ATOM     14  O   LIG A   1      -6.625   5.884 132.145  0.00  0.00    -0.292 OA
ATOM     15  C   LIG A   1      -6.878   1.911 127.318  0.00  0.00    +0.044 C 
ATOM     16  C   LIG A   1      -7.114   0.481 126.711  0.00  0.00    +0.023 C 
ATOM     17  C   LIG A   1      -6.026   0.078 125.698  0.00  0.00    +0.016 C 
ATOM     18  C   LIG A   1      -8.521   0.423 126.022  0.00  0.00    +0.216 C 
ATOM     19  O   LIG A   1      -8.606   1.501 125.066  0.00  0.00    -0.456 OA
ATOM     20  C   LIG A   1      -8.448   2.764 125.532  0.00  0.00    +0.308 C 
ATOM     21  C   LIG A   1      -7.977   2.888 126.965  0.00  0.00    +0.133 C 
ATOM     22  O   LIG A   1      -8.721   3.738 124.839  0.00  0.00    -0.251 OA
ATOM     23  C   LIG A   1      -7.115  -0.432 127.959  0.00  0.00    +0.056 C 
ATOM     24  C   LIG A   1      -6.186   0.212 128.991  0.00  0.00    +0.189 C 
ENDROOT
BRANCH  18  25
ATOM     25  C   LIG A   1      -8.869  -0.891 125.355  0.00  0.00    +0.031 A 
ATOM     26  C   LIG A   1      -9.035  -1.119 123.999  0.00  0.00    +0.202 A 
ATOM     27  O   LIG A   1      -9.372  -2.410 123.751  0.00  0.00    -0.471 OA
ATOM     28  C   LIG A   1      -9.430  -3.039 124.949  0.00  0.00    +0.195 A 
ATOM     29  C   LIG A   1      -9.134  -2.159 125.964  0.00  0.00    +0.048 A 
ENDBRANCH  18  25
BRANCH  13  30
ATOM     30  C   LIG A   1      -8.115   1.981 131.914  0.00  0.00    +0.227 C 
BRANCH  30  31
ATOM     31  O   LIG A   1      -8.036   2.767 133.102  0.00  0.00    -0.380 OA
ATOM     32  H   LIG A   1      -8.864   2.611 133.602  0.00  0.00    +0.210 HD
ENDBRANCH  30  31
BRANCH  30  33
ATOM     33  C   LIG A   1      -9.381   1.063 131.902  0.00  0.00    +0.336 C 
ATOM     34  O   LIG A   1     -10.546   1.406 132.063  0.00  0.00    -0.248 OA
BRANCH  33  35
ATOM     35  O   LIG A   1      -8.978  -0.184 131.538  0.00  0.00    -0.466 OA
ATOM     36  C   LIG A   1      -7.838  -0.609 132.275  0.00  0.00    +0.280 C 
ENDBRANCH  33  35
ENDBRANCH  30  33
ENDBRANCH  13  30
BRANCH  24  37
ATOM     37  O   LIG A   1      -4.855  -0.296 128.816  0.00  0.00    -0.461 OA
BRANCH  37  38
ATOM     38  C   LIG A   1      -4.537  -1.321 129.661  0.00  0.00    +0.304 C 
ATOM     39  C   LIG A   1      -4.350  -2.609 128.920  0.00  0.00    +0.136 C 
ATOM     40  O   LIG A   1      -4.442  -1.233 130.879  0.00  0.00    -0.251 OA
ENDBRANCH  37  38
ENDBRANCH  24  37
TORSDOF 7
ENDMDL
MODEL 9
REMARK VINA RESULT:      -7.3      2.197      7.198
REMARK  Name = NuBBE_1464
REMARK  14 active torsions:
REMARK  status: ('A' for Active; 'I' for Inactive)
REMARK    1  A    between atoms: C_1  and  C_2
REMARK    2  A    between atoms: C_4  and  C_5
REMARK    3  A    between atoms: C_10  and  C_11
REMARK    4  A    between atoms: C_10  and  C_12
REMARK    5  A    between atoms: C_13  and  C_15
REMARK    6  A    between atoms: C_15  and  O_17
REMARK    7  A    between atoms: C_15  and  C_18
REMARK    8  A    between atoms: C_18  and  O_19
REMARK    9  A    between atoms: O_19  and  C_20
REMARK   10  A    between atoms: C_24  and  C_25
REMARK   11  A    between atoms: C_26  and  C_28
REMARK   12  A    between atoms: C_38  and  O_40
REMARK   13  A    between atoms: O_40  and  C_41
REMARK   14  A    between atoms: C_41  and  C_42
REMARK                            x       y       z     vdW  Elec       q    Type
REMARK                         _______ _______ _______ _____ _____    ______ ____
ROOT
ATOM      1  C   LIG A   1      -9.900   0.798 125.856  0.00  0.00    +0.057 C 
ATOM      2  C   LIG A   1      -8.643   1.139 126.586  0.00  0.00    +0.125 C 
ATOM      3  C   LIG A   1      -7.357   1.770 126.058  0.00  0.00    +0.070 C 
ATOM      4  C   LIG A   1      -7.169   3.063 126.912  0.00  0.00    +0.045 C 
ATOM      5  C   LIG A   1      -7.694   4.258 126.071  0.00  0.00    +0.020 C 
ATOM      6  C   LIG A   1      -8.207   2.882 128.016  0.00  0.00    +0.109 C 
ATOM      7  O   LIG A   1      -9.003   1.764 127.855  0.00  0.00    -0.488 OA
ATOM      8  C   LIG A   1      -8.314   3.652 129.101  0.00  0.00    +0.088 C 
ATOM      9  C   LIG A   1      -7.116   4.466 129.376  0.00  0.00    +0.165 C 
ATOM     10  C   LIG A   1      -5.777   3.752 129.107  0.00  0.00    +0.034 C 
ATOM     11  C   LIG A   1      -5.749   2.486 130.015  0.00  0.00    +0.019 C 
ATOM     12  C   LIG A   1      -4.617   4.609 129.663  0.00  0.00    +0.019 C 
ATOM     13  C   LIG A   1      -5.722   3.341 127.554  0.00  0.00    +0.056 C 
ATOM     14  O   LIG A   1      -7.232   5.579 129.872  0.00  0.00    -0.292 OA
ATOM     15  C   LIG A   1      -7.366   0.290 126.534  0.00  0.00    +0.044 C 
ATOM     16  C   LIG A   1      -6.918  -0.589 125.310  0.00  0.00    +0.023 C 
ATOM     17  C   LIG A   1      -8.100  -1.302 124.626  0.00  0.00    +0.016 C 
ATOM     18  C   LIG A   1      -5.863  -1.650 125.776  0.00  0.00    +0.216 C 
ATOM     19  O   LIG A   1      -6.422  -2.397 126.877  0.00  0.00    -0.456 OA
ATOM     20  C   LIG A   1      -6.795  -1.702 127.980  0.00  0.00    +0.308 C 
ATOM     21  C   LIG A   1      -6.790  -0.194 127.846  0.00  0.00    +0.133 C 
ATOM     22  O   LIG A   1      -7.069  -2.271 129.030  0.00  0.00    -0.251 OA
ATOM     23  C   LIG A   1      -6.237   0.437 124.375  0.00  0.00    +0.056 C 
ATOM     24  C   LIG A   1      -6.931   1.783 124.598  0.00  0.00    +0.189 C 
ENDROOT
BRANCH  18  25
ATOM     25  C   LIG A   1      -5.369  -2.597 124.703  0.00  0.00    +0.031 A 
ATOM     26  C   LIG A   1      -5.350  -2.371 123.337  0.00  0.00    +0.202 A 
ATOM     27  O   LIG A   1      -4.866  -3.445 122.664  0.00  0.00    -0.471 OA
ATOM     28  C   LIG A   1      -4.565  -4.387 123.589  0.00  0.00    +0.195 A 
ATOM     29  C   LIG A   1      -4.854  -3.924 124.851  0.00  0.00    +0.048 A 
ENDBRANCH  18  25
BRANCH  13  30
ATOM     30  C   LIG A   1      -4.790   4.287 126.730  0.00  0.00    +0.227 C 
BRANCH  30  31
ATOM     31  O   LIG A   1      -5.264   5.630 126.821  0.00  0.00    -0.380 OA
ATOM     32  H   LIG A   1      -4.496   6.187 127.065  0.00  0.00    +0.210 HD
ENDBRANCH  30  31
BRANCH  30  33
ATOM     33  C   LIG A   1      -3.245   4.196 126.950  0.00  0.00    +0.336 C 
ATOM     34  O   LIG A   1      -2.510   5.062 127.411  0.00  0.00    -0.248 OA
BRANCH  33  35
ATOM     35  O   LIG A   1      -2.866   2.920 126.670  0.00  0.00    -0.466 OA
ATOM     36  C   LIG A   1      -1.451   2.792 126.596  0.00  0.00    +0.280 C 
ENDBRANCH  33  35
ENDBRANCH  30  33
ENDBRANCH  13  30
BRANCH  24  37
ATOM     37  O   LIG A   1      -8.027   1.913 123.681  0.00  0.00    -0.461 OA
BRANCH  37  38
ATOM     38  C   LIG A   1      -7.859   2.902 122.754  0.00  0.00    +0.304 C 
ATOM     39  C   LIG A   1      -6.455   3.424 122.752  0.00  0.00    +0.136 C 
ATOM     40  O   LIG A   1      -8.737   3.347 122.026  0.00  0.00    -0.251 OA
ENDBRANCH  37  38
ENDBRANCH  24  37
TORSDOF 7
ENDMDL
