MODEL 1
REMARK VINA RESULT:      -6.9      0.000      0.000
REMARK  Name = NuBBE_2276
REMARK  8 active torsions:
REMARK  status: ('A' for Active; 'I' for Inactive)
REMARK    1  A    between atoms: C_5  and  O_6
REMARK    2  A    between atoms: O_6  and  C_7
REMARK    3  A    between atoms: C_9  and  C_10
REMARK    4  A    between atoms: C_11  and  C_12
REMARK    5  A    between atoms: C_15  and  O_16
REMARK    6  A    between atoms: O_16  and  C_17
REMARK    7  A    between atoms: C_18  and  O_19
REMARK    8  A    between atoms: O_19  and  C_20
REMARK                            x       y       z     vdW  Elec       q    Type
REMARK                         _______ _______ _______ _____ _____    ______ ____
ROOT
ATOM      1  C   LIG A   1      -8.746   6.633 131.231  0.00  0.00    +0.047 C 
ATOM      2  C   LIG A   1      -7.554   7.116 130.848  0.00  0.00    +0.012 C 
ENDROOT
BRANCH   1   9
ATOM      3  O   LIG A   1     -13.379   7.073 131.680  0.00  0.00    -0.245 OA
ATOM      4  C   LIG A   1     -12.371   7.212 130.997  0.00  0.00    +0.341 A 
ATOM      5  O   LIG A   1     -11.126   6.849 131.442  0.00  0.00    -0.423 OA
ATOM      6  C   LIG A   1     -12.473   7.780 129.647  0.00  0.00    +0.137 A 
ATOM      7  C   LIG A   1     -11.381   7.931 128.881  0.00  0.00    +0.130 A 
ATOM      8  C   LIG A   1     -10.097   7.533 129.385  0.00  0.00    +0.092 A 
ATOM      9  C   LIG A   1      -9.995   7.028 130.620  0.00  0.00    +0.135 A 
BRANCH   7  10
ATOM     10  O   LIG A   1     -11.324   8.456 127.614  0.00  0.00    -0.495 OA
ATOM     11  C   LIG A   1     -10.854   7.598 126.579  0.00  0.00    +0.277 C 
ENDBRANCH   7  10
ENDBRANCH   1   9
BRANCH   2  12
ATOM     12  C   LIG A   1      -6.303   6.690 131.463  0.00  0.00    -0.021 A 
ATOM     13  C   LIG A   1      -6.339   5.916 132.619  0.00  0.00    +0.012 A 
ATOM     14  C   LIG A   1      -5.151   5.523 133.232  0.00  0.00    +0.050 A 
ATOM     15  C   LIG A   1      -3.908   5.894 132.698  0.00  0.00    +0.162 A 
ATOM     16  C   LIG A   1      -3.869   6.696 131.543  0.00  0.00    +0.162 A 
ATOM     17  C   LIG A   1      -5.071   7.073 130.925  0.00  0.00    +0.057 A 
BRANCH  15  18
ATOM     18  O   LIG A   1      -2.721   5.477 133.233  0.00  0.00    -0.491 OA
ATOM     19  C   LIG A   1      -2.253   4.181 132.893  0.00  0.00    +0.277 C 
ENDBRANCH  15  18
BRANCH  16  20
ATOM     20  O   LIG A   1      -2.746   7.139 130.888  0.00  0.00    -0.491 OA
ATOM     21  C   LIG A   1      -2.296   6.352 129.789  0.00  0.00    +0.277 C 
ENDBRANCH  16  20
ENDBRANCH   2  12
TORSDOF 5
ENDMDL
MODEL 2
REMARK VINA RESULT:      -6.7      1.940      3.222
REMARK  Name = NuBBE_2276
REMARK  8 active torsions:
REMARK  status: ('A' for Active; 'I' for Inactive)
REMARK    1  A    between atoms: C_5  and  O_6
REMARK    2  A    between atoms: O_6  and  C_7
REMARK    3  A    between atoms: C_9  and  C_10
REMARK    4  A    between atoms: C_11  and  C_12
REMARK    5  A    between atoms: C_15  and  O_16
REMARK    6  A    between atoms: O_16  and  C_17
REMARK    7  A    between atoms: C_18  and  O_19
REMARK    8  A    between atoms: O_19  and  C_20
REMARK                            x       y       z     vdW  Elec       q    Type
REMARK                         _______ _______ _______ _____ _____    ______ ____
ROOT
ATOM      1  C   LIG A   1      -9.729   6.882 130.841  0.00  0.00    +0.047 C 
ATOM      2  C   LIG A   1      -8.419   6.599 130.913  0.00  0.00    +0.012 C 
ENDROOT
BRANCH   1   9
ATOM      3  O   LIG A   1      -9.883   6.560 126.179  0.00  0.00    -0.245 OA
ATOM      4  C   LIG A   1     -10.357   7.003 127.219  0.00  0.00    +0.341 A 
ATOM      5  O   LIG A   1      -9.810   6.738 128.448  0.00  0.00    -0.423 OA
ATOM      6  C   LIG A   1     -11.551   7.858 127.174  0.00  0.00    +0.137 A 
ATOM      7  C   LIG A   1     -12.078   8.360 128.302  0.00  0.00    +0.130 A 
ATOM      8  C   LIG A   1     -11.469   8.060 129.567  0.00  0.00    +0.092 A 
ATOM      9  C   LIG A   1     -10.390   7.271 129.617  0.00  0.00    +0.135 A 
BRANCH   7  10
ATOM     10  O   LIG A   1     -13.190   9.156 128.413  0.00  0.00    -0.495 OA
ATOM     11  C   LIG A   1     -13.204  10.103 129.477  0.00  0.00    +0.277 C 
ENDBRANCH   7  10
ENDBRANCH   1   9
BRANCH   2  12
ATOM     12  C   LIG A   1      -7.773   6.188 132.153  0.00  0.00    -0.021 A 
ATOM     13  C   LIG A   1      -8.557   5.816 133.240  0.00  0.00    +0.012 A 
ATOM     14  C   LIG A   1      -7.953   5.446 134.440  0.00  0.00    +0.050 A 
ATOM     15  C   LIG A   1      -6.558   5.436 134.571  0.00  0.00    +0.162 A 
ATOM     16  C   LIG A   1      -5.763   5.834 133.481  0.00  0.00    +0.162 A 
ATOM     17  C   LIG A   1      -6.379   6.191 132.272  0.00  0.00    +0.057 A 
BRANCH  15  18
ATOM     18  O   LIG A   1      -5.926   5.020 135.709  0.00  0.00    -0.491 OA
ATOM     19  C   LIG A   1      -5.820   5.935 136.789  0.00  0.00    +0.277 C 
ENDBRANCH  15  18
BRANCH  16  20
ATOM     20  O   LIG A   1      -4.391   5.875 133.435  0.00  0.00    -0.491 OA
ATOM     21  C   LIG A   1      -3.809   6.559 132.329  0.00  0.00    +0.277 C 
ENDBRANCH  16  20
ENDBRANCH   2  12
TORSDOF 5
ENDMDL
MODEL 3
REMARK VINA RESULT:      -6.6      1.343      2.452
REMARK  Name = NuBBE_2276
REMARK  8 active torsions:
REMARK  status: ('A' for Active; 'I' for Inactive)
REMARK    1  A    between atoms: C_5  and  O_6
REMARK    2  A    between atoms: O_6  and  C_7
REMARK    3  A    between atoms: C_9  and  C_10
REMARK    4  A    between atoms: C_11  and  C_12
REMARK    5  A    between atoms: C_15  and  O_16
REMARK    6  A    between atoms: O_16  and  C_17
REMARK    7  A    between atoms: C_18  and  O_19
REMARK    8  A    between atoms: O_19  and  C_20
REMARK                            x       y       z     vdW  Elec       q    Type
REMARK                         _______ _______ _______ _____ _____    ______ ____
ROOT
ATOM      1  C   LIG A   1      -8.870   7.055 130.543  0.00  0.00    +0.047 C 
ATOM      2  C   LIG A   1      -8.381   6.245 131.495  0.00  0.00    +0.012 C 
ENDROOT
BRANCH   1   9
ATOM      3  O   LIG A   1     -13.390   7.196 131.731  0.00  0.00    -0.245 OA
ATOM      4  C   LIG A   1     -12.534   7.118 130.856  0.00  0.00    +0.341 A 
ATOM      5  O   LIG A   1     -11.193   7.110 131.140  0.00  0.00    -0.423 OA
ATOM      6  C   LIG A   1     -12.934   7.022 129.447  0.00  0.00    +0.137 A 
ATOM      7  C   LIG A   1     -12.011   6.927 128.477  0.00  0.00    +0.130 A 
ATOM      8  C   LIG A   1     -10.616   6.917 128.819  0.00  0.00    +0.092 A 
ATOM      9  C   LIG A   1     -10.245   7.018 130.100  0.00  0.00    +0.135 A 
BRANCH   7  10
ATOM     10  O   LIG A   1     -12.235   6.844 127.126  0.00  0.00    -0.495 OA
ATOM     11  C   LIG A   1     -11.282   7.471 126.272  0.00  0.00    +0.277 C 
ENDBRANCH   7  10
ENDBRANCH   1   9
BRANCH   2  12
ATOM     12  C   LIG A   1      -6.996   6.310 131.943  0.00  0.00    -0.021 A 
ATOM     13  C   LIG A   1      -6.038   6.892 131.118  0.00  0.00    +0.012 A 
ATOM     14  C   LIG A   1      -4.706   6.939 131.523  0.00  0.00    +0.050 A 
ATOM     15  C   LIG A   1      -4.309   6.410 132.759  0.00  0.00    +0.162 A 
ATOM     16  C   LIG A   1      -5.272   5.800 133.585  0.00  0.00    +0.162 A 
ATOM     17  C   LIG A   1      -6.613   5.772 133.176  0.00  0.00    +0.057 A 
BRANCH  15  18
ATOM     18  O   LIG A   1      -3.025   6.491 133.220  0.00  0.00    -0.491 OA
ATOM     19  C   LIG A   1      -2.442   7.778 133.349  0.00  0.00    +0.277 C 
ENDBRANCH  15  18
BRANCH  16  20
ATOM     20  O   LIG A   1      -5.059   5.243 134.822  0.00  0.00    -0.491 OA
ATOM     21  C   LIG A   1      -6.207   5.058 135.646  0.00  0.00    +0.277 C 
ENDBRANCH  16  20
ENDBRANCH   2  12
TORSDOF 5
ENDMDL
MODEL 4
REMARK VINA RESULT:      -6.5      1.398      7.807
REMARK  Name = NuBBE_2276
REMARK  8 active torsions:
REMARK  status: ('A' for Active; 'I' for Inactive)
REMARK    1  A    between atoms: C_5  and  O_6
REMARK    2  A    between atoms: O_6  and  C_7
REMARK    3  A    between atoms: C_9  and  C_10
REMARK    4  A    between atoms: C_11  and  C_12
REMARK    5  A    between atoms: C_15  and  O_16
REMARK    6  A    between atoms: O_16  and  C_17
REMARK    7  A    between atoms: C_18  and  O_19
REMARK    8  A    between atoms: O_19  and  C_20
REMARK                            x       y       z     vdW  Elec       q    Type
REMARK                         _______ _______ _______ _____ _____    ______ ____
ROOT
ATOM      1  C   LIG A   1      -5.835   6.439 131.939  0.00  0.00    +0.047 C 
ATOM      2  C   LIG A   1      -6.705   6.844 131.001  0.00  0.00    +0.012 C 
ENDROOT
BRANCH   1   9
ATOM      3  O   LIG A   1      -1.687   6.896 134.049  0.00  0.00    -0.245 OA
ATOM      4  C   LIG A   1      -2.333   6.774 133.014  0.00  0.00    +0.341 A 
ATOM      5  O   LIG A   1      -3.701   6.689 133.008  0.00  0.00    -0.423 OA
ATOM      6  C   LIG A   1      -1.640   6.720 131.720  0.00  0.00    +0.137 A 
ATOM      7  C   LIG A   1      -2.332   6.597 130.577  0.00  0.00    +0.130 A 
ATOM      8  C   LIG A   1      -3.765   6.516 130.615  0.00  0.00    +0.092 A 
ATOM      9  C   LIG A   1      -4.401   6.550 131.791  0.00  0.00    +0.135 A 
BRANCH   7  10
ATOM     10  O   LIG A   1      -1.822   6.521 129.305  0.00  0.00    -0.495 OA
ATOM     11  C   LIG A   1      -2.750   6.609 128.229  0.00  0.00    +0.277 C 
ENDBRANCH   7  10
ENDBRANCH   1   9
BRANCH   2  12
ATOM     12  C   LIG A   1      -8.148   6.742 131.176  0.00  0.00    -0.021 A 
ATOM     13  C   LIG A   1      -8.656   6.100 132.301  0.00  0.00    +0.012 A 
ATOM     14  C   LIG A   1     -10.033   5.973 132.468  0.00  0.00    +0.050 A 
ATOM     15  C   LIG A   1     -10.925   6.490 131.518  0.00  0.00    +0.162 A 
ATOM     16  C   LIG A   1     -10.414   7.119 130.368  0.00  0.00    +0.162 A 
ATOM     17  C   LIG A   1      -9.026   7.256 130.216  0.00  0.00    +0.057 A 
BRANCH  15  18
ATOM     18  O   LIG A   1     -12.282   6.442 131.675  0.00  0.00    -0.491 OA
ATOM     19  C   LIG A   1     -13.004   7.662 131.626  0.00  0.00    +0.277 C 
ENDBRANCH  15  18
BRANCH  16  20
ATOM     20  O   LIG A   1     -11.140   7.685 129.348  0.00  0.00    -0.491 OA
ATOM     21  C   LIG A   1     -10.399   8.337 128.321  0.00  0.00    +0.277 C 
ENDBRANCH  16  20
ENDBRANCH   2  12
TORSDOF 5
ENDMDL
MODEL 5
REMARK VINA RESULT:      -6.4      4.070      4.860
REMARK  Name = NuBBE_2276
REMARK  8 active torsions:
REMARK  status: ('A' for Active; 'I' for Inactive)
REMARK    1  A    between atoms: C_5  and  O_6
REMARK    2  A    between atoms: O_6  and  C_7
REMARK    3  A    between atoms: C_9  and  C_10
REMARK    4  A    between atoms: C_11  and  C_12
REMARK    5  A    between atoms: C_15  and  O_16
REMARK    6  A    between atoms: O_16  and  C_17
REMARK    7  A    between atoms: C_18  and  O_19
REMARK    8  A    between atoms: O_19  and  C_20
REMARK                            x       y       z     vdW  Elec       q    Type
REMARK                         _______ _______ _______ _____ _____    ______ ____
ROOT
ATOM      1  C   LIG A   1     -11.062   5.469 130.694  0.00  0.00    +0.047 C 
ATOM      2  C   LIG A   1      -9.986   4.792 130.264  0.00  0.00    +0.012 C 
ENDROOT
BRANCH   1   9
ATOM      3  O   LIG A   1     -12.689   6.888 126.547  0.00  0.00    -0.245 OA
ATOM      4  C   LIG A   1     -12.503   7.115 127.737  0.00  0.00    +0.341 A 
ATOM      5  O   LIG A   1     -11.887   6.216 128.569  0.00  0.00    -0.423 OA
ATOM      6  C   LIG A   1     -12.941   8.391 128.317  0.00  0.00    +0.137 A 
ATOM      7  C   LIG A   1     -12.737   8.660 129.616  0.00  0.00    +0.130 A 
ATOM      8  C   LIG A   1     -12.083   7.692 130.450  0.00  0.00    +0.092 A 
ATOM      9  C   LIG A   1     -11.694   6.522 129.932  0.00  0.00    +0.135 A 
BRANCH   7  10
ATOM     10  O   LIG A   1     -13.102   9.796 130.294  0.00  0.00    -0.495 OA
ATOM     11  C   LIG A   1     -13.581  10.889 129.515  0.00  0.00    +0.277 C 
ENDBRANCH   7  10
ENDBRANCH   1   9
BRANCH   2  12
ATOM     12  C   LIG A   1      -9.375   3.719 131.039  0.00  0.00    -0.021 A 
ATOM     13  C   LIG A   1      -9.348   2.430 130.516  0.00  0.00    +0.012 A 
ATOM     14  C   LIG A   1      -8.789   1.391 131.257  0.00  0.00    +0.050 A 
ATOM     15  C   LIG A   1      -8.245   1.622 132.528  0.00  0.00    +0.162 A 
ATOM     16  C   LIG A   1      -8.292   2.921 133.068  0.00  0.00    +0.162 A 
ATOM     17  C   LIG A   1      -8.842   3.964 132.308  0.00  0.00    +0.057 A 
BRANCH  15  18
ATOM     18  O   LIG A   1      -7.632   0.644 133.259  0.00  0.00    -0.491 OA
ATOM     19  C   LIG A   1      -6.830  -0.303 132.569  0.00  0.00    +0.277 C 
ENDBRANCH  15  18
BRANCH  16  20
ATOM     20  O   LIG A   1      -7.801   3.323 134.286  0.00  0.00    -0.491 OA
ATOM     21  C   LIG A   1      -8.073   4.667 134.672  0.00  0.00    +0.277 C 
ENDBRANCH  16  20
ENDBRANCH   2  12
TORSDOF 5
ENDMDL
MODEL 6
REMARK VINA RESULT:      -6.3      1.540      7.941
REMARK  Name = NuBBE_2276
REMARK  8 active torsions:
REMARK  status: ('A' for Active; 'I' for Inactive)
REMARK    1  A    between atoms: C_5  and  O_6
REMARK    2  A    between atoms: O_6  and  C_7
REMARK    3  A    between atoms: C_9  and  C_10
REMARK    4  A    between atoms: C_11  and  C_12
REMARK    5  A    between atoms: C_15  and  O_16
REMARK    6  A    between atoms: O_16  and  C_17
REMARK    7  A    between atoms: C_18  and  O_19
REMARK    8  A    between atoms: O_19  and  C_20
REMARK                            x       y       z     vdW  Elec       q    Type
REMARK                         _______ _______ _______ _____ _____    ______ ____
ROOT
ATOM      1  C   LIG A   1      -7.601   6.914 131.078  0.00  0.00    +0.047 C 
ATOM      2  C   LIG A   1      -8.843   6.488 131.352  0.00  0.00    +0.012 C 
ENDROOT
BRANCH   1   9
ATOM      3  O   LIG A   1      -5.864   4.224 134.486  0.00  0.00    -0.245 OA
ATOM      4  C   LIG A   1      -5.669   4.977 133.538  0.00  0.00    +0.341 A 
ATOM      5  O   LIG A   1      -6.696   5.550 132.832  0.00  0.00    -0.423 OA
ATOM      6  C   LIG A   1      -4.297   5.299 133.127  0.00  0.00    +0.137 A 
ATOM      7  C   LIG A   1      -4.066   6.129 132.098  0.00  0.00    +0.130 A 
ATOM      8  C   LIG A   1      -5.171   6.711 131.390  0.00  0.00    +0.092 A 
ATOM      9  C   LIG A   1      -6.424   6.411 131.750  0.00  0.00    +0.135 A 
BRANCH   7  10
ATOM     10  O   LIG A   1      -2.845   6.508 131.598  0.00  0.00    -0.495 OA
ATOM     11  C   LIG A   1      -1.730   5.683 131.920  0.00  0.00    +0.277 C 
ENDBRANCH   7  10
ENDBRANCH   1   9
BRANCH   2  12
ATOM     12  C   LIG A   1     -10.017   6.993 130.650  0.00  0.00    -0.021 A 
ATOM     13  C   LIG A   1     -11.271   6.871 131.241  0.00  0.00    +0.012 A 
ATOM     14  C   LIG A   1     -12.403   7.326 130.570  0.00  0.00    +0.050 A 
ATOM     15  C   LIG A   1     -12.302   7.914 129.301  0.00  0.00    +0.162 A 
ATOM     16  C   LIG A   1     -11.038   8.017 128.692  0.00  0.00    +0.162 A 
ATOM     17  C   LIG A   1      -9.901   7.570 129.382  0.00  0.00    +0.057 A 
BRANCH  15  18
ATOM     18  O   LIG A   1     -13.380   8.429 128.638  0.00  0.00    -0.491 OA
ATOM     19  C   LIG A   1     -13.609   9.828 128.718  0.00  0.00    +0.277 C 
ENDBRANCH  15  18
BRANCH  16  20
ATOM     20  O   LIG A   1     -10.760   8.570 127.465  0.00  0.00    -0.491 OA
ATOM     21  C   LIG A   1     -10.928   7.725 126.331  0.00  0.00    +0.277 C 
ENDBRANCH  16  20
ENDBRANCH   2  12
TORSDOF 5
ENDMDL
MODEL 7
REMARK VINA RESULT:      -6.3      3.155      7.867
REMARK  Name = NuBBE_2276
REMARK  8 active torsions:
REMARK  status: ('A' for Active; 'I' for Inactive)
REMARK    1  A    between atoms: C_5  and  O_6
REMARK    2  A    between atoms: O_6  and  C_7
REMARK    3  A    between atoms: C_9  and  C_10
REMARK    4  A    between atoms: C_11  and  C_12
REMARK    5  A    between atoms: C_15  and  O_16
REMARK    6  A    between atoms: O_16  and  C_17
REMARK    7  A    between atoms: C_18  and  O_19
REMARK    8  A    between atoms: O_19  and  C_20
REMARK                            x       y       z     vdW  Elec       q    Type
REMARK                         _______ _______ _______ _____ _____    ______ ____
ROOT
ATOM      1  C   LIG A   1      -9.655   4.626 130.452  0.00  0.00    +0.047 C 
ATOM      2  C   LIG A   1     -10.310   5.526 131.201  0.00  0.00    +0.012 C 
ENDROOT
BRANCH   1   9
ATOM      3  O   LIG A   1      -9.806   0.194 131.937  0.00  0.00    -0.245 OA
ATOM      4  C   LIG A   1      -9.155   1.212 131.729  0.00  0.00    +0.341 A 
ATOM      5  O   LIG A   1      -9.722   2.357 131.232  0.00  0.00    -0.423 OA
ATOM      6  C   LIG A   1      -7.716   1.234 132.020  0.00  0.00    +0.137 A 
ATOM      7  C   LIG A   1      -6.990   2.343 131.807  0.00  0.00    +0.130 A 
ATOM      8  C   LIG A   1      -7.625   3.522 131.290  0.00  0.00    +0.092 A 
ATOM      9  C   LIG A   1      -8.933   3.505 131.009  0.00  0.00    +0.135 A 
BRANCH   7  10
ATOM     10  O   LIG A   1      -5.644   2.504 132.019  0.00  0.00    -0.495 OA
ATOM     11  C   LIG A   1      -5.146   3.839 132.035  0.00  0.00    +0.277 C 
ENDBRANCH   7  10
ENDBRANCH   1   9
BRANCH   2  12
ATOM     12  C   LIG A   1     -11.050   6.639 130.620  0.00  0.00    -0.021 A 
ATOM     13  C   LIG A   1     -12.165   7.140 131.286  0.00  0.00    +0.012 A 
ATOM     14  C   LIG A   1     -12.896   8.186 130.730  0.00  0.00    +0.050 A 
ATOM     15  C   LIG A   1     -12.525   8.752 129.502  0.00  0.00    +0.162 A 
ATOM     16  C   LIG A   1     -11.413   8.232 128.815  0.00  0.00    +0.162 A 
ATOM     17  C   LIG A   1     -10.673   7.189 129.391  0.00  0.00    +0.057 A 
BRANCH  15  18
ATOM     18  O   LIG A   1     -13.178   9.820 128.954  0.00  0.00    -0.491 OA
ATOM     19  C   LIG A   1     -13.543  10.892 129.809  0.00  0.00    +0.277 C 
ENDBRANCH  15  18
BRANCH  16  20
ATOM     20  O   LIG A   1     -10.909   8.671 127.615  0.00  0.00    -0.491 OA
ATOM     21  C   LIG A   1     -10.904   7.732 126.543  0.00  0.00    +0.277 C 
ENDBRANCH  16  20
ENDBRANCH   2  12
TORSDOF 5
ENDMDL
MODEL 8
REMARK VINA RESULT:      -6.1      3.483      8.051
REMARK  Name = NuBBE_2276
REMARK  8 active torsions:
REMARK  status: ('A' for Active; 'I' for Inactive)
REMARK    1  A    between atoms: C_5  and  O_6
REMARK    2  A    between atoms: O_6  and  C_7
REMARK    3  A    between atoms: C_9  and  C_10
REMARK    4  A    between atoms: C_11  and  C_12
REMARK    5  A    between atoms: C_15  and  O_16
REMARK    6  A    between atoms: O_16  and  C_17
REMARK    7  A    between atoms: C_18  and  O_19
REMARK    8  A    between atoms: O_19  and  C_20
REMARK                            x       y       z     vdW  Elec       q    Type
REMARK                         _______ _______ _______ _____ _____    ______ ____
ROOT
ATOM      1  C   LIG A   1      -9.418   4.645 132.503  0.00  0.00    +0.047 C 
ATOM      2  C   LIG A   1      -9.145   5.734 131.768  0.00  0.00    +0.012 C 
ENDROOT
BRANCH   1   9
ATOM      3  O   LIG A   1      -7.105   0.585 132.664  0.00  0.00    -0.245 OA
ATOM      4  C   LIG A   1      -7.280   1.714 133.109  0.00  0.00    +0.341 A 
ATOM      5  O   LIG A   1      -8.234   2.561 132.607  0.00  0.00    -0.423 OA
ATOM      6  C   LIG A   1      -6.456   2.198 134.224  0.00  0.00    +0.137 A 
ATOM      7  C   LIG A   1      -6.641   3.428 134.729  0.00  0.00    +0.130 A 
ATOM      8  C   LIG A   1      -7.655   4.281 134.176  0.00  0.00    +0.092 A 
ATOM      9  C   LIG A   1      -8.400   3.851 133.152  0.00  0.00    +0.135 A 
BRANCH   7  10
ATOM     10  O   LIG A   1      -5.942   4.016 135.754  0.00  0.00    -0.495 OA
ATOM     11  C   LIG A   1      -6.209   5.390 136.016  0.00  0.00    +0.277 C 
ENDBRANCH   7  10
ENDBRANCH   1   9
BRANCH   2  12
ATOM     12  C   LIG A   1     -10.188   6.535 131.138  0.00  0.00    -0.021 A 
ATOM     13  C   LIG A   1     -11.452   6.587 131.717  0.00  0.00    +0.012 A 
ATOM     14  C   LIG A   1     -12.465   7.327 131.111  0.00  0.00    +0.050 A 
ATOM     15  C   LIG A   1     -12.231   8.031 129.921  0.00  0.00    +0.162 A 
ATOM     16  C   LIG A   1     -10.960   7.960 129.321  0.00  0.00    +0.162 A 
ATOM     17  C   LIG A   1      -9.942   7.225 129.947  0.00  0.00    +0.057 A 
BRANCH  15  18
ATOM     18  O   LIG A   1     -13.178   8.818 129.330  0.00  0.00    -0.491 OA
ATOM     19  C   LIG A   1     -13.223  10.191 129.685  0.00  0.00    +0.277 C 
ENDBRANCH  15  18
BRANCH  16  20
ATOM     20  O   LIG A   1     -10.559   8.590 128.168  0.00  0.00    -0.491 OA
ATOM     21  C   LIG A   1     -10.883   7.942 126.941  0.00  0.00    +0.277 C 
ENDBRANCH  16  20
ENDBRANCH   2  12
TORSDOF 5
ENDMDL
MODEL 9
REMARK VINA RESULT:      -6.1      9.659     12.356
REMARK  Name = NuBBE_2276
REMARK  8 active torsions:
REMARK  status: ('A' for Active; 'I' for Inactive)
REMARK    1  A    between atoms: C_5  and  O_6
REMARK    2  A    between atoms: O_6  and  C_7
REMARK    3  A    between atoms: C_9  and  C_10
REMARK    4  A    between atoms: C_11  and  C_12
REMARK    5  A    between atoms: C_15  and  O_16
REMARK    6  A    between atoms: O_16  and  C_17
REMARK    7  A    between atoms: C_18  and  O_19
REMARK    8  A    between atoms: O_19  and  C_20
REMARK                            x       y       z     vdW  Elec       q    Type
REMARK                         _______ _______ _______ _____ _____    ______ ____
ROOT
ATOM      1  C   LIG A   1      -6.335  -3.321 130.199  0.00  0.00    +0.047 C 
ATOM      2  C   LIG A   1      -7.635  -3.243 129.877  0.00  0.00    +0.012 C 
ENDROOT
BRANCH   1   9
ATOM      3  O   LIG A   1      -2.715  -4.575 132.881  0.00  0.00    -0.245 OA
ATOM      4  C   LIG A   1      -3.906  -4.300 132.782  0.00  0.00    +0.341 A 
ATOM      5  O   LIG A   1      -4.490  -3.980 131.584  0.00  0.00    -0.423 OA
ATOM      6  C   LIG A   1      -4.762  -4.314 133.976  0.00  0.00    +0.137 A 
ATOM      7  C   LIG A   1      -6.070  -4.024 133.885  0.00  0.00    +0.130 A 
ATOM      8  C   LIG A   1      -6.641  -3.699 132.608  0.00  0.00    +0.092 A 
ATOM      9  C   LIG A   1      -5.864  -3.672 131.520  0.00  0.00    +0.135 A 
BRANCH   7  10
ATOM     10  O   LIG A   1      -6.982  -3.985 134.909  0.00  0.00    -0.495 OA
ATOM     11  C   LIG A   1      -8.294  -3.531 134.591  0.00  0.00    +0.277 C 
ENDBRANCH   7  10
ENDBRANCH   1   9
BRANCH   2  12
ATOM     12  C   LIG A   1      -8.090  -2.907 128.534  0.00  0.00    -0.021 A 
ATOM     13  C   LIG A   1      -8.809  -3.847 127.801  0.00  0.00    +0.012 A 
ATOM     14  C   LIG A   1      -9.228  -3.549 126.507  0.00  0.00    +0.050 A 
ATOM     15  C   LIG A   1      -8.942  -2.306 125.925  0.00  0.00    +0.162 A 
ATOM     16  C   LIG A   1      -8.195  -1.362 126.655  0.00  0.00    +0.162 A 
ATOM     17  C   LIG A   1      -7.790  -1.666 127.963  0.00  0.00    +0.057 A 
BRANCH  15  18
ATOM     18  O   LIG A   1      -9.389  -1.951 124.683  0.00  0.00    -0.491 OA
ATOM     19  C   LIG A   1      -9.289  -2.906 123.639  0.00  0.00    +0.277 C 
ENDBRANCH  15  18
BRANCH  16  20
ATOM     20  O   LIG A   1      -7.835  -0.102 126.243  0.00  0.00    -0.491 OA
ATOM     21  C   LIG A   1      -8.702   0.964 126.619  0.00  0.00    +0.277 C 
ENDBRANCH  16  20
ENDBRANCH   2  12
TORSDOF 5
ENDMDL
