MODEL 1
REMARK VINA RESULT:      -6.3      0.000      0.000
REMARK  Name = NuBBE_2032
REMARK  7 active torsions:
REMARK  status: ('A' for Active; 'I' for Inactive)
REMARK    1  A    between atoms: C_1  and  C_2
REMARK    2  A    between atoms: C_2  and  C_3
REMARK    3  A    between atoms: C_2  and  C_4
REMARK    4  A    between atoms: C_6  and  O_7
REMARK    5  A    between atoms: O_7  and  C_8
REMARK    6  A    between atoms: C_8  and  C_9
REMARK    7  A    between atoms: C_11  and  C_12
REMARK                            x       y       z     vdW  Elec       q    Type
REMARK                         _______ _______ _______ _____ _____    ______ ____
ROOT
ATOM      1  C   LIG A   1     -10.897   6.450 131.204  0.00  0.00    -0.041 A 
ATOM      2  C   LIG A   1     -10.477   6.803 129.908  0.00  0.00    +0.050 A 
ATOM      3  C   LIG A   1     -11.185   7.753 129.164  0.00  0.00    +0.135 A 
ATOM      4  C   LIG A   1     -12.360   8.330 129.668  0.00  0.00    -0.008 A 
ATOM      5  C   LIG A   1     -13.160   9.321 128.876  0.00  0.00    +0.048 C 
ATOM      6  C   LIG A   1     -12.776   7.976 130.957  0.00  0.00    +0.007 A 
ATOM      7  C   LIG A   1     -12.056   7.048 131.713  0.00  0.00    +0.004 A 
ENDROOT
BRANCH   1   9
ATOM      8  C   LIG A   1      -9.838   4.113 131.230  0.00  0.00    +0.012 C 
ATOM      9  C   LIG A   1     -10.096   5.420 131.988  0.00  0.00    +0.013 C 
ATOM     10  C   LIG A   1      -8.773   6.021 132.468  0.00  0.00    +0.012 C 
ENDBRANCH   1   9
BRANCH   3  11
ATOM     11  O   LIG A   1     -10.796   8.133 127.855  0.00  0.00    -0.426 OA
BRANCH  11  12
ATOM     12  C   LIG A   1     -10.800   7.243 126.777  0.00  0.00    +0.309 C 
ATOM     13  C   LIG A   1     -12.186   7.189 126.199  0.00  0.00    +0.136 C 
ATOM     14  O   LIG A   1      -9.855   6.603 126.345  0.00  0.00    -0.251 OA
ENDBRANCH  11  12
ENDBRANCH   3  11
TORSDOF 3
ENDMDL
MODEL 2
REMARK VINA RESULT:      -6.1      1.147      1.885
REMARK  Name = NuBBE_2032
REMARK  7 active torsions:
REMARK  status: ('A' for Active; 'I' for Inactive)
REMARK    1  A    between atoms: C_1  and  C_2
REMARK    2  A    between atoms: C_2  and  C_3
REMARK    3  A    between atoms: C_2  and  C_4
REMARK    4  A    between atoms: C_6  and  O_7
REMARK    5  A    between atoms: O_7  and  C_8
REMARK    6  A    between atoms: C_8  and  C_9
REMARK    7  A    between atoms: C_11  and  C_12
REMARK                            x       y       z     vdW  Elec       q    Type
REMARK                         _______ _______ _______ _____ _____    ______ ____
ROOT
ATOM      1  C   LIG A   1      -9.094   6.329 131.491  0.00  0.00    -0.041 A 
ATOM      2  C   LIG A   1      -9.237   6.907 130.216  0.00  0.00    +0.050 A 
ATOM      3  C   LIG A   1     -10.493   7.317 129.757  0.00  0.00    +0.135 A 
ATOM      4  C   LIG A   1     -11.645   7.106 130.530  0.00  0.00    -0.008 A 
ATOM      5  C   LIG A   1     -13.009   7.498 130.045  0.00  0.00    +0.048 C 
ATOM      6  C   LIG A   1     -11.500   6.530 131.797  0.00  0.00    +0.007 A 
ATOM      7  C   LIG A   1     -10.243   6.145 132.270  0.00  0.00    +0.004 A 
ENDROOT
BRANCH   1   9
ATOM      8  C   LIG A   1      -6.569   6.783 131.434  0.00  0.00    +0.012 C 
ATOM      9  C   LIG A   1      -7.710   5.906 131.963  0.00  0.00    +0.013 C 
ATOM     10  C   LIG A   1      -7.660   5.841 133.491  0.00  0.00    +0.012 C 
ENDBRANCH   1   9
BRANCH   3  11
ATOM     11  O   LIG A   1     -10.679   7.900 128.479  0.00  0.00    -0.426 OA
BRANCH  11  12
ATOM     12  C   LIG A   1     -10.625   7.160 127.294  0.00  0.00    +0.309 C 
ATOM     13  C   LIG A   1     -11.910   7.360 126.541  0.00  0.00    +0.136 C 
ATOM     14  O   LIG A   1      -9.706   6.460 126.903  0.00  0.00    -0.251 OA
ENDBRANCH  11  12
ENDBRANCH   3  11
TORSDOF 3
ENDMDL
MODEL 3
REMARK VINA RESULT:      -6.0      1.682      4.322
REMARK  Name = NuBBE_2032
REMARK  7 active torsions:
REMARK  status: ('A' for Active; 'I' for Inactive)
REMARK    1  A    between atoms: C_1  and  C_2
REMARK    2  A    between atoms: C_2  and  C_3
REMARK    3  A    between atoms: C_2  and  C_4
REMARK    4  A    between atoms: C_6  and  O_7
REMARK    5  A    between atoms: O_7  and  C_8
REMARK    6  A    between atoms: C_8  and  C_9
REMARK    7  A    between atoms: C_11  and  C_12
REMARK                            x       y       z     vdW  Elec       q    Type
REMARK                         _______ _______ _______ _____ _____    ______ ____
ROOT
ATOM      1  C   LIG A   1     -12.086   7.793 129.549  0.00  0.00    -0.041 A 
ATOM      2  C   LIG A   1     -10.790   7.313 129.287  0.00  0.00    +0.050 A 
ATOM      3  C   LIG A   1     -10.091   6.584 130.255  0.00  0.00    +0.135 A 
ATOM      4  C   LIG A   1     -10.641   6.368 131.528  0.00  0.00    -0.008 A 
ATOM      5  C   LIG A   1      -9.898   5.625 132.598  0.00  0.00    +0.048 C 
ATOM      6  C   LIG A   1     -11.931   6.848 131.786  0.00  0.00    +0.007 A 
ATOM      7  C   LIG A   1     -12.642   7.552 130.812  0.00  0.00    +0.004 A 
ENDROOT
BRANCH   1   9
ATOM      8  C   LIG A   1     -13.887   7.762 127.722  0.00  0.00    +0.012 C 
ATOM      9  C   LIG A   1     -12.822   8.573 128.468  0.00  0.00    +0.013 C 
ATOM     10  C   LIG A   1     -13.440   9.846 129.050  0.00  0.00    +0.012 C 
ENDBRANCH   1   9
BRANCH   3  11
ATOM     11  O   LIG A   1      -8.784   6.086 130.031  0.00  0.00    -0.426 OA
BRANCH  11  12
ATOM     12  C   LIG A   1      -8.522   5.000 129.190  0.00  0.00    +0.309 C 
ATOM     13  C   LIG A   1      -8.064   3.840 130.027  0.00  0.00    +0.136 C 
ATOM     14  O   LIG A   1      -8.637   4.963 127.975  0.00  0.00    -0.251 OA
ENDBRANCH  11  12
ENDBRANCH   3  11
TORSDOF 3
ENDMDL
MODEL 4
REMARK VINA RESULT:      -6.0      7.396     10.309
REMARK  Name = NuBBE_2032
REMARK  7 active torsions:
REMARK  status: ('A' for Active; 'I' for Inactive)
REMARK    1  A    between atoms: C_1  and  C_2
REMARK    2  A    between atoms: C_2  and  C_3
REMARK    3  A    between atoms: C_2  and  C_4
REMARK    4  A    between atoms: C_6  and  O_7
REMARK    5  A    between atoms: O_7  and  C_8
REMARK    6  A    between atoms: C_8  and  C_9
REMARK    7  A    between atoms: C_11  and  C_12
REMARK                            x       y       z     vdW  Elec       q    Type
REMARK                         _______ _______ _______ _____ _____    ______ ____
ROOT
ATOM      1  C   LIG A   1      -6.274   4.148 120.760  0.00  0.00    -0.041 A 
ATOM      2  C   LIG A   1      -7.051   3.368 121.636  0.00  0.00    +0.050 A 
ATOM      3  C   LIG A   1      -6.704   3.254 122.986  0.00  0.00    +0.135 A 
ATOM      4  C   LIG A   1      -5.542   3.863 123.484  0.00  0.00    -0.008 A 
ATOM      5  C   LIG A   1      -5.124   3.724 124.917  0.00  0.00    +0.048 C 
ATOM      6  C   LIG A   1      -4.770   4.638 122.609  0.00  0.00    +0.007 A 
ATOM      7  C   LIG A   1      -5.130   4.776 121.267  0.00  0.00    +0.004 A 
ENDROOT
BRANCH   1   9
ATOM      8  C   LIG A   1      -8.205   4.300 119.077  0.00  0.00    +0.012 C 
ATOM      9  C   LIG A   1      -6.688   4.259 119.300  0.00  0.00    +0.013 C 
ATOM     10  C   LIG A   1      -6.027   5.474 118.644  0.00  0.00    +0.012 C 
ENDBRANCH   1   9
BRANCH   3  11
ATOM     11  O   LIG A   1      -7.458   2.476 123.899  0.00  0.00    -0.426 OA
BRANCH  11  12
ATOM     12  C   LIG A   1      -8.651   2.927 124.473  0.00  0.00    +0.309 C 
ATOM     13  C   LIG A   1      -9.725   1.908 124.221  0.00  0.00    +0.136 C 
ATOM     14  O   LIG A   1      -8.827   3.968 125.087  0.00  0.00    -0.251 OA
ENDBRANCH  11  12
ENDBRANCH   3  11
TORSDOF 3
ENDMDL
MODEL 5
REMARK VINA RESULT:      -5.9      7.240      9.875
REMARK  Name = NuBBE_2032
REMARK  7 active torsions:
REMARK  status: ('A' for Active; 'I' for Inactive)
REMARK    1  A    between atoms: C_1  and  C_2
REMARK    2  A    between atoms: C_2  and  C_3
REMARK    3  A    between atoms: C_2  and  C_4
REMARK    4  A    between atoms: C_6  and  O_7
REMARK    5  A    between atoms: O_7  and  C_8
REMARK    6  A    between atoms: C_8  and  C_9
REMARK    7  A    between atoms: C_11  and  C_12
REMARK                            x       y       z     vdW  Elec       q    Type
REMARK                         _______ _______ _______ _____ _____    ______ ____
ROOT
ATOM      1  C   LIG A   1      -6.737   3.654 121.680  0.00  0.00    -0.041 A 
ATOM      2  C   LIG A   1      -7.959   3.018 121.967  0.00  0.00    +0.050 A 
ATOM      3  C   LIG A   1      -8.332   2.754 123.289  0.00  0.00    +0.135 A 
ATOM      4  C   LIG A   1      -7.472   3.062 124.353  0.00  0.00    -0.008 A 
ATOM      5  C   LIG A   1      -7.829   2.753 125.777  0.00  0.00    +0.048 C 
ATOM      6  C   LIG A   1      -6.256   3.694 124.066  0.00  0.00    +0.007 A 
ATOM      7  C   LIG A   1      -5.893   3.984 122.748  0.00  0.00    +0.004 A 
ENDROOT
BRANCH   1   9
ATOM      8  C   LIG A   1      -7.557   4.325 119.344  0.00  0.00    +0.012 C 
ATOM      9  C   LIG A   1      -6.369   3.936 120.231  0.00  0.00    +0.013 C 
ATOM     10  C   LIG A   1      -5.279   5.008 120.152  0.00  0.00    +0.012 C 
ENDBRANCH   1   9
BRANCH   3  11
ATOM     11  O   LIG A   1      -9.552   2.113 123.618  0.00  0.00    -0.426 OA
BRANCH  11  12
ATOM     12  C   LIG A   1      -9.879   0.831 123.165  0.00  0.00    +0.309 C 
ATOM     13  C   LIG A   1      -8.823  -0.131 123.632  0.00  0.00    +0.136 C 
ATOM     14  O   LIG A   1     -10.852   0.508 122.504  0.00  0.00    -0.251 OA
ENDBRANCH  11  12
ENDBRANCH   3  11
TORSDOF 3
ENDMDL
MODEL 6
REMARK VINA RESULT:      -5.7     11.060     12.290
REMARK  Name = NuBBE_2032
REMARK  7 active torsions:
REMARK  status: ('A' for Active; 'I' for Inactive)
REMARK    1  A    between atoms: C_1  and  C_2
REMARK    2  A    between atoms: C_2  and  C_3
REMARK    3  A    between atoms: C_2  and  C_4
REMARK    4  A    between atoms: C_6  and  O_7
REMARK    5  A    between atoms: O_7  and  C_8
REMARK    6  A    between atoms: C_8  and  C_9
REMARK    7  A    between atoms: C_11  and  C_12
REMARK                            x       y       z     vdW  Elec       q    Type
REMARK                         _______ _______ _______ _____ _____    ______ ____
ROOT
ATOM      1  C   LIG A   1      -6.538  -2.690 124.866  0.00  0.00    -0.041 A 
ATOM      2  C   LIG A   1      -6.246  -2.329 126.195  0.00  0.00    +0.050 A 
ATOM      3  C   LIG A   1      -7.093  -2.714 127.239  0.00  0.00    +0.135 A 
ATOM      4  C   LIG A   1      -8.282  -3.413 126.981  0.00  0.00    -0.008 A 
ATOM      5  C   LIG A   1      -9.229  -3.802 128.077  0.00  0.00    +0.048 C 
ATOM      6  C   LIG A   1      -8.570  -3.770 125.658  0.00  0.00    +0.007 A 
ATOM      7  C   LIG A   1      -7.712  -3.411 124.615  0.00  0.00    +0.004 A 
ENDROOT
BRANCH   1   9
ATOM      8  C   LIG A   1      -4.537  -3.320 123.388  0.00  0.00    +0.012 C 
ATOM      9  C   LIG A   1      -5.587  -2.265 123.756  0.00  0.00    +0.013 C 
ATOM     10  C   LIG A   1      -6.370  -1.844 122.510  0.00  0.00    +0.012 C 
ENDBRANCH   1   9
BRANCH   3  11
ATOM     11  O   LIG A   1      -6.836  -2.368 128.589  0.00  0.00    -0.426 OA
BRANCH  11  12
ATOM     12  C   LIG A   1      -5.737  -2.859 129.300  0.00  0.00    +0.309 C 
ATOM     13  C   LIG A   1      -6.187  -4.010 130.153  0.00  0.00    +0.136 C 
ATOM     14  O   LIG A   1      -4.588  -2.448 129.257  0.00  0.00    -0.251 OA
ENDBRANCH  11  12
ENDBRANCH   3  11
TORSDOF 3
ENDMDL
MODEL 7
REMARK VINA RESULT:      -5.6     10.286     11.146
REMARK  Name = NuBBE_2032
REMARK  7 active torsions:
REMARK  status: ('A' for Active; 'I' for Inactive)
REMARK    1  A    between atoms: C_1  and  C_2
REMARK    2  A    between atoms: C_2  and  C_3
REMARK    3  A    between atoms: C_2  and  C_4
REMARK    4  A    between atoms: C_6  and  O_7
REMARK    5  A    between atoms: O_7  and  C_8
REMARK    6  A    between atoms: C_8  and  C_9
REMARK    7  A    between atoms: C_11  and  C_12
REMARK                            x       y       z     vdW  Elec       q    Type
REMARK                         _______ _______ _______ _____ _____    ______ ____
ROOT
ATOM      1  C   LIG A   1      -7.306  -2.977 128.617  0.00  0.00    -0.041 A 
ATOM      2  C   LIG A   1      -6.714  -2.368 127.495  0.00  0.00    +0.050 A 
ATOM      3  C   LIG A   1      -7.354  -2.390 126.251  0.00  0.00    +0.135 A 
ATOM      4  C   LIG A   1      -8.570  -3.070 126.081  0.00  0.00    -0.008 A 
ATOM      5  C   LIG A   1      -9.258  -3.143 124.750  0.00  0.00    +0.048 C 
ATOM      6  C   LIG A   1      -9.157  -3.675 127.198  0.00  0.00    +0.007 A 
ATOM      7  C   LIG A   1      -8.533  -3.631 128.448  0.00  0.00    +0.004 A 
ENDROOT
BRANCH   1   9
ATOM      8  C   LIG A   1      -7.439  -2.376 131.108  0.00  0.00    +0.012 C 
ATOM      9  C   LIG A   1      -6.587  -2.923 129.957  0.00  0.00    +0.013 C 
ATOM     10  C   LIG A   1      -6.029  -4.301 130.323  0.00  0.00    +0.012 C 
ENDBRANCH   1   9
BRANCH   3  11
ATOM     11  O   LIG A   1      -6.789  -1.792 125.098  0.00  0.00    -0.426 OA
BRANCH  11  12
ATOM     12  C   LIG A   1      -5.926  -2.476 124.237  0.00  0.00    +0.309 C 
ATOM     13  C   LIG A   1      -6.180  -2.014 122.830  0.00  0.00    +0.136 C 
ATOM     14  O   LIG A   1      -5.090  -3.313 124.540  0.00  0.00    -0.251 OA
ENDBRANCH  11  12
ENDBRANCH   3  11
TORSDOF 3
ENDMDL
MODEL 8
REMARK VINA RESULT:      -5.4      8.691     10.297
REMARK  Name = NuBBE_2032
REMARK  7 active torsions:
REMARK  status: ('A' for Active; 'I' for Inactive)
REMARK    1  A    between atoms: C_1  and  C_2
REMARK    2  A    between atoms: C_2  and  C_3
REMARK    3  A    between atoms: C_2  and  C_4
REMARK    4  A    between atoms: C_6  and  O_7
REMARK    5  A    between atoms: O_7  and  C_8
REMARK    6  A    between atoms: C_8  and  C_9
REMARK    7  A    between atoms: C_11  and  C_12
REMARK                            x       y       z     vdW  Elec       q    Type
REMARK                         _______ _______ _______ _____ _____    ______ ____
ROOT
ATOM      1  C   LIG A   1      -8.415  -2.642 126.607  0.00  0.00    -0.041 A 
ATOM      2  C   LIG A   1      -8.380  -1.331 126.098  0.00  0.00    +0.050 A 
ATOM      3  C   LIG A   1      -8.392  -1.103 124.718  0.00  0.00    +0.135 A 
ATOM      4  C   LIG A   1      -8.377  -2.174 123.812  0.00  0.00    -0.008 A 
ATOM      5  C   LIG A   1      -8.349  -1.958 122.328  0.00  0.00    +0.048 C 
ATOM      6  C   LIG A   1      -8.411  -3.478 124.321  0.00  0.00    +0.007 A 
ATOM      7  C   LIG A   1      -8.427  -3.708 125.699  0.00  0.00    +0.004 A 
ENDROOT
BRANCH   1   9
ATOM      8  C   LIG A   1      -9.128  -4.129 128.573  0.00  0.00    +0.012 C 
ATOM      9  C   LIG A   1      -8.412  -2.853 128.115  0.00  0.00    +0.013 C 
ATOM     10  C   LIG A   1      -6.982  -2.826 128.659  0.00  0.00    +0.012 C 
ENDBRANCH   1   9
BRANCH   3  11
ATOM     11  O   LIG A   1      -8.354   0.202 124.166  0.00  0.00    -0.426 OA
BRANCH  11  12
ATOM     12  C   LIG A   1      -9.497   0.994 124.018  0.00  0.00    +0.309 C 
ATOM     13  C   LIG A   1      -9.210   2.075 123.015  0.00  0.00    +0.136 C 
ATOM     14  O   LIG A   1     -10.567   0.859 124.589  0.00  0.00    -0.251 OA
ENDBRANCH  11  12
ENDBRANCH   3  11
TORSDOF 3
ENDMDL
MODEL 9
REMARK VINA RESULT:      -5.3      2.380      5.006
REMARK  Name = NuBBE_2032
REMARK  7 active torsions:
REMARK  status: ('A' for Active; 'I' for Inactive)
REMARK    1  A    between atoms: C_1  and  C_2
REMARK    2  A    between atoms: C_2  and  C_3
REMARK    3  A    between atoms: C_2  and  C_4
REMARK    4  A    between atoms: C_6  and  O_7
REMARK    5  A    between atoms: O_7  and  C_8
REMARK    6  A    between atoms: C_8  and  C_9
REMARK    7  A    between atoms: C_11  and  C_12
REMARK                            x       y       z     vdW  Elec       q    Type
REMARK                         _______ _______ _______ _____ _____    ______ ____
ROOT
ATOM      1  C   LIG A   1     -10.869   7.298 129.381  0.00  0.00    -0.041 A 
ATOM      2  C   LIG A   1      -9.667   7.482 130.089  0.00  0.00    +0.050 A 
ATOM      3  C   LIG A   1      -9.232   6.529 131.015  0.00  0.00    +0.135 A 
ATOM      4  C   LIG A   1     -10.012   5.399 131.303  0.00  0.00    -0.008 A 
ATOM      5  C   LIG A   1      -9.590   4.381 132.321  0.00  0.00    +0.048 C 
ATOM      6  C   LIG A   1     -11.208   5.218 130.599  0.00  0.00    +0.007 A 
ATOM      7  C   LIG A   1     -11.632   6.155 129.653  0.00  0.00    +0.004 A 
ENDROOT
BRANCH   1   9
ATOM      8  C   LIG A   1     -11.106   7.941 126.909  0.00  0.00    +0.012 C 
ATOM      9  C   LIG A   1     -11.306   8.351 128.373  0.00  0.00    +0.013 C 
ATOM     10  C   LIG A   1     -12.763   8.754 128.613  0.00  0.00    +0.012 C 
ENDBRANCH   1   9
BRANCH   3  11
ATOM     11  O   LIG A   1      -8.029   6.679 131.749  0.00  0.00    -0.426 OA
BRANCH  11  12
ATOM     12  C   LIG A   1      -6.768   6.670 131.145  0.00  0.00    +0.309 C 
ATOM     13  C   LIG A   1      -6.095   5.362 131.449  0.00  0.00    +0.136 C 
ATOM     14  O   LIG A   1      -6.265   7.557 130.474  0.00  0.00    -0.251 OA
ENDBRANCH  11  12
ENDBRANCH   3  11
TORSDOF 3
ENDMDL
