MODEL 1
REMARK VINA RESULT:      -6.2      0.000      0.000
REMARK  Name = NuBBE_1678
REMARK  17 active torsions:
REMARK  status: ('A' for Active; 'I' for Inactive)
REMARK    1  A    between atoms: C_1  and  C_2
REMARK    2  A    between atoms: C_2  and  C_3
REMARK    3  A    between atoms: C_3  and  C_4
REMARK    4  A    between atoms: C_4  and  C_5
REMARK    5  A    between atoms: C_5  and  C_6
REMARK    6  A    between atoms: C_6  and  C_7
REMARK    7  A    between atoms: C_7  and  C_8
REMARK    8  A    between atoms: C_8  and  C_9
REMARK    9  A    between atoms: C_9  and  C_10
REMARK   10  A    between atoms: C_10  and  C_11
REMARK   11  A    between atoms: C_11  and  C_12
REMARK   12  A    between atoms: C_12  and  C_13
REMARK   13  A    between atoms: C_13  and  C_14
REMARK   14  A    between atoms: C_14  and  C_15
REMARK   15  A    between atoms: C_15  and  C_16
REMARK   16  A    between atoms: C_18  and  O_19
REMARK   17  A    between atoms: C_21  and  O_22
REMARK                            x       y       z     vdW  Elec       q    Type
REMARK                         _______ _______ _______ _____ _____    ______ ____
ROOT
ATOM      1  C   LIG A   1      -6.892   1.923 125.497  0.00  0.00    +0.000 C 
ENDROOT
BRANCH   1   2
ATOM      2  C   LIG A   1      -6.477   2.814 124.298  0.00  0.00    +0.005 C 
BRANCH   2   3
ATOM      3  C   LIG A   1      -6.729   2.475 122.806  0.00  0.00    +0.035 C 
BRANCH   3   4
ATOM      4  C   LIG A   1      -6.244   3.423 121.732  0.00  0.00    -0.041 A 
ATOM      5  C   LIG A   1      -6.960   3.516 120.545  0.00  0.00    +0.049 A 
ATOM      6  C   LIG A   1      -6.633   4.394 119.545  0.00  0.00    +0.121 A 
ATOM      7  C   LIG A   1      -5.564   5.298 119.728  0.00  0.00    +0.090 A 
ATOM      8  C   LIG A   1      -4.868   5.247 120.925  0.00  0.00    +0.121 A 
ATOM      9  C   LIG A   1      -5.173   4.332 121.926  0.00  0.00    +0.049 A 
BRANCH   8  10
ATOM     10  O   LIG A   1      -3.863   6.168 121.083  0.00  0.00    -0.507 OA
ATOM     11  H   LIG A   1      -3.589   6.488 120.217  0.00  0.00    +0.292 HD
ENDBRANCH   8  10
BRANCH   6  12
ATOM     12  O   LIG A   1      -7.315   4.459 118.377  0.00  0.00    -0.507 OA
ATOM     13  H   LIG A   1      -6.721   4.117 117.667  0.00  0.00    +0.292 HD
ENDBRANCH   6  12
ENDBRANCH   3   4
ENDBRANCH   2   3
ENDBRANCH   1   2
BRANCH   1  14
ATOM     14  C   LIG A   1      -7.378   0.467 125.413  0.00  0.00    +0.000 C 
BRANCH  14  15
ATOM     15  C   LIG A   1      -6.393  -0.630 124.995  0.00  0.00    -0.000 C 
BRANCH  15  16
ATOM     16  C   LIG A   1      -6.659  -1.402 123.667  0.00  0.00    -0.000 C 
BRANCH  16  17
ATOM     17  C   LIG A   1      -8.101  -1.343 123.028  0.00  0.00    -0.000 C 
BRANCH  17  18
ATOM     18  C   LIG A   1      -9.038  -2.559 123.378  0.00  0.00    -0.000 C 
BRANCH  18  19
ATOM     19  C   LIG A   1      -8.769  -3.471 124.680  0.00  0.00    -0.000 C 
BRANCH  19  20
ATOM     20  C   LIG A   1      -9.123  -2.948 126.143  0.00  0.00    -0.000 C 
BRANCH  20  21
ATOM     21  C   LIG A   1      -8.890  -3.931 127.405  0.00  0.00    -0.000 C 
BRANCH  21  22
ATOM     22  C   LIG A   1      -8.471  -3.274 128.791  0.00  0.00    -0.000 C 
BRANCH  22  23
ATOM     23  C   LIG A   1      -7.079  -2.507 128.872  0.00  0.00    -0.000 C 
BRANCH  23  25
ATOM     24  C   LIG A   1      -7.809  -0.151 129.877  0.00  0.00    +0.004 C 
ATOM     25  C   LIG A   1      -7.204  -0.977 128.730  0.00  0.00    -0.003 C 
ENDBRANCH  23  25
ENDBRANCH  22  23
ENDBRANCH  21  22
ENDBRANCH  20  21
ENDBRANCH  19  20
ENDBRANCH  18  19
ENDBRANCH  17  18
ENDBRANCH  16  17
ENDBRANCH  15  16
ENDBRANCH  14  15
ENDBRANCH   1  14
TORSDOF 16
ENDMDL
MODEL 2
REMARK VINA RESULT:      -6.2      4.686      7.697
REMARK  Name = NuBBE_1678
REMARK  17 active torsions:
REMARK  status: ('A' for Active; 'I' for Inactive)
REMARK    1  A    between atoms: C_1  and  C_2
REMARK    2  A    between atoms: C_2  and  C_3
REMARK    3  A    between atoms: C_3  and  C_4
REMARK    4  A    between atoms: C_4  and  C_5
REMARK    5  A    between atoms: C_5  and  C_6
REMARK    6  A    between atoms: C_6  and  C_7
REMARK    7  A    between atoms: C_7  and  C_8
REMARK    8  A    between atoms: C_8  and  C_9
REMARK    9  A    between atoms: C_9  and  C_10
REMARK   10  A    between atoms: C_10  and  C_11
REMARK   11  A    between atoms: C_11  and  C_12
REMARK   12  A    between atoms: C_12  and  C_13
REMARK   13  A    between atoms: C_13  and  C_14
REMARK   14  A    between atoms: C_14  and  C_15
REMARK   15  A    between atoms: C_15  and  C_16
REMARK   16  A    between atoms: C_18  and  O_19
REMARK   17  A    between atoms: C_21  and  O_22
REMARK                            x       y       z     vdW  Elec       q    Type
REMARK                         _______ _______ _______ _____ _____    ______ ____
ROOT
ATOM      1  C   LIG A   1      -8.613  -3.661 126.518  0.00  0.00    +0.000 C 
ENDROOT
BRANCH   1   2
ATOM      2  C   LIG A   1      -8.783  -3.469 128.047  0.00  0.00    +0.005 C 
BRANCH   2   3
ATOM      3  C   LIG A   1      -7.674  -3.706 129.104  0.00  0.00    +0.035 C 
BRANCH   3   4
ATOM      4  C   LIG A   1      -6.678  -2.607 129.401  0.00  0.00    -0.041 A 
ATOM      5  C   LIG A   1      -5.321  -2.889 129.315  0.00  0.00    +0.049 A 
ATOM      6  C   LIG A   1      -4.349  -1.941 129.502  0.00  0.00    +0.121 A 
ATOM      7  C   LIG A   1      -4.717  -0.598 129.734  0.00  0.00    +0.090 A 
ATOM      8  C   LIG A   1      -6.068  -0.293 129.780  0.00  0.00    +0.121 A 
ATOM      9  C   LIG A   1      -7.056  -1.258 129.628  0.00  0.00    +0.049 A 
BRANCH   8  10
ATOM     10  O   LIG A   1      -6.386   1.030 129.966  0.00  0.00    -0.507 OA
ATOM     11  H   LIG A   1      -5.847   1.387 130.680  0.00  0.00    +0.292 HD
ENDBRANCH   8  10
BRANCH   6  12
ATOM     12  O   LIG A   1      -3.027  -2.228 129.446  0.00  0.00    -0.507 OA
ATOM     13  H   LIG A   1      -2.549  -1.515 129.933  0.00  0.00    +0.292 HD
ENDBRANCH   6  12
ENDBRANCH   3   4
ENDBRANCH   2   3
ENDBRANCH   1   2
BRANCH   1  14
ATOM     14  C   LIG A   1      -9.378  -2.902 125.422  0.00  0.00    +0.000 C 
BRANCH  14  15
ATOM     15  C   LIG A   1      -9.278  -3.379 123.969  0.00  0.00    -0.000 C 
BRANCH  15  16
ATOM     16  C   LIG A   1      -8.867  -2.348 122.874  0.00  0.00    -0.000 C 
BRANCH  16  17
ATOM     17  C   LIG A   1      -7.628  -1.407 123.140  0.00  0.00    -0.000 C 
BRANCH  17  18
ATOM     18  C   LIG A   1      -6.223  -2.113 123.057  0.00  0.00    -0.000 C 
BRANCH  18  19
ATOM     19  C   LIG A   1      -5.294  -2.278 124.363  0.00  0.00    -0.000 C 
BRANCH  19  20
ATOM     20  C   LIG A   1      -5.754  -1.719 125.782  0.00  0.00    -0.000 C 
BRANCH  20  21
ATOM     21  C   LIG A   1      -5.568  -0.146 126.105  0.00  0.00    -0.000 C 
BRANCH  21  22
ATOM     22  C   LIG A   1      -6.843   0.794 125.977  0.00  0.00    -0.000 C 
BRANCH  22  23
ATOM     23  C   LIG A   1      -8.206   0.312 126.640  0.00  0.00    -0.000 C 
BRANCH  23  25
ATOM     24  C   LIG A   1      -9.321   1.616 124.603  0.00  0.00    +0.004 C 
ATOM     25  C   LIG A   1      -9.461   0.711 125.837  0.00  0.00    -0.003 C 
ENDBRANCH  23  25
ENDBRANCH  22  23
ENDBRANCH  21  22
ENDBRANCH  20  21
ENDBRANCH  19  20
ENDBRANCH  18  19
ENDBRANCH  17  18
ENDBRANCH  16  17
ENDBRANCH  15  16
ENDBRANCH  14  15
ENDBRANCH   1  14
TORSDOF 16
ENDMDL
MODEL 3
REMARK VINA RESULT:      -6.2      2.573      5.116
REMARK  Name = NuBBE_1678
REMARK  17 active torsions:
REMARK  status: ('A' for Active; 'I' for Inactive)
REMARK    1  A    between atoms: C_1  and  C_2
REMARK    2  A    between atoms: C_2  and  C_3
REMARK    3  A    between atoms: C_3  and  C_4
REMARK    4  A    between atoms: C_4  and  C_5
REMARK    5  A    between atoms: C_5  and  C_6
REMARK    6  A    between atoms: C_6  and  C_7
REMARK    7  A    between atoms: C_7  and  C_8
REMARK    8  A    between atoms: C_8  and  C_9
REMARK    9  A    between atoms: C_9  and  C_10
REMARK   10  A    between atoms: C_10  and  C_11
REMARK   11  A    between atoms: C_11  and  C_12
REMARK   12  A    between atoms: C_12  and  C_13
REMARK   13  A    between atoms: C_13  and  C_14
REMARK   14  A    between atoms: C_14  and  C_15
REMARK   15  A    between atoms: C_15  and  C_16
REMARK   16  A    between atoms: C_18  and  O_19
REMARK   17  A    between atoms: C_21  and  O_22
REMARK                            x       y       z     vdW  Elec       q    Type
REMARK                         _______ _______ _______ _____ _____    ______ ____
ROOT
ATOM      1  C   LIG A   1      -5.753  -1.031 128.539  0.00  0.00    +0.000 C 
ENDROOT
BRANCH   1   2
ATOM      2  C   LIG A   1      -6.446  -0.019 127.590  0.00  0.00    +0.005 C 
BRANCH   2   3
ATOM      3  C   LIG A   1      -6.013   0.275 126.130  0.00  0.00    +0.035 C 
BRANCH   3   4
ATOM      4  C   LIG A   1      -6.786   1.284 125.311  0.00  0.00    -0.041 A 
ATOM      5  C   LIG A   1      -8.168   1.167 125.230  0.00  0.00    +0.049 A 
ATOM      6  C   LIG A   1      -8.954   2.072 124.566  0.00  0.00    +0.121 A 
ATOM      7  C   LIG A   1      -8.366   3.215 123.981  0.00  0.00    +0.090 A 
ATOM      8  C   LIG A   1      -6.993   3.367 124.090  0.00  0.00    +0.121 A 
ATOM      9  C   LIG A   1      -6.189   2.433 124.731  0.00  0.00    +0.049 A 
BRANCH   8  10
ATOM     10  O   LIG A   1      -6.465   4.510 123.545  0.00  0.00    -0.507 OA
ATOM     11  H   LIG A   1      -7.159   5.172 123.464  0.00  0.00    +0.292 HD
ENDBRANCH   8  10
BRANCH   6  12
ATOM     12  O   LIG A   1     -10.298   1.937 124.465  0.00  0.00    -0.507 OA
ATOM     13  H   LIG A   1     -10.504   0.974 124.531  0.00  0.00    +0.292 HD
ENDBRANCH   6  12
ENDBRANCH   3   4
ENDBRANCH   2   3
ENDBRANCH   1   2
BRANCH   1  14
ATOM     14  C   LIG A   1      -6.386  -2.308 129.113  0.00  0.00    +0.000 C 
BRANCH  14  15
ATOM     15  C   LIG A   1      -7.885  -2.325 129.430  0.00  0.00    -0.000 C 
BRANCH  15  16
ATOM     16  C   LIG A   1      -8.750  -3.499 128.876  0.00  0.00    -0.000 C 
BRANCH  16  17
ATOM     17  C   LIG A   1      -8.633  -3.875 127.347  0.00  0.00    -0.000 C 
BRANCH  17  18
ATOM     18  C   LIG A   1      -8.819  -2.674 126.347  0.00  0.00    -0.000 C 
BRANCH  18  19
ATOM     19  C   LIG A   1      -9.552  -2.877 124.927  0.00  0.00    -0.000 C 
BRANCH  19  20
ATOM     20  C   LIG A   1      -8.718  -2.998 123.575  0.00  0.00    -0.000 C 
BRANCH  20  21
ATOM     21  C   LIG A   1      -7.966  -1.690 122.995  0.00  0.00    -0.000 C 
BRANCH  21  22
ATOM     22  C   LIG A   1      -6.376  -1.691 122.982  0.00  0.00    -0.000 C 
BRANCH  22  23
ATOM     23  C   LIG A   1      -5.614  -2.707 123.940  0.00  0.00    -0.000 C 
BRANCH  23  25
ATOM     24  C   LIG A   1      -4.131  -4.897 123.633  0.00  0.00    +0.004 C 
ATOM     25  C   LIG A   1      -4.438  -3.438 123.261  0.00  0.00    -0.003 C 
ENDBRANCH  23  25
ENDBRANCH  22  23
ENDBRANCH  21  22
ENDBRANCH  20  21
ENDBRANCH  19  20
ENDBRANCH  18  19
ENDBRANCH  17  18
ENDBRANCH  16  17
ENDBRANCH  15  16
ENDBRANCH  14  15
ENDBRANCH   1  14
TORSDOF 16
ENDMDL
MODEL 4
REMARK VINA RESULT:      -6.1      6.543     10.624
REMARK  Name = NuBBE_1678
REMARK  17 active torsions:
REMARK  status: ('A' for Active; 'I' for Inactive)
REMARK    1  A    between atoms: C_1  and  C_2
REMARK    2  A    between atoms: C_2  and  C_3
REMARK    3  A    between atoms: C_3  and  C_4
REMARK    4  A    between atoms: C_4  and  C_5
REMARK    5  A    between atoms: C_5  and  C_6
REMARK    6  A    between atoms: C_6  and  C_7
REMARK    7  A    between atoms: C_7  and  C_8
REMARK    8  A    between atoms: C_8  and  C_9
REMARK    9  A    between atoms: C_9  and  C_10
REMARK   10  A    between atoms: C_10  and  C_11
REMARK   11  A    between atoms: C_11  and  C_12
REMARK   12  A    between atoms: C_12  and  C_13
REMARK   13  A    between atoms: C_13  and  C_14
REMARK   14  A    between atoms: C_14  and  C_15
REMARK   15  A    between atoms: C_15  and  C_16
REMARK   16  A    between atoms: C_18  and  O_19
REMARK   17  A    between atoms: C_21  and  O_22
REMARK                            x       y       z     vdW  Elec       q    Type
REMARK                         _______ _______ _______ _____ _____    ______ ____
ROOT
ATOM      1  C   LIG A   1      -4.347  -2.561 129.227  0.00  0.00    +0.000 C 
ENDROOT
BRANCH   1   2
ATOM      2  C   LIG A   1      -4.117  -3.843 130.068  0.00  0.00    +0.005 C 
BRANCH   2   3
ATOM      3  C   LIG A   1      -5.238  -4.765 130.613  0.00  0.00    +0.035 C 
BRANCH   3   4
ATOM      4  C   LIG A   1      -5.867  -4.464 131.955  0.00  0.00    -0.041 A 
ATOM      5  C   LIG A   1      -5.545  -5.266 133.043  0.00  0.00    +0.049 A 
ATOM      6  C   LIG A   1      -6.015  -5.028 134.308  0.00  0.00    +0.121 A 
ATOM      7  C   LIG A   1      -6.813  -3.890 134.557  0.00  0.00    +0.090 A 
ATOM      8  C   LIG A   1      -7.106  -3.056 133.489  0.00  0.00    +0.121 A 
ATOM      9  C   LIG A   1      -6.663  -3.315 132.198  0.00  0.00    +0.049 A 
BRANCH   8  10
ATOM     10  O   LIG A   1      -7.849  -1.939 133.778  0.00  0.00    -0.507 OA
ATOM     11  H   LIG A   1      -7.592  -1.226 133.185  0.00  0.00    +0.292 HD
ENDBRANCH   8  10
BRANCH   6  12
ATOM     12  O   LIG A   1      -5.722  -5.830 135.359  0.00  0.00    -0.507 OA
ATOM     13  H   LIG A   1      -5.639  -6.751 135.015  0.00  0.00    +0.292 HD
ENDBRANCH   6  12
ENDBRANCH   3   4
ENDBRANCH   2   3
ENDBRANCH   1   2
BRANCH   1  14
ATOM     14  C   LIG A   1      -5.230  -2.451 127.974  0.00  0.00    +0.000 C 
BRANCH  14  15
ATOM     15  C   LIG A   1      -6.443  -1.515 127.991  0.00  0.00    -0.000 C 
BRANCH  15  16
ATOM     16  C   LIG A   1      -7.674  -1.907 128.864  0.00  0.00    -0.000 C 
BRANCH  16  17
ATOM     17  C   LIG A   1      -8.192  -3.398 128.824  0.00  0.00    -0.000 C 
BRANCH  17  18
ATOM     18  C   LIG A   1      -8.845  -3.841 127.462  0.00  0.00    -0.000 C 
BRANCH  18  19
ATOM     19  C   LIG A   1      -9.307  -2.755 126.366  0.00  0.00    -0.000 C 
BRANCH  19  20
ATOM     20  C   LIG A   1      -9.359  -3.115 124.815  0.00  0.00    -0.000 C 
BRANCH  20  21
ATOM     21  C   LIG A   1      -8.019  -3.653 124.088  0.00  0.00    -0.000 C 
BRANCH  21  22
ATOM     22  C   LIG A   1      -6.626  -3.042 124.551  0.00  0.00    -0.000 C 
BRANCH  22  23
ATOM     23  C   LIG A   1      -5.572  -2.633 123.433  0.00  0.00    -0.000 C 
BRANCH  23  25
ATOM     24  C   LIG A   1      -4.276  -4.959 123.423  0.00  0.00    +0.004 C 
ATOM     25  C   LIG A   1      -4.250  -3.424 123.506  0.00  0.00    -0.003 C 
ENDBRANCH  23  25
ENDBRANCH  22  23
ENDBRANCH  21  22
ENDBRANCH  20  21
ENDBRANCH  19  20
ENDBRANCH  18  19
ENDBRANCH  17  18
ENDBRANCH  16  17
ENDBRANCH  15  16
ENDBRANCH  14  15
ENDBRANCH   1  14
TORSDOF 16
ENDMDL
MODEL 5
REMARK VINA RESULT:      -5.9      2.838      4.869
REMARK  Name = NuBBE_1678
REMARK  17 active torsions:
REMARK  status: ('A' for Active; 'I' for Inactive)
REMARK    1  A    between atoms: C_1  and  C_2
REMARK    2  A    between atoms: C_2  and  C_3
REMARK    3  A    between atoms: C_3  and  C_4
REMARK    4  A    between atoms: C_4  and  C_5
REMARK    5  A    between atoms: C_5  and  C_6
REMARK    6  A    between atoms: C_6  and  C_7
REMARK    7  A    between atoms: C_7  and  C_8
REMARK    8  A    between atoms: C_8  and  C_9
REMARK    9  A    between atoms: C_9  and  C_10
REMARK   10  A    between atoms: C_10  and  C_11
REMARK   11  A    between atoms: C_11  and  C_12
REMARK   12  A    between atoms: C_12  and  C_13
REMARK   13  A    between atoms: C_13  and  C_14
REMARK   14  A    between atoms: C_14  and  C_15
REMARK   15  A    between atoms: C_15  and  C_16
REMARK   16  A    between atoms: C_18  and  O_19
REMARK   17  A    between atoms: C_21  and  O_22
REMARK                            x       y       z     vdW  Elec       q    Type
REMARK                         _______ _______ _______ _____ _____    ______ ____
ROOT
ATOM      1  C   LIG A   1      -8.706  -2.744 123.980  0.00  0.00    +0.000 C 
ENDROOT
BRANCH   1   2
ATOM      2  C   LIG A   1      -7.619  -2.228 123.001  0.00  0.00    +0.005 C 
BRANCH   2   3
ATOM      3  C   LIG A   1      -6.834  -0.900 123.159  0.00  0.00    +0.035 C 
BRANCH   3   4
ATOM      4  C   LIG A   1      -7.589   0.390 123.390  0.00  0.00    -0.041 A 
ATOM      5  C   LIG A   1      -8.962   0.337 123.596  0.00  0.00    +0.049 A 
ATOM      6  C   LIG A   1      -9.716   1.447 123.877  0.00  0.00    +0.121 A 
ATOM      7  C   LIG A   1      -9.087   2.701 124.030  0.00  0.00    +0.090 A 
ATOM      8  C   LIG A   1      -7.712   2.762 123.870  0.00  0.00    +0.121 A 
ATOM      9  C   LIG A   1      -6.949   1.646 123.548  0.00  0.00    +0.049 A 
BRANCH   8  10
ATOM     10  O   LIG A   1      -7.132   3.991 124.066  0.00  0.00    -0.507 OA
ATOM     11  H   LIG A   1      -7.263   4.259 124.981  0.00  0.00    +0.292 HD
ENDBRANCH   8  10
BRANCH   6  12
ATOM     12  O   LIG A   1     -11.059   1.394 124.048  0.00  0.00    -0.507 OA
ATOM     13  H   LIG A   1     -11.419   2.289 123.842  0.00  0.00    +0.292 HD
ENDBRANCH   6  12
ENDBRANCH   3   4
ENDBRANCH   2   3
ENDBRANCH   1   2
BRANCH   1  14
ATOM     14  C   LIG A   1      -8.469  -3.665 125.187  0.00  0.00    +0.000 C 
BRANCH  14  15
ATOM     15  C   LIG A   1      -9.067  -3.288 126.547  0.00  0.00    -0.000 C 
BRANCH  15  16
ATOM     16  C   LIG A   1      -8.521  -3.999 127.823  0.00  0.00    -0.000 C 
BRANCH  16  17
ATOM     17  C   LIG A   1      -8.650  -3.268 129.216  0.00  0.00    -0.000 C 
BRANCH  17  18
ATOM     18  C   LIG A   1      -7.321  -2.621 129.757  0.00  0.00    -0.000 C 
BRANCH  18  19
ATOM     19  C   LIG A   1      -5.879  -3.117 129.235  0.00  0.00    -0.000 C 
BRANCH  19  20
ATOM     20  C   LIG A   1      -5.022  -2.241 128.217  0.00  0.00    -0.000 C 
BRANCH  20  21
ATOM     21  C   LIG A   1      -5.701  -1.758 126.832  0.00  0.00    -0.000 C 
BRANCH  21  22
ATOM     22  C   LIG A   1      -6.158  -0.240 126.719  0.00  0.00    -0.000 C 
BRANCH  22  23
ATOM     23  C   LIG A   1      -7.672   0.119 127.052  0.00  0.00    -0.000 C 
BRANCH  23  25
ATOM     24  C   LIG A   1      -6.686   1.189 129.283  0.00  0.00    +0.004 C 
ATOM     25  C   LIG A   1      -7.884   0.649 128.485  0.00  0.00    -0.003 C 
ENDBRANCH  23  25
ENDBRANCH  22  23
ENDBRANCH  21  22
ENDBRANCH  20  21
ENDBRANCH  19  20
ENDBRANCH  18  19
ENDBRANCH  17  18
ENDBRANCH  16  17
ENDBRANCH  15  16
ENDBRANCH  14  15
ENDBRANCH   1  14
TORSDOF 16
ENDMDL
MODEL 6
REMARK VINA RESULT:      -5.9      3.049      4.733
REMARK  Name = NuBBE_1678
REMARK  17 active torsions:
REMARK  status: ('A' for Active; 'I' for Inactive)
REMARK    1  A    between atoms: C_1  and  C_2
REMARK    2  A    between atoms: C_2  and  C_3
REMARK    3  A    between atoms: C_3  and  C_4
REMARK    4  A    between atoms: C_4  and  C_5
REMARK    5  A    between atoms: C_5  and  C_6
REMARK    6  A    between atoms: C_6  and  C_7
REMARK    7  A    between atoms: C_7  and  C_8
REMARK    8  A    between atoms: C_8  and  C_9
REMARK    9  A    between atoms: C_9  and  C_10
REMARK   10  A    between atoms: C_10  and  C_11
REMARK   11  A    between atoms: C_11  and  C_12
REMARK   12  A    between atoms: C_12  and  C_13
REMARK   13  A    between atoms: C_13  and  C_14
REMARK   14  A    between atoms: C_14  and  C_15
REMARK   15  A    between atoms: C_15  and  C_16
REMARK   16  A    between atoms: C_18  and  O_19
REMARK   17  A    between atoms: C_21  and  O_22
REMARK                            x       y       z     vdW  Elec       q    Type
REMARK                         _______ _______ _______ _____ _____    ______ ____
ROOT
ATOM      1  C   LIG A   1      -6.446  -1.665 122.653  0.00  0.00    +0.000 C 
ENDROOT
BRANCH   1   2
ATOM      2  C   LIG A   1      -7.932  -1.879 122.266  0.00  0.00    +0.005 C 
BRANCH   2   3
ATOM      3  C   LIG A   1      -9.142  -1.214 122.974  0.00  0.00    +0.035 C 
BRANCH   3   4
ATOM      4  C   LIG A   1      -8.949   0.087 123.720  0.00  0.00    -0.041 A 
ATOM      5  C   LIG A   1      -8.791   1.260 122.993  0.00  0.00    +0.049 A 
ATOM      6  C   LIG A   1      -8.676   2.492 123.584  0.00  0.00    +0.121 A 
ATOM      7  C   LIG A   1      -8.780   2.609 124.987  0.00  0.00    +0.090 A 
ATOM      8  C   LIG A   1      -8.981   1.451 125.722  0.00  0.00    +0.121 A 
ATOM      9  C   LIG A   1      -9.061   0.197 125.129  0.00  0.00    +0.049 A 
BRANCH   8  10
ATOM     10  O   LIG A   1      -9.118   1.610 127.078  0.00  0.00    -0.507 OA
ATOM     11  H   LIG A   1     -10.049   1.536 127.313  0.00  0.00    +0.292 HD
ENDBRANCH   8  10
BRANCH   6  12
ATOM     12  O   LIG A   1      -8.492   3.630 122.872  0.00  0.00    -0.507 OA
ATOM     13  H   LIG A   1      -8.527   3.389 121.916  0.00  0.00    +0.292 HD
ENDBRANCH   6  12
ENDBRANCH   3   4
ENDBRANCH   2   3
ENDBRANCH   1   2
BRANCH   1  14
ATOM     14  C   LIG A   1      -5.515  -2.717 123.274  0.00  0.00    +0.000 C 
BRANCH  14  15
ATOM     15  C   LIG A   1      -5.441  -2.848 124.799  0.00  0.00    -0.000 C 
BRANCH  15  16
ATOM     16  C   LIG A   1      -6.718  -2.528 125.636  0.00  0.00    -0.000 C 
BRANCH  16  17
ATOM     17  C   LIG A   1      -7.959  -3.498 125.533  0.00  0.00    -0.000 C 
BRANCH  17  18
ATOM     18  C   LIG A   1      -9.078  -3.269 126.617  0.00  0.00    -0.000 C 
BRANCH  18  19
ATOM     19  C   LIG A   1      -8.998  -3.978 128.061  0.00  0.00    -0.000 C 
BRANCH  19  20
ATOM     20  C   LIG A   1      -8.179  -3.323 129.261  0.00  0.00    -0.000 C 
BRANCH  20  21
ATOM     21  C   LIG A   1      -7.672  -1.795 129.123  0.00  0.00    -0.000 C 
BRANCH  21  22
ATOM     22  C   LIG A   1      -6.447  -1.334 130.026  0.00  0.00    -0.000 C 
BRANCH  22  23
ATOM     23  C   LIG A   1      -5.055  -1.035 129.316  0.00  0.00    -0.000 C 
BRANCH  23  25
ATOM     24  C   LIG A   1      -4.093  -3.514 129.185  0.00  0.00    +0.004 C 
ATOM     25  C   LIG A   1      -3.953  -2.057 129.656  0.00  0.00    -0.003 C 
ENDBRANCH  23  25
ENDBRANCH  22  23
ENDBRANCH  21  22
ENDBRANCH  20  21
ENDBRANCH  19  20
ENDBRANCH  18  19
ENDBRANCH  17  18
ENDBRANCH  16  17
ENDBRANCH  15  16
ENDBRANCH  14  15
ENDBRANCH   1  14
TORSDOF 16
ENDMDL
MODEL 7
REMARK VINA RESULT:      -5.9      6.926     10.040
REMARK  Name = NuBBE_1678
REMARK  17 active torsions:
REMARK  status: ('A' for Active; 'I' for Inactive)
REMARK    1  A    between atoms: C_1  and  C_2
REMARK    2  A    between atoms: C_2  and  C_3
REMARK    3  A    between atoms: C_3  and  C_4
REMARK    4  A    between atoms: C_4  and  C_5
REMARK    5  A    between atoms: C_5  and  C_6
REMARK    6  A    between atoms: C_6  and  C_7
REMARK    7  A    between atoms: C_7  and  C_8
REMARK    8  A    between atoms: C_8  and  C_9
REMARK    9  A    between atoms: C_9  and  C_10
REMARK   10  A    between atoms: C_10  and  C_11
REMARK   11  A    between atoms: C_11  and  C_12
REMARK   12  A    between atoms: C_12  and  C_13
REMARK   13  A    between atoms: C_13  and  C_14
REMARK   14  A    between atoms: C_14  and  C_15
REMARK   15  A    between atoms: C_15  and  C_16
REMARK   16  A    between atoms: C_18  and  O_19
REMARK   17  A    between atoms: C_21  and  O_22
REMARK                            x       y       z     vdW  Elec       q    Type
REMARK                         _______ _______ _______ _____ _____    ______ ____
ROOT
ATOM      1  C   LIG A   1      -8.073   2.974 133.393  0.00  0.00    +0.000 C 
ENDROOT
BRANCH   1   2
ATOM      2  C   LIG A   1      -7.309   4.250 132.955  0.00  0.00    +0.005 C 
BRANCH   2   3
ATOM      3  C   LIG A   1      -7.862   5.696 133.047  0.00  0.00    +0.035 C 
BRANCH   3   4
ATOM      4  C   LIG A   1      -8.932   6.150 132.079  0.00  0.00    -0.041 A 
ATOM      5  C   LIG A   1     -10.265   6.037 132.451  0.00  0.00    +0.049 A 
ATOM      6  C   LIG A   1     -11.297   6.482 131.666  0.00  0.00    +0.121 A 
ATOM      7  C   LIG A   1     -11.018   7.143 130.450  0.00  0.00    +0.090 A 
ATOM      8  C   LIG A   1      -9.690   7.301 130.086  0.00  0.00    +0.121 A 
ATOM      9  C   LIG A   1      -8.643   6.818 130.862  0.00  0.00    +0.049 A 
BRANCH   8  10
ATOM     10  O   LIG A   1      -9.458   7.984 128.919  0.00  0.00    -0.507 OA
ATOM     11  H   LIG A   1      -9.055   7.388 128.279  0.00  0.00    +0.292 HD
ENDBRANCH   8  10
BRANCH   6  12
ATOM     12  O   LIG A   1     -12.597   6.343 132.020  0.00  0.00    -0.507 OA
ATOM     13  H   LIG A   1     -12.752   6.914 132.810  0.00  0.00    +0.292 HD
ENDBRANCH   6  12
ENDBRANCH   3   4
ENDBRANCH   2   3
ENDBRANCH   1   2
BRANCH   1  14
ATOM     14  C   LIG A   1      -8.867   2.036 132.470  0.00  0.00    +0.000 C 
BRANCH  14  15
ATOM     15  C   LIG A   1      -9.953   2.621 131.561  0.00  0.00    -0.000 C 
BRANCH  15  16
ATOM     16  C   LIG A   1      -9.597   2.920 130.072  0.00  0.00    -0.000 C 
BRANCH  16  17
ATOM     17  C   LIG A   1      -8.154   2.552 129.547  0.00  0.00    -0.000 C 
BRANCH  17  18
ATOM     18  C   LIG A   1      -7.201   3.780 129.297  0.00  0.00    -0.000 C 
BRANCH  18  19
ATOM     19  C   LIG A   1      -5.727   3.837 129.946  0.00  0.00    -0.000 C 
BRANCH  19  20
ATOM     20  C   LIG A   1      -5.001   5.226 130.228  0.00  0.00    -0.000 C 
BRANCH  20  21
ATOM     21  C   LIG A   1      -3.385   5.277 130.249  0.00  0.00    -0.000 C 
BRANCH  21  22
ATOM     22  C   LIG A   1      -2.638   5.738 128.924  0.00  0.00    -0.000 C 
BRANCH  22  23
ATOM     23  C   LIG A   1      -2.937   4.949 127.575  0.00  0.00    -0.000 C 
BRANCH  23  25
ATOM     24  C   LIG A   1      -1.556   2.993 126.411  0.00  0.00    +0.004 C 
ATOM     25  C   LIG A   1      -2.420   3.497 127.578  0.00  0.00    -0.003 C 
ENDBRANCH  23  25
ENDBRANCH  22  23
ENDBRANCH  21  22
ENDBRANCH  20  21
ENDBRANCH  19  20
ENDBRANCH  18  19
ENDBRANCH  17  18
ENDBRANCH  16  17
ENDBRANCH  15  16
ENDBRANCH  14  15
ENDBRANCH   1  14
TORSDOF 16
ENDMDL
MODEL 8
REMARK VINA RESULT:      -5.8      2.605      4.731
REMARK  Name = NuBBE_1678
REMARK  17 active torsions:
REMARK  status: ('A' for Active; 'I' for Inactive)
REMARK    1  A    between atoms: C_1  and  C_2
REMARK    2  A    between atoms: C_2  and  C_3
REMARK    3  A    between atoms: C_3  and  C_4
REMARK    4  A    between atoms: C_4  and  C_5
REMARK    5  A    between atoms: C_5  and  C_6
REMARK    6  A    between atoms: C_6  and  C_7
REMARK    7  A    between atoms: C_7  and  C_8
REMARK    8  A    between atoms: C_8  and  C_9
REMARK    9  A    between atoms: C_9  and  C_10
REMARK   10  A    between atoms: C_10  and  C_11
REMARK   11  A    between atoms: C_11  and  C_12
REMARK   12  A    between atoms: C_12  and  C_13
REMARK   13  A    between atoms: C_13  and  C_14
REMARK   14  A    between atoms: C_14  and  C_15
REMARK   15  A    between atoms: C_15  and  C_16
REMARK   16  A    between atoms: C_18  and  O_19
REMARK   17  A    between atoms: C_21  and  O_22
REMARK                            x       y       z     vdW  Elec       q    Type
REMARK                         _______ _______ _______ _____ _____    ______ ____
ROOT
ATOM      1  C   LIG A   1      -5.785  -1.877 124.229  0.00  0.00    +0.000 C 
ENDROOT
BRANCH   1   2
ATOM      2  C   LIG A   1      -5.806  -0.683 125.218  0.00  0.00    +0.005 C 
BRANCH   2   3
ATOM      3  C   LIG A   1      -7.080   0.079 125.668  0.00  0.00    +0.035 C 
BRANCH   3   4
ATOM      4  C   LIG A   1      -7.927   0.792 124.639  0.00  0.00    -0.041 A 
ATOM      5  C   LIG A   1      -7.428   1.941 124.038  0.00  0.00    +0.049 A 
ATOM      6  C   LIG A   1      -8.096   2.615 123.049  0.00  0.00    +0.121 A 
ATOM      7  C   LIG A   1      -9.319   2.107 122.558  0.00  0.00    +0.090 A 
ATOM      8  C   LIG A   1      -9.808   0.937 123.118  0.00  0.00    +0.121 A 
ATOM      9  C   LIG A   1      -9.151   0.272 124.146  0.00  0.00    +0.049 A 
BRANCH   8  10
ATOM     10  O   LIG A   1     -10.977   0.453 122.586  0.00  0.00    -0.507 OA
ATOM     11  H   LIG A   1     -11.062  -0.480 122.808  0.00  0.00    +0.292 HD
ENDBRANCH   8  10
BRANCH   6  12
ATOM     12  O   LIG A   1      -7.619   3.751 122.488  0.00  0.00    -0.507 OA
ATOM     13  H   LIG A   1      -7.807   4.492 123.113  0.00  0.00    +0.292 HD
ENDBRANCH   6  12
ENDBRANCH   3   4
ENDBRANCH   2   3
ENDBRANCH   1   2
BRANCH   1  14
ATOM     14  C   LIG A   1      -7.014  -2.537 123.585  0.00  0.00    +0.000 C 
BRANCH  14  15
ATOM     15  C   LIG A   1      -7.768  -3.629 124.352  0.00  0.00    -0.000 C 
BRANCH  15  16
ATOM     16  C   LIG A   1      -9.011  -3.219 125.200  0.00  0.00    -0.000 C 
BRANCH  16  17
ATOM     17  C   LIG A   1      -8.965  -3.424 126.765  0.00  0.00    -0.000 C 
BRANCH  17  18
ATOM     18  C   LIG A   1      -7.645  -2.927 127.466  0.00  0.00    -0.000 C 
BRANCH  18  19
ATOM     19  C   LIG A   1      -7.685  -2.218 128.912  0.00  0.00    -0.000 C 
BRANCH  19  20
ATOM     20  C   LIG A   1      -7.941  -3.060 130.240  0.00  0.00    -0.000 C 
BRANCH  20  21
ATOM     21  C   LIG A   1      -7.006  -2.793 131.531  0.00  0.00    -0.000 C 
BRANCH  21  22
ATOM     22  C   LIG A   1      -5.655  -3.622 131.655  0.00  0.00    -0.000 C 
BRANCH  22  23
ATOM     23  C   LIG A   1      -5.154  -4.442 130.387  0.00  0.00    -0.000 C 
BRANCH  23  25
ATOM     24  C   LIG A   1      -3.621  -2.305 129.971  0.00  0.00    +0.004 C 
ATOM     25  C   LIG A   1      -4.151  -3.670 129.506  0.00  0.00    -0.003 C 
ENDBRANCH  23  25
ENDBRANCH  22  23
ENDBRANCH  21  22
ENDBRANCH  20  21
ENDBRANCH  19  20
ENDBRANCH  18  19
ENDBRANCH  17  18
ENDBRANCH  16  17
ENDBRANCH  15  16
ENDBRANCH  14  15
ENDBRANCH   1  14
TORSDOF 16
ENDMDL
MODEL 9
REMARK VINA RESULT:      -5.8      3.897      5.614
REMARK  Name = NuBBE_1678
REMARK  17 active torsions:
REMARK  status: ('A' for Active; 'I' for Inactive)
REMARK    1  A    between atoms: C_1  and  C_2
REMARK    2  A    between atoms: C_2  and  C_3
REMARK    3  A    between atoms: C_3  and  C_4
REMARK    4  A    between atoms: C_4  and  C_5
REMARK    5  A    between atoms: C_5  and  C_6
REMARK    6  A    between atoms: C_6  and  C_7
REMARK    7  A    between atoms: C_7  and  C_8
REMARK    8  A    between atoms: C_8  and  C_9
REMARK    9  A    between atoms: C_9  and  C_10
REMARK   10  A    between atoms: C_10  and  C_11
REMARK   11  A    between atoms: C_11  and  C_12
REMARK   12  A    between atoms: C_12  and  C_13
REMARK   13  A    between atoms: C_13  and  C_14
REMARK   14  A    between atoms: C_14  and  C_15
REMARK   15  A    between atoms: C_15  and  C_16
REMARK   16  A    between atoms: C_18  and  O_19
REMARK   17  A    between atoms: C_21  and  O_22
REMARK                            x       y       z     vdW  Elec       q    Type
REMARK                         _______ _______ _______ _____ _____    ______ ____
ROOT
ATOM      1  C   LIG A   1      -7.854  -3.740 124.875  0.00  0.00    +0.000 C 
ENDROOT
BRANCH   1   2
ATOM      2  C   LIG A   1      -6.855  -2.897 124.040  0.00  0.00    +0.005 C 
BRANCH   2   3
ATOM      3  C   LIG A   1      -6.588  -1.382 124.233  0.00  0.00    +0.035 C 
BRANCH   3   4
ATOM      4  C   LIG A   1      -7.750  -0.414 124.234  0.00  0.00    -0.041 A 
ATOM      5  C   LIG A   1      -7.707   0.685 125.083  0.00  0.00    +0.049 A 
ATOM      6  C   LIG A   1      -8.683   1.648 125.105  0.00  0.00    +0.121 A 
ATOM      7  C   LIG A   1      -9.758   1.577 124.193  0.00  0.00    +0.090 A 
ATOM      8  C   LIG A   1      -9.791   0.509 123.310  0.00  0.00    +0.121 A 
ATOM      9  C   LIG A   1      -8.824  -0.489 123.310  0.00  0.00    +0.049 A 
BRANCH   8  10
ATOM     10  O   LIG A   1     -10.829   0.496 122.412  0.00  0.00    -0.507 OA
ATOM     11  H   LIG A   1     -11.615   0.144 122.842  0.00  0.00    +0.292 HD
ENDBRANCH   8  10
BRANCH   6  12
ATOM     12  O   LIG A   1      -8.651   2.701 125.956  0.00  0.00    -0.507 OA
ATOM     13  H   LIG A   1      -9.281   3.378 125.612  0.00  0.00    +0.292 HD
ENDBRANCH   6  12
ENDBRANCH   3   4
ENDBRANCH   2   3
ENDBRANCH   1   2
BRANCH   1  14
ATOM     14  C   LIG A   1      -8.934  -3.185 125.817  0.00  0.00    +0.000 C 
BRANCH  14  15
ATOM     15  C   LIG A   1      -9.056  -3.752 127.236  0.00  0.00    -0.000 C 
BRANCH  15  16
ATOM     16  C   LIG A   1      -8.074  -3.233 128.331  0.00  0.00    -0.000 C 
BRANCH  16  17
ATOM     17  C   LIG A   1      -7.190  -1.963 128.021  0.00  0.00    -0.000 C 
BRANCH  17  18
ATOM     18  C   LIG A   1      -5.673  -2.260 127.725  0.00  0.00    -0.000 C 
BRANCH  18  19
ATOM     19  C   LIG A   1      -4.594  -2.354 128.918  0.00  0.00    -0.000 C 
BRANCH  19  20
ATOM     20  C   LIG A   1      -4.302  -3.731 129.664  0.00  0.00    -0.000 C 
BRANCH  20  21
ATOM     21  C   LIG A   1      -5.505  -4.467 130.454  0.00  0.00    -0.000 C 
BRANCH  21  22
ATOM     22  C   LIG A   1      -5.982  -3.839 131.833  0.00  0.00    -0.000 C 
BRANCH  22  23
ATOM     23  C   LIG A   1      -7.331  -2.994 131.853  0.00  0.00    -0.000 C 
BRANCH  23  25
ATOM     24  C   LIG A   1      -5.711  -0.891 132.066  0.00  0.00    +0.004 C 
ATOM     25  C   LIG A   1      -7.109  -1.469 131.795  0.00  0.00    -0.003 C 
ENDBRANCH  23  25
ENDBRANCH  22  23
ENDBRANCH  21  22
ENDBRANCH  20  21
ENDBRANCH  19  20
ENDBRANCH  18  19
ENDBRANCH  17  18
ENDBRANCH  16  17
ENDBRANCH  15  16
ENDBRANCH  14  15
ENDBRANCH   1  14
TORSDOF 16
ENDMDL
