MODEL 1
REMARK VINA RESULT:      -6.9      0.000      0.000
REMARK  Name = NuBBE_1732
REMARK  7 active torsions:
REMARK  status: ('A' for Active; 'I' for Inactive)
REMARK    1  A    between atoms: C_1  and  C_2
REMARK    2  A    between atoms: C_1  and  C_7
REMARK    3  A    between atoms: C_2  and  C_3
REMARK    4  A    between atoms: C_4  and  C_5
REMARK    5  A    between atoms: C_4  and  C_6
REMARK    6  A    between atoms: C_7  and  C_8
REMARK    7  A    between atoms: C_14  and  C_15
REMARK                            x       y       z     vdW  Elec       q    Type
REMARK                         _______ _______ _______ _____ _____    ______ ____
ROOT
ATOM      1  C   LIG A   1     -11.584   7.864 128.174  0.00  0.00    -0.022 C 
ATOM      2  C   LIG A   1     -11.222   7.526 126.710  0.00  0.00    +0.012 C 
ATOM      3  C   LIG A   1     -12.852   8.824 128.329  0.00  0.00    +0.021 C 
ATOM      4  C   LIG A   1     -13.721   7.529 128.112  0.00  0.00    +0.012 C 
ATOM      5  C   LIG A   1     -12.559   6.804 128.867  0.00  0.00    -0.000 C 
ATOM      6  C   LIG A   1     -12.762   6.965 130.391  0.00  0.00    +0.031 C 
ATOM      7  C   LIG A   1     -13.028   8.424 130.707  0.00  0.00    -0.027 C 
ATOM      8  C   LIG A   1     -13.063   9.348 129.726  0.00  0.00    -0.073 C 
ATOM      9  C   LIG A   1     -13.328  10.803 129.916  0.00  0.00    +0.039 C 
ENDROOT
BRANCH   1  10
ATOM     10  C   LIG A   1     -10.283   8.165 128.957  0.00  0.00    +0.011 C 
BRANCH  10  11
ATOM     11  C   LIG A   1      -9.479   6.903 129.282  0.00  0.00    +0.028 C 
BRANCH  11  12
ATOM     12  C   LIG A   1      -9.127   6.845 130.745  0.00  0.00    -0.028 C 
ATOM     13  C   LIG A   1      -9.369   5.838 131.605  0.00  0.00    -0.080 C 
ATOM     14  C   LIG A   1     -10.018   4.529 131.244  0.00  0.00    +0.038 C 
ATOM     15  C   LIG A   1      -8.969   5.946 133.053  0.00  0.00    +0.038 C 
ENDBRANCH  11  12
ENDBRANCH  10  11
ENDBRANCH   1  10
TORSDOF 3
ENDMDL
MODEL 2
REMARK VINA RESULT:      -6.7      9.989     12.312
REMARK  Name = NuBBE_1732
REMARK  7 active torsions:
REMARK  status: ('A' for Active; 'I' for Inactive)
REMARK    1  A    between atoms: C_1  and  C_2
REMARK    2  A    between atoms: C_1  and  C_7
REMARK    3  A    between atoms: C_2  and  C_3
REMARK    4  A    between atoms: C_4  and  C_5
REMARK    5  A    between atoms: C_4  and  C_6
REMARK    6  A    between atoms: C_7  and  C_8
REMARK    7  A    between atoms: C_14  and  C_15
REMARK                            x       y       z     vdW  Elec       q    Type
REMARK                         _______ _______ _______ _____ _____    ______ ____
ROOT
ATOM      1  C   LIG A   1      -8.044  -2.905 124.128  0.00  0.00    -0.022 C 
ATOM      2  C   LIG A   1      -9.358  -3.031 123.325  0.00  0.00    +0.012 C 
ATOM      3  C   LIG A   1      -6.723  -2.959 123.231  0.00  0.00    +0.021 C 
ATOM      4  C   LIG A   1      -7.009  -1.444 122.913  0.00  0.00    +0.012 C 
ATOM      5  C   LIG A   1      -7.569  -1.399 124.372  0.00  0.00    -0.000 C 
ATOM      6  C   LIG A   1      -6.398  -1.209 125.363  0.00  0.00    +0.031 C 
ATOM      7  C   LIG A   1      -5.306  -2.209 125.041  0.00  0.00    -0.027 C 
ATOM      8  C   LIG A   1      -5.445  -3.079 124.020  0.00  0.00    -0.073 C 
ATOM      9  C   LIG A   1      -4.435  -4.094 123.604  0.00  0.00    +0.039 C 
ENDROOT
BRANCH   1  10
ATOM     10  C   LIG A   1      -8.150  -3.773 125.406  0.00  0.00    +0.011 C 
BRANCH  10  11
ATOM     11  C   LIG A   1      -9.093  -3.175 126.454  0.00  0.00    +0.028 C 
BRANCH  11  12
ATOM     12  C   LIG A   1      -8.660  -3.544 127.848  0.00  0.00    -0.028 C 
ATOM     13  C   LIG A   1      -8.053  -2.753 128.752  0.00  0.00    -0.080 C 
ATOM     14  C   LIG A   1      -7.722  -1.300 128.546  0.00  0.00    +0.038 C 
ATOM     15  C   LIG A   1      -7.664  -3.285 130.107  0.00  0.00    +0.038 C 
ENDBRANCH  11  12
ENDBRANCH  10  11
ENDBRANCH   1  10
TORSDOF 3
ENDMDL
MODEL 3
REMARK VINA RESULT:      -6.3     10.989     12.384
REMARK  Name = NuBBE_1732
REMARK  7 active torsions:
REMARK  status: ('A' for Active; 'I' for Inactive)
REMARK    1  A    between atoms: C_1  and  C_2
REMARK    2  A    between atoms: C_1  and  C_7
REMARK    3  A    between atoms: C_2  and  C_3
REMARK    4  A    between atoms: C_4  and  C_5
REMARK    5  A    between atoms: C_4  and  C_6
REMARK    6  A    between atoms: C_7  and  C_8
REMARK    7  A    between atoms: C_14  and  C_15
REMARK                            x       y       z     vdW  Elec       q    Type
REMARK                         _______ _______ _______ _____ _____    ______ ____
ROOT
ATOM      1  C   LIG A   1      -7.775  -2.562 125.767  0.00  0.00    -0.022 C 
ATOM      2  C   LIG A   1      -8.819  -3.174 126.728  0.00  0.00    +0.012 C 
ATOM      3  C   LIG A   1      -7.194  -3.591 124.691  0.00  0.00    +0.021 C 
ATOM      4  C   LIG A   1      -8.517  -3.322 123.883  0.00  0.00    +0.012 C 
ATOM      5  C   LIG A   1      -8.404  -1.876 124.468  0.00  0.00    -0.000 C 
ATOM      6  C   LIG A   1      -7.431  -1.048 123.599  0.00  0.00    +0.031 C 
ATOM      7  C   LIG A   1      -6.156  -1.841 123.385  0.00  0.00    -0.027 C 
ATOM      8  C   LIG A   1      -6.011  -3.071 123.916  0.00  0.00    -0.073 C 
ATOM      9  C   LIG A   1      -4.813  -3.945 123.761  0.00  0.00    +0.039 C 
ENDROOT
BRANCH   1  10
ATOM     10  C   LIG A   1      -6.811  -1.662 126.579  0.00  0.00    +0.011 C 
BRANCH  10  11
ATOM     11  C   LIG A   1      -6.560  -2.186 127.996  0.00  0.00    +0.028 C 
BRANCH  11  12
ATOM     12  C   LIG A   1      -5.108  -2.530 128.200  0.00  0.00    -0.028 C 
ATOM     13  C   LIG A   1      -4.582  -3.325 129.150  0.00  0.00    -0.080 C 
ATOM     14  C   LIG A   1      -5.372  -4.072 130.189  0.00  0.00    +0.038 C 
ATOM     15  C   LIG A   1      -3.094  -3.552 129.229  0.00  0.00    +0.038 C 
ENDBRANCH  11  12
ENDBRANCH  10  11
ENDBRANCH   1  10
TORSDOF 3
ENDMDL
MODEL 4
REMARK VINA RESULT:      -6.1      9.250     11.484
REMARK  Name = NuBBE_1732
REMARK  7 active torsions:
REMARK  status: ('A' for Active; 'I' for Inactive)
REMARK    1  A    between atoms: C_1  and  C_2
REMARK    2  A    between atoms: C_1  and  C_7
REMARK    3  A    between atoms: C_2  and  C_3
REMARK    4  A    between atoms: C_4  and  C_5
REMARK    5  A    between atoms: C_4  and  C_6
REMARK    6  A    between atoms: C_7  and  C_8
REMARK    7  A    between atoms: C_14  and  C_15
REMARK                            x       y       z     vdW  Elec       q    Type
REMARK                         _______ _______ _______ _____ _____    ______ ____
ROOT
ATOM      1  C   LIG A   1      -8.365  -2.424 125.719  0.00  0.00    -0.022 C 
ATOM      2  C   LIG A   1      -8.010  -2.825 127.169  0.00  0.00    +0.012 C 
ATOM      3  C   LIG A   1      -7.170  -2.622 124.676  0.00  0.00    +0.021 C 
ATOM      4  C   LIG A   1      -7.582  -4.141 124.661  0.00  0.00    +0.012 C 
ATOM      5  C   LIG A   1      -9.034  -3.595 124.863  0.00  0.00    -0.000 C 
ATOM      6  C   LIG A   1      -9.619  -3.184 123.492  0.00  0.00    +0.031 C 
ATOM      7  C   LIG A   1      -8.616  -2.312 122.763  0.00  0.00    -0.027 C 
ATOM      8  C   LIG A   1      -7.426  -2.013 123.322  0.00  0.00    -0.073 C 
ATOM      9  C   LIG A   1      -6.360  -1.181 122.695  0.00  0.00    +0.039 C 
ENDROOT
BRANCH   1  10
ATOM     10  C   LIG A   1      -9.160  -1.096 125.745  0.00  0.00    +0.011 C 
BRANCH  10  11
ATOM     11  C   LIG A   1      -8.498  -0.023 126.613  0.00  0.00    +0.028 C 
BRANCH  11  12
ATOM     12  C   LIG A   1      -7.891   1.064 125.765  0.00  0.00    -0.028 C 
ATOM     13  C   LIG A   1      -6.585   1.272 125.513  0.00  0.00    -0.080 C 
ATOM     14  C   LIG A   1      -5.460   0.408 126.013  0.00  0.00    +0.038 C 
ATOM     15  C   LIG A   1      -6.138   2.426 124.654  0.00  0.00    +0.038 C 
ENDBRANCH  11  12
ENDBRANCH  10  11
ENDBRANCH   1  10
TORSDOF 3
ENDMDL
MODEL 5
REMARK VINA RESULT:      -6.0      9.542     12.041
REMARK  Name = NuBBE_1732
REMARK  7 active torsions:
REMARK  status: ('A' for Active; 'I' for Inactive)
REMARK    1  A    between atoms: C_1  and  C_2
REMARK    2  A    between atoms: C_1  and  C_7
REMARK    3  A    between atoms: C_2  and  C_3
REMARK    4  A    between atoms: C_4  and  C_5
REMARK    5  A    between atoms: C_4  and  C_6
REMARK    6  A    between atoms: C_7  and  C_8
REMARK    7  A    between atoms: C_14  and  C_15
REMARK                            x       y       z     vdW  Elec       q    Type
REMARK                         _______ _______ _______ _____ _____    ______ ____
ROOT
ATOM      1  C   LIG A   1      -6.946  -1.780 125.268  0.00  0.00    -0.022 C 
ATOM      2  C   LIG A   1      -7.680  -1.850 126.626  0.00  0.00    +0.012 C 
ATOM      3  C   LIG A   1      -6.412  -3.191 124.741  0.00  0.00    +0.021 C 
ATOM      4  C   LIG A   1      -7.887  -3.444 124.254  0.00  0.00    +0.012 C 
ATOM      5  C   LIG A   1      -7.907  -1.901 123.998  0.00  0.00    -0.000 C 
ATOM      6  C   LIG A   1      -7.260  -1.603 122.626  0.00  0.00    +0.031 C 
ATOM      7  C   LIG A   1      -5.934  -2.332 122.531  0.00  0.00    -0.027 C 
ATOM      8  C   LIG A   1      -5.493  -3.097 123.550  0.00  0.00    -0.073 C 
ATOM      9  C   LIG A   1      -4.217  -3.868 123.563  0.00  0.00    +0.039 C 
ENDROOT
BRANCH   1  10
ATOM     10  C   LIG A   1      -6.011  -0.546 125.265  0.00  0.00    +0.011 C 
BRANCH  10  11
ATOM     11  C   LIG A   1      -6.715   0.735 125.721  0.00  0.00    +0.028 C 
BRANCH  11  12
ATOM     12  C   LIG A   1      -7.114   1.584 124.543  0.00  0.00    -0.028 C 
ATOM     13  C   LIG A   1      -8.361   1.835 124.102  0.00  0.00    -0.080 C 
ATOM     14  C   LIG A   1      -9.624   1.332 124.745  0.00  0.00    +0.038 C 
ATOM     15  C   LIG A   1      -8.591   2.696 122.887  0.00  0.00    +0.038 C 
ENDBRANCH  11  12
ENDBRANCH  10  11
ENDBRANCH   1  10
TORSDOF 3
ENDMDL
MODEL 6
REMARK VINA RESULT:      -5.9      9.327     11.766
REMARK  Name = NuBBE_1732
REMARK  7 active torsions:
REMARK  status: ('A' for Active; 'I' for Inactive)
REMARK    1  A    between atoms: C_1  and  C_2
REMARK    2  A    between atoms: C_1  and  C_7
REMARK    3  A    between atoms: C_2  and  C_3
REMARK    4  A    between atoms: C_4  and  C_5
REMARK    5  A    between atoms: C_4  and  C_6
REMARK    6  A    between atoms: C_7  and  C_8
REMARK    7  A    between atoms: C_14  and  C_15
REMARK                            x       y       z     vdW  Elec       q    Type
REMARK                         _______ _______ _______ _____ _____    ______ ____
ROOT
ATOM      1  C   LIG A   1      -7.677  -1.595 126.426  0.00  0.00    -0.022 C 
ATOM      2  C   LIG A   1      -7.907  -0.300 127.239  0.00  0.00    +0.012 C 
ATOM      3  C   LIG A   1      -8.276  -1.552 124.946  0.00  0.00    +0.021 C 
ATOM      4  C   LIG A   1      -6.983  -0.741 124.563  0.00  0.00    +0.012 C 
ATOM      5  C   LIG A   1      -6.286  -1.634 125.641  0.00  0.00    -0.000 C 
ATOM      6  C   LIG A   1      -5.902  -2.992 125.009  0.00  0.00    +0.031 C 
ATOM      7  C   LIG A   1      -7.101  -3.555 124.272  0.00  0.00    -0.027 C 
ATOM      8  C   LIG A   1      -8.269  -2.882 124.238  0.00  0.00    -0.073 C 
ATOM      9  C   LIG A   1      -9.505  -3.330 123.536  0.00  0.00    +0.039 C 
ENDROOT
BRANCH   1  10
ATOM     10  C   LIG A   1      -7.948  -2.816 127.338  0.00  0.00    +0.011 C 
BRANCH  10  11
ATOM     11  C   LIG A   1      -7.984  -2.452 128.825  0.00  0.00    +0.028 C 
BRANCH  11  12
ATOM     12  C   LIG A   1      -7.334  -3.522 129.663  0.00  0.00    -0.028 C 
ATOM     13  C   LIG A   1      -6.016  -3.733 129.840  0.00  0.00    -0.080 C 
ATOM     14  C   LIG A   1      -4.918  -2.892 129.250  0.00  0.00    +0.038 C 
ATOM     15  C   LIG A   1      -5.526  -4.869 130.700  0.00  0.00    +0.038 C 
ENDBRANCH  11  12
ENDBRANCH  10  11
ENDBRANCH   1  10
TORSDOF 3
ENDMDL
MODEL 7
REMARK VINA RESULT:      -5.9      9.122     10.978
REMARK  Name = NuBBE_1732
REMARK  7 active torsions:
REMARK  status: ('A' for Active; 'I' for Inactive)
REMARK    1  A    between atoms: C_1  and  C_2
REMARK    2  A    between atoms: C_1  and  C_7
REMARK    3  A    between atoms: C_2  and  C_3
REMARK    4  A    between atoms: C_4  and  C_5
REMARK    5  A    between atoms: C_4  and  C_6
REMARK    6  A    between atoms: C_7  and  C_8
REMARK    7  A    between atoms: C_14  and  C_15
REMARK                            x       y       z     vdW  Elec       q    Type
REMARK                         _______ _______ _______ _____ _____    ______ ____
ROOT
ATOM      1  C   LIG A   1      -8.787  -0.360 124.398  0.00  0.00    -0.022 C 
ATOM      2  C   LIG A   1      -9.384  -0.388 122.972  0.00  0.00    +0.012 C 
ATOM      3  C   LIG A   1      -7.377   0.385 124.502  0.00  0.00    +0.021 C 
ATOM      4  C   LIG A   1      -8.208   1.722 124.514  0.00  0.00    +0.012 C 
ATOM      5  C   LIG A   1      -9.274   0.877 125.285  0.00  0.00    -0.000 C 
ATOM      6  C   LIG A   1      -8.898   0.825 126.784  0.00  0.00    +0.031 C 
ATOM      7  C   LIG A   1      -7.438   0.440 126.918  0.00  0.00    -0.027 C 
ATOM      8  C   LIG A   1      -6.682   0.207 125.826  0.00  0.00    -0.073 C 
ATOM      9  C   LIG A   1      -5.237  -0.162 125.836  0.00  0.00    +0.039 C 
ENDROOT
BRANCH   1  10
ATOM     10  C   LIG A   1      -8.981  -1.750 125.051  0.00  0.00    +0.011 C 
BRANCH  10  11
ATOM     11  C   LIG A   1      -8.618  -2.904 124.112  0.00  0.00    +0.028 C 
BRANCH  11  12
ATOM     12  C   LIG A   1      -7.210  -3.380 124.354  0.00  0.00    -0.028 C 
ATOM     13  C   LIG A   1      -6.108  -3.066 123.647  0.00  0.00    -0.080 C 
ATOM     14  C   LIG A   1      -6.071  -2.123 122.475  0.00  0.00    +0.038 C 
ATOM     15  C   LIG A   1      -4.766  -3.647 124.010  0.00  0.00    +0.038 C 
ENDBRANCH  11  12
ENDBRANCH  10  11
ENDBRANCH   1  10
TORSDOF 3
ENDMDL
MODEL 8
REMARK VINA RESULT:      -5.8      9.907     11.510
REMARK  Name = NuBBE_1732
REMARK  7 active torsions:
REMARK  status: ('A' for Active; 'I' for Inactive)
REMARK    1  A    between atoms: C_1  and  C_2
REMARK    2  A    between atoms: C_1  and  C_7
REMARK    3  A    between atoms: C_2  and  C_3
REMARK    4  A    between atoms: C_4  and  C_5
REMARK    5  A    between atoms: C_4  and  C_6
REMARK    6  A    between atoms: C_7  and  C_8
REMARK    7  A    between atoms: C_14  and  C_15
REMARK                            x       y       z     vdW  Elec       q    Type
REMARK                         _______ _______ _______ _____ _____    ______ ____
ROOT
ATOM      1  C   LIG A   1      -6.902  -1.398 125.151  0.00  0.00    -0.022 C 
ATOM      2  C   LIG A   1      -5.611  -0.655 125.563  0.00  0.00    +0.012 C 
ATOM      3  C   LIG A   1      -7.324  -1.177 123.626  0.00  0.00    +0.021 C 
ATOM      4  C   LIG A   1      -6.245  -2.270 123.283  0.00  0.00    +0.012 C 
ATOM      5  C   LIG A   1      -6.662  -2.897 124.654  0.00  0.00    -0.000 C 
ATOM      6  C   LIG A   1      -7.931  -3.757 124.456  0.00  0.00    +0.031 C 
ATOM      7  C   LIG A   1      -8.962  -2.955 123.686  0.00  0.00    -0.027 C 
ATOM      8  C   LIG A   1      -8.697  -1.696 123.284  0.00  0.00    -0.073 C 
ATOM      9  C   LIG A   1      -9.625  -0.820 122.512  0.00  0.00    +0.039 C 
ENDROOT
BRANCH   1  10
ATOM     10  C   LIG A   1      -7.953  -1.243 126.277  0.00  0.00    +0.011 C 
BRANCH  10  11
ATOM     11  C   LIG A   1      -7.332  -0.850 127.621  0.00  0.00    +0.028 C 
BRANCH  11  12
ATOM     12  C   LIG A   1      -7.395  -1.990 128.603  0.00  0.00    -0.028 C 
ATOM     13  C   LIG A   1      -6.384  -2.787 128.997  0.00  0.00    -0.080 C 
ATOM     14  C   LIG A   1      -4.955  -2.658 128.547  0.00  0.00    +0.038 C 
ATOM     15  C   LIG A   1      -6.620  -3.905 129.979  0.00  0.00    +0.038 C 
ENDBRANCH  11  12
ENDBRANCH  10  11
ENDBRANCH   1  10
TORSDOF 3
ENDMDL
MODEL 9
REMARK VINA RESULT:      -5.6      8.837     11.709
REMARK  Name = NuBBE_1732
REMARK  7 active torsions:
REMARK  status: ('A' for Active; 'I' for Inactive)
REMARK    1  A    between atoms: C_1  and  C_2
REMARK    2  A    between atoms: C_1  and  C_7
REMARK    3  A    between atoms: C_2  and  C_3
REMARK    4  A    between atoms: C_4  and  C_5
REMARK    5  A    between atoms: C_4  and  C_6
REMARK    6  A    between atoms: C_7  and  C_8
REMARK    7  A    between atoms: C_14  and  C_15
REMARK                            x       y       z     vdW  Elec       q    Type
REMARK                         _______ _______ _______ _____ _____    ______ ____
ROOT
ATOM      1  C   LIG A   1      -7.968  -2.755 128.162  0.00  0.00    -0.022 C 
ATOM      2  C   LIG A   1      -8.899  -3.963 127.912  0.00  0.00    +0.012 C 
ATOM      3  C   LIG A   1      -8.142  -2.083 129.602  0.00  0.00    +0.021 C 
ATOM      4  C   LIG A   1      -7.238  -3.256 130.137  0.00  0.00    +0.012 C 
ATOM      5  C   LIG A   1      -6.533  -3.147 128.745  0.00  0.00    -0.000 C 
ATOM      6  C   LIG A   1      -5.486  -2.010 128.791  0.00  0.00    +0.031 C 
ATOM      7  C   LIG A   1      -6.127  -0.766 129.374  0.00  0.00    -0.027 C 
ATOM      8  C   LIG A   1      -7.418  -0.772 129.762  0.00  0.00    -0.073 C 
ATOM      9  C   LIG A   1      -8.148   0.384 130.360  0.00  0.00    +0.039 C 
ENDROOT
BRANCH   1  10
ATOM     10  C   LIG A   1      -7.939  -1.870 126.892  0.00  0.00    +0.011 C 
BRANCH  10  11
ATOM     11  C   LIG A   1      -8.064  -2.682 125.599  0.00  0.00    +0.028 C 
BRANCH  11  12
ATOM     12  C   LIG A   1      -6.708  -3.043 125.051  0.00  0.00    -0.028 C 
ATOM     13  C   LIG A   1      -6.196  -2.709 123.851  0.00  0.00    -0.080 C 
ATOM     14  C   LIG A   1      -6.887  -1.856 122.823  0.00  0.00    +0.038 C 
ATOM     15  C   LIG A   1      -4.821  -3.170 123.444  0.00  0.00    +0.038 C 
ENDBRANCH  11  12
ENDBRANCH  10  11
ENDBRANCH   1  10
TORSDOF 3
ENDMDL
