MODEL 1
REMARK VINA RESULT:      -7.6      0.000      0.000
REMARK  Name = NuBBE_1100
REMARK  3 active torsions:
REMARK  status: ('A' for Active; 'I' for Inactive)
REMARK    1  A    between atoms: N_8  and  C_9
REMARK    2  A    between atoms: C_14  and  C_15
REMARK    3  A    between atoms: C_14  and  C_16
REMARK                            x       y       z     vdW  Elec       q    Type
REMARK                         _______ _______ _______ _____ _____    ______ ____
ROOT
ATOM      1  O   LIG A   1      -9.360   3.223 120.548  0.00  0.00    -0.286 OA
ATOM      2  C   LIG A   1      -8.242   3.557 120.928  0.00  0.00    +0.200 A 
ATOM      3  C   LIG A   1      -7.296   4.195 120.065  0.00  0.00    +0.085 A 
ATOM      4  C   LIG A   1      -6.067   4.538 120.556  0.00  0.00    +0.212 A 
ATOM      5  O   LIG A   1      -5.318   5.126 119.589  0.00  0.00    -0.447 OA
ATOM      6  C   LIG A   1      -6.086   5.157 118.466  0.00  0.00    +0.198 A 
ATOM      7  C   LIG A   1      -7.319   4.593 118.709  0.00  0.00    +0.055 A 
ATOM      8  N   LIG A   1      -5.600   4.345 121.815  0.00  0.00    -0.313 N 
ATOM      9  C   LIG A   1      -4.245   4.800 122.086  0.00  0.00    +0.152 C 
ATOM     10  C   LIG A   1      -6.455   3.722 122.780  0.00  0.00    +0.066 A 
ATOM     11  C   LIG A   1      -6.134   3.447 124.152  0.00  0.00    +0.041 A 
ATOM     12  C   LIG A   1      -7.102   2.813 124.978  0.00  0.00    +0.131 A 
ATOM     13  O   LIG A   1      -6.936   2.498 126.303  0.00  0.00    -0.482 OA
ATOM     14  C   LIG A   1      -5.670   2.710 126.938  0.00  0.00    +0.123 C 
ATOM     15  C   LIG A   1      -5.116   1.334 127.320  0.00  0.00    +0.060 C 
ATOM     16  C   LIG A   1      -5.942   3.546 128.193  0.00  0.00    +0.060 C 
ATOM     17  C   LIG A   1      -4.662   3.425 126.099  0.00  0.00    +0.020 C 
ATOM     18  C   LIG A   1      -4.873   3.768 124.829  0.00  0.00    +0.013 C 
ATOM     19  C   LIG A   1      -8.362   2.451 124.501  0.00  0.00    +0.047 A 
ATOM     20  C   LIG A   1      -8.702   2.703 123.187  0.00  0.00    +0.017 A 
ATOM     21  C   LIG A   1      -7.775   3.325 122.340  0.00  0.00    +0.047 A 
ENDROOT
TORSDOF 0
ENDMDL
MODEL 2
REMARK VINA RESULT:      -7.4      5.009      6.990
REMARK  Name = NuBBE_1100
REMARK  3 active torsions:
REMARK  status: ('A' for Active; 'I' for Inactive)
REMARK    1  A    between atoms: N_8  and  C_9
REMARK    2  A    between atoms: C_14  and  C_15
REMARK    3  A    between atoms: C_14  and  C_16
REMARK                            x       y       z     vdW  Elec       q    Type
REMARK                         _______ _______ _______ _____ _____    ______ ____
ROOT
ATOM      1  O   LIG A   1      -9.763  -2.542 124.401  0.00  0.00    -0.286 OA
ATOM      2  C   LIG A   1      -8.870  -1.938 124.988  0.00  0.00    +0.200 A 
ATOM      3  C   LIG A   1      -8.227  -0.788 124.433  0.00  0.00    +0.085 A 
ATOM      4  C   LIG A   1      -7.238  -0.166 125.143  0.00  0.00    +0.212 A 
ATOM      5  O   LIG A   1      -6.755   0.898 124.451  0.00  0.00    -0.447 OA
ATOM      6  C   LIG A   1      -7.450   0.950 123.282  0.00  0.00    +0.198 A 
ATOM      7  C   LIG A   1      -8.373  -0.072 123.222  0.00  0.00    +0.055 A 
ATOM      8  N   LIG A   1      -6.761  -0.509 126.366  0.00  0.00    -0.313 N 
ATOM      9  C   LIG A   1      -5.694   0.319 126.907  0.00  0.00    +0.152 C 
ATOM     10  C   LIG A   1      -7.328  -1.641 127.034  0.00  0.00    +0.066 A 
ATOM     11  C   LIG A   1      -6.956  -2.143 128.326  0.00  0.00    +0.041 A 
ATOM     12  C   LIG A   1      -7.620  -3.287 128.845  0.00  0.00    +0.131 A 
ATOM     13  O   LIG A   1      -7.374  -3.869 130.063  0.00  0.00    -0.482 OA
ATOM     14  C   LIG A   1      -6.303  -3.389 130.885  0.00  0.00    +0.123 C 
ATOM     15  C   LIG A   1      -5.268  -4.512 130.985  0.00  0.00    +0.060 C 
ATOM     16  C   LIG A   1      -6.906  -3.088 132.261  0.00  0.00    +0.060 C 
ATOM     17  C   LIG A   1      -5.633  -2.153 130.379  0.00  0.00    +0.020 C 
ATOM     18  C   LIG A   1      -5.934  -1.578 129.215  0.00  0.00    +0.013 C 
ATOM     19  C   LIG A   1      -8.630  -3.942 128.140  0.00  0.00    +0.047 A 
ATOM     20  C   LIG A   1      -9.012  -3.484 126.895  0.00  0.00    +0.017 A 
ATOM     21  C   LIG A   1      -8.381  -2.359 126.348  0.00  0.00    +0.047 A 
ENDROOT
TORSDOF 0
ENDMDL
MODEL 3
REMARK VINA RESULT:      -7.0      6.741      9.027
REMARK  Name = NuBBE_1100
REMARK  3 active torsions:
REMARK  status: ('A' for Active; 'I' for Inactive)
REMARK    1  A    between atoms: N_8  and  C_9
REMARK    2  A    between atoms: C_14  and  C_15
REMARK    3  A    between atoms: C_14  and  C_16
REMARK                            x       y       z     vdW  Elec       q    Type
REMARK                         _______ _______ _______ _____ _____    ______ ____
ROOT
ATOM      1  O   LIG A   1     -10.660   6.643 132.634  0.00  0.00    -0.286 OA
ATOM      2  C   LIG A   1     -10.097   5.991 131.760  0.00  0.00    +0.200 A 
ATOM      3  C   LIG A   1     -10.102   6.385 130.385  0.00  0.00    +0.085 A 
ATOM      4  C   LIG A   1      -9.456   5.610 129.464  0.00  0.00    +0.212 A 
ATOM      5  O   LIG A   1      -9.576   6.148 128.223  0.00  0.00    -0.447 OA
ATOM      6  C   LIG A   1     -10.311   7.285 128.362  0.00  0.00    +0.198 A 
ATOM      7  C   LIG A   1     -10.661   7.476 129.680  0.00  0.00    +0.055 A 
ATOM      8  N   LIG A   1      -8.775   4.457 129.688  0.00  0.00    -0.313 N 
ATOM      9  C   LIG A   1      -8.176   3.816 128.529  0.00  0.00    +0.152 C 
ATOM     10  C   LIG A   1      -8.690   3.958 131.027  0.00  0.00    +0.066 A 
ATOM     11  C   LIG A   1      -8.009   2.767 131.451  0.00  0.00    +0.041 A 
ATOM     12  C   LIG A   1      -8.026   2.409 132.827  0.00  0.00    +0.131 A 
ATOM     13  O   LIG A   1      -7.415   1.309 133.373  0.00  0.00    -0.482 OA
ATOM     14  C   LIG A   1      -6.776   0.348 132.523  0.00  0.00    +0.123 C 
ATOM     15  C   LIG A   1      -7.559  -0.962 132.647  0.00  0.00    +0.060 C 
ATOM     16  C   LIG A   1      -5.349   0.173 133.055  0.00  0.00    +0.060 C 
ATOM     17  C   LIG A   1      -6.702   0.738 131.084  0.00  0.00    +0.020 C 
ATOM     18  C   LIG A   1      -7.259   1.845 130.592  0.00  0.00    +0.013 C 
ATOM     19  C   LIG A   1      -8.680   3.182 133.787  0.00  0.00    +0.047 A 
ATOM     20  C   LIG A   1      -9.342   4.334 133.412  0.00  0.00    +0.017 A 
ATOM     21  C   LIG A   1      -9.351   4.720 132.065  0.00  0.00    +0.047 A 
ENDROOT
TORSDOF 0
ENDMDL
MODEL 4
REMARK VINA RESULT:      -7.0      8.219     10.493
REMARK  Name = NuBBE_1100
REMARK  3 active torsions:
REMARK  status: ('A' for Active; 'I' for Inactive)
REMARK    1  A    between atoms: N_8  and  C_9
REMARK    2  A    between atoms: C_14  and  C_15
REMARK    3  A    between atoms: C_14  and  C_16
REMARK                            x       y       z     vdW  Elec       q    Type
REMARK                         _______ _______ _______ _____ _____    ______ ____
ROOT
ATOM      1  O   LIG A   1      -8.731   0.899 132.644  0.00  0.00    -0.286 OA
ATOM      2  C   LIG A   1      -8.315   2.052 132.589  0.00  0.00    +0.200 A 
ATOM      3  C   LIG A   1      -7.136   2.476 133.278  0.00  0.00    +0.085 A 
ATOM      4  C   LIG A   1      -6.732   3.778 133.174  0.00  0.00    +0.212 A 
ATOM      5  O   LIG A   1      -5.600   3.982 133.896  0.00  0.00    -0.447 OA
ATOM      6  C   LIG A   1      -5.282   2.788 134.466  0.00  0.00    +0.198 A 
ATOM      7  C   LIG A   1      -6.201   1.824 134.115  0.00  0.00    +0.055 A 
ATOM      8  N   LIG A   1      -7.329   4.773 132.471  0.00  0.00    -0.313 N 
ATOM      9  C   LIG A   1      -6.698   6.083 132.527  0.00  0.00    +0.152 C 
ATOM     10  C   LIG A   1      -8.517   4.475 131.730  0.00  0.00    +0.066 A 
ATOM     11  C   LIG A   1      -9.274   5.394 130.928  0.00  0.00    +0.041 A 
ATOM     12  C   LIG A   1     -10.440   4.934 130.258  0.00  0.00    +0.131 A 
ATOM     13  O   LIG A   1     -11.252   5.695 129.455  0.00  0.00    -0.482 OA
ATOM     14  C   LIG A   1     -11.014   7.101 129.321  0.00  0.00    +0.123 C 
ATOM     15  C   LIG A   1     -12.213   7.827 129.938  0.00  0.00    +0.060 C 
ATOM     16  C   LIG A   1     -10.926   7.390 127.819  0.00  0.00    +0.060 C 
ATOM     17  C   LIG A   1      -9.762   7.588 129.974  0.00  0.00    +0.020 C 
ATOM     18  C   LIG A   1      -8.962   6.810 130.702  0.00  0.00    +0.013 C 
ATOM     19  C   LIG A   1     -10.875   3.611 130.348  0.00  0.00    +0.047 A 
ATOM     20  C   LIG A   1     -10.169   2.702 131.111  0.00  0.00    +0.017 A 
ATOM     21  C   LIG A   1      -9.015   3.117 131.788  0.00  0.00    +0.047 A 
ENDROOT
TORSDOF 0
ENDMDL
MODEL 5
REMARK VINA RESULT:      -6.9      8.437     10.656
REMARK  Name = NuBBE_1100
REMARK  3 active torsions:
REMARK  status: ('A' for Active; 'I' for Inactive)
REMARK    1  A    between atoms: N_8  and  C_9
REMARK    2  A    between atoms: C_14  and  C_15
REMARK    3  A    between atoms: C_14  and  C_16
REMARK                            x       y       z     vdW  Elec       q    Type
REMARK                         _______ _______ _______ _____ _____    ______ ____
ROOT
ATOM      1  O   LIG A   1      -5.072   4.900 132.713  0.00  0.00    -0.286 OA
ATOM      2  C   LIG A   1      -6.161   4.371 132.512  0.00  0.00    +0.200 A 
ATOM      3  C   LIG A   1      -6.444   3.024 132.900  0.00  0.00    +0.085 A 
ATOM      4  C   LIG A   1      -7.679   2.498 132.642  0.00  0.00    +0.212 A 
ATOM      5  O   LIG A   1      -7.750   1.216 133.082  0.00  0.00    -0.447 OA
ATOM      6  C   LIG A   1      -6.538   0.925 133.629  0.00  0.00    +0.198 A 
ATOM      7  C   LIG A   1      -5.694   2.010 133.541  0.00  0.00    +0.055 A 
ATOM      8  N   LIG A   1      -8.726   3.113 132.037  0.00  0.00    -0.313 N 
ATOM      9  C   LIG A   1      -9.940   2.328 131.875  0.00  0.00    +0.152 C 
ATOM     10  C   LIG A   1      -8.573   4.469 131.605  0.00  0.00    +0.066 A 
ATOM     11  C   LIG A   1      -9.569   5.276 130.959  0.00  0.00    +0.041 A 
ATOM     12  C   LIG A   1      -9.250   6.611 130.590  0.00  0.00    +0.131 A 
ATOM     13  O   LIG A   1     -10.102   7.494 129.976  0.00  0.00    -0.482 OA
ATOM     14  C   LIG A   1     -11.402   7.064 129.556  0.00  0.00    +0.123 C 
ATOM     15  C   LIG A   1     -11.434   7.136 128.027  0.00  0.00    +0.060 C 
ATOM     16  C   LIG A   1     -12.408   8.049 130.162  0.00  0.00    +0.060 C 
ATOM     17  C   LIG A   1     -11.772   5.682 129.986  0.00  0.00    +0.020 C 
ATOM     18  C   LIG A   1     -10.940   4.866 130.632  0.00  0.00    +0.013 C 
ATOM     19  C   LIG A   1      -7.997   7.171 130.840  0.00  0.00    +0.047 A 
ATOM     20  C   LIG A   1      -7.017   6.422 131.461  0.00  0.00    +0.017 A 
ATOM     21  C   LIG A   1      -7.292   5.101 131.839  0.00  0.00    +0.047 A 
ENDROOT
TORSDOF 0
ENDMDL
MODEL 6
REMARK VINA RESULT:      -6.7      6.352      8.034
REMARK  Name = NuBBE_1100
REMARK  3 active torsions:
REMARK  status: ('A' for Active; 'I' for Inactive)
REMARK    1  A    between atoms: N_8  and  C_9
REMARK    2  A    between atoms: C_14  and  C_15
REMARK    3  A    between atoms: C_14  and  C_16
REMARK                            x       y       z     vdW  Elec       q    Type
REMARK                         _______ _______ _______ _____ _____    ______ ____
ROOT
ATOM      1  O   LIG A   1      -9.534  -4.230 127.742  0.00  0.00    -0.286 OA
ATOM      2  C   LIG A   1      -8.626  -3.452 127.468  0.00  0.00    +0.200 A 
ATOM      3  C   LIG A   1      -8.325  -3.066 126.125  0.00  0.00    +0.085 A 
ATOM      4  C   LIG A   1      -7.296  -2.195 125.892  0.00  0.00    +0.212 A 
ATOM      5  O   LIG A   1      -7.169  -1.955 124.562  0.00  0.00    -0.447 OA
ATOM      6  C   LIG A   1      -8.135  -2.687 123.941  0.00  0.00    +0.198 A 
ATOM      7  C   LIG A   1      -8.876  -3.392 124.864  0.00  0.00    +0.055 A 
ATOM      8  N   LIG A   1      -6.481  -1.619 126.811  0.00  0.00    -0.313 N 
ATOM      9  C   LIG A   1      -5.452  -0.725 126.302  0.00  0.00    +0.152 C 
ATOM     10  C   LIG A   1      -6.684  -1.919 128.196  0.00  0.00    +0.066 A 
ATOM     11  C   LIG A   1      -5.929  -1.398 129.301  0.00  0.00    +0.041 A 
ATOM     12  C   LIG A   1      -6.259  -1.805 130.622  0.00  0.00    +0.131 A 
ATOM     13  O   LIG A   1      -5.631  -1.385 131.767  0.00  0.00    -0.482 OA
ATOM     14  C   LIG A   1      -4.474  -0.544 131.683  0.00  0.00    +0.123 C 
ATOM     15  C   LIG A   1      -3.288  -1.345 132.227  0.00  0.00    +0.060 C 
ATOM     16  C   LIG A   1      -4.753   0.674 132.572  0.00  0.00    +0.060 C 
ATOM     17  C   LIG A   1      -4.149  -0.064 130.307  0.00  0.00    +0.020 C 
ATOM     18  C   LIG A   1      -4.815  -0.447 129.218  0.00  0.00    +0.013 C 
ATOM     19  C   LIG A   1      -7.302  -2.693 130.886  0.00  0.00    +0.047 A 
ATOM     20  C   LIG A   1      -8.049  -3.211 129.846  0.00  0.00    +0.017 A 
ATOM     21  C   LIG A   1      -7.753  -2.836 128.529  0.00  0.00    +0.047 A 
ENDROOT
TORSDOF 0
ENDMDL
MODEL 7
REMARK VINA RESULT:      -6.7      5.728      9.083
REMARK  Name = NuBBE_1100
REMARK  3 active torsions:
REMARK  status: ('A' for Active; 'I' for Inactive)
REMARK    1  A    between atoms: N_8  and  C_9
REMARK    2  A    between atoms: C_14  and  C_15
REMARK    3  A    between atoms: C_14  and  C_16
REMARK                            x       y       z     vdW  Elec       q    Type
REMARK                         _______ _______ _______ _____ _____    ______ ____
ROOT
ATOM      1  O   LIG A   1      -8.466   2.284 129.782  0.00  0.00    -0.286 OA
ATOM      2  C   LIG A   1      -8.242   1.087 129.635  0.00  0.00    +0.200 A 
ATOM      3  C   LIG A   1      -7.982   0.213 130.738  0.00  0.00    +0.085 A 
ATOM      4  C   LIG A   1      -7.737  -1.111 130.501  0.00  0.00    +0.212 A 
ATOM      5  O   LIG A   1      -7.515  -1.768 131.667  0.00  0.00    -0.447 OA
ATOM      6  C   LIG A   1      -7.621  -0.844 132.661  0.00  0.00    +0.198 A 
ATOM      7  C   LIG A   1      -7.909   0.397 132.138  0.00  0.00    +0.055 A 
ATOM      8  N   LIG A   1      -7.706  -1.740 129.299  0.00  0.00    -0.313 N 
ATOM      9  C   LIG A   1      -7.416  -3.166 129.316  0.00  0.00    +0.152 C 
ATOM     10  C   LIG A   1      -7.957  -0.977 128.114  0.00  0.00    +0.066 A 
ATOM     11  C   LIG A   1      -7.972  -1.473 126.767  0.00  0.00    +0.041 A 
ATOM     12  C   LIG A   1      -8.235  -0.574 125.699  0.00  0.00    +0.131 A 
ATOM     13  O   LIG A   1      -8.288  -0.909 124.369  0.00  0.00    -0.482 OA
ATOM     14  C   LIG A   1      -7.962  -2.240 123.950  0.00  0.00    +0.123 C 
ATOM     15  C   LIG A   1      -6.690  -2.152 123.103  0.00  0.00    +0.060 C 
ATOM     16  C   LIG A   1      -9.139  -2.734 123.103  0.00  0.00    +0.060 C 
ATOM     17  C   LIG A   1      -7.738  -3.208 125.065  0.00  0.00    +0.020 C 
ATOM     18  C   LIG A   1      -7.748  -2.862 126.352  0.00  0.00    +0.013 C 
ATOM     19  C   LIG A   1      -8.486   0.781 125.913  0.00  0.00    +0.047 A 
ATOM     20  C   LIG A   1      -8.480   1.290 127.197  0.00  0.00    +0.017 A 
ATOM     21  C   LIG A   1      -8.223   0.437 128.278  0.00  0.00    +0.047 A 
ENDROOT
TORSDOF 0
ENDMDL
MODEL 8
REMARK VINA RESULT:      -6.6      6.297      8.701
REMARK  Name = NuBBE_1100
REMARK  3 active torsions:
REMARK  status: ('A' for Active; 'I' for Inactive)
REMARK    1  A    between atoms: N_8  and  C_9
REMARK    2  A    between atoms: C_14  and  C_15
REMARK    3  A    between atoms: C_14  and  C_16
REMARK                            x       y       z     vdW  Elec       q    Type
REMARK                         _______ _______ _______ _____ _____    ______ ____
ROOT
ATOM      1  O   LIG A   1      -8.590   5.155 127.988  0.00  0.00    -0.286 OA
ATOM      2  C   LIG A   1      -8.675   4.461 128.997  0.00  0.00    +0.200 A 
ATOM      3  C   LIG A   1      -9.059   4.997 130.266  0.00  0.00    +0.085 A 
ATOM      4  C   LIG A   1      -9.130   4.166 131.350  0.00  0.00    +0.212 A 
ATOM      5  O   LIG A   1      -9.509   4.859 132.455  0.00  0.00    -0.447 OA
ATOM      6  C   LIG A   1      -9.680   6.151 132.064  0.00  0.00    +0.198 A 
ATOM      7  C   LIG A   1      -9.414   6.289 130.719  0.00  0.00    +0.055 A 
ATOM      8  N   LIG A   1      -8.873   2.834 131.385  0.00  0.00    -0.313 N 
ATOM      9  C   LIG A   1      -9.018   2.175 132.674  0.00  0.00    +0.152 C 
ATOM     10  C   LIG A   1      -8.485   2.175 130.175  0.00  0.00    +0.066 A 
ATOM     11  C   LIG A   1      -8.183   0.780 130.023  0.00  0.00    +0.041 A 
ATOM     12  C   LIG A   1      -7.806   0.286 128.745  0.00  0.00    +0.131 A 
ATOM     13  O   LIG A   1      -7.499  -1.020 128.453  0.00  0.00    -0.482 OA
ATOM     14  C   LIG A   1      -7.438  -1.994 129.501  0.00  0.00    +0.123 C 
ATOM     15  C   LIG A   1      -5.984  -2.464 129.602  0.00  0.00    +0.060 C 
ATOM     16  C   LIG A   1      -8.349  -3.151 129.078  0.00  0.00    +0.060 C 
ATOM     17  C   LIG A   1      -7.885  -1.502 130.839  0.00  0.00    +0.020 C 
ATOM     18  C   LIG A   1      -8.232  -0.238 131.079  0.00  0.00    +0.013 C 
ATOM     19  C   LIG A   1      -7.724   1.112 127.624  0.00  0.00    +0.047 A 
ATOM     20  C   LIG A   1      -8.009   2.459 127.736  0.00  0.00    +0.017 A 
ATOM     21  C   LIG A   1      -8.383   2.985 128.980  0.00  0.00    +0.047 A 
ENDROOT
TORSDOF 0
ENDMDL
MODEL 9
REMARK VINA RESULT:      -6.6      5.454      7.971
REMARK  Name = NuBBE_1100
REMARK  3 active torsions:
REMARK  status: ('A' for Active; 'I' for Inactive)
REMARK    1  A    between atoms: N_8  and  C_9
REMARK    2  A    between atoms: C_14  and  C_15
REMARK    3  A    between atoms: C_14  and  C_16
REMARK                            x       y       z     vdW  Elec       q    Type
REMARK                         _______ _______ _______ _____ _____    ______ ____
ROOT
ATOM      1  O   LIG A   1      -6.826  -2.119 130.950  0.00  0.00    -0.286 OA
ATOM      2  C   LIG A   1      -6.819  -1.735 129.785  0.00  0.00    +0.200 A 
ATOM      3  C   LIG A   1      -7.582  -2.377 128.760  0.00  0.00    +0.085 A 
ATOM      4  C   LIG A   1      -7.525  -1.897 127.482  0.00  0.00    +0.212 A 
ATOM      5  O   LIG A   1      -8.312  -2.637 126.661  0.00  0.00    -0.447 OA
ATOM      6  C   LIG A   1      -8.879  -3.604 127.433  0.00  0.00    +0.198 A 
ATOM      7  C   LIG A   1      -8.459  -3.487 128.740  0.00  0.00    +0.055 A 
ATOM      8  N   LIG A   1      -6.805  -0.838 127.031  0.00  0.00    -0.313 N 
ATOM      9  C   LIG A   1      -6.914  -0.531 125.613  0.00  0.00    +0.152 C 
ATOM     10  C   LIG A   1      -6.003  -0.104 127.962  0.00  0.00    +0.066 A 
ATOM     11  C   LIG A   1      -5.188   1.041 127.668  0.00  0.00    +0.041 A 
ATOM     12  C   LIG A   1      -4.445   1.652 128.714  0.00  0.00    +0.131 A 
ATOM     13  O   LIG A   1      -3.635   2.752 128.580  0.00  0.00    -0.482 OA
ATOM     14  C   LIG A   1      -3.398   3.315 127.284  0.00  0.00    +0.123 C 
ATOM     15  C   LIG A   1      -1.912   3.118 126.967  0.00  0.00    +0.060 C 
ATOM     16  C   LIG A   1      -3.733   4.807 127.386  0.00  0.00    +0.060 C 
ATOM     17  C   LIG A   1      -4.213   2.718 126.185  0.00  0.00    +0.020 C 
ATOM     18  C   LIG A   1      -5.036   1.684 126.358  0.00  0.00    +0.013 C 
ATOM     19  C   LIG A   1      -4.485   1.180 130.026  0.00  0.00    +0.047 A 
ATOM     20  C   LIG A   1      -5.260   0.082 130.342  0.00  0.00    +0.017 A 
ATOM     21  C   LIG A   1      -6.005  -0.550 129.339  0.00  0.00    +0.047 A 
ENDROOT
TORSDOF 0
ENDMDL
