MODEL 1
REMARK VINA RESULT:      -7.5      0.000      0.000
REMARK  Name = NuBBE_644
REMARK  10 active torsions:
REMARK  status: ('A' for Active; 'I' for Inactive)
REMARK    1  A    between atoms: O_1  and  C_2
REMARK    2  A    between atoms: C_5  and  C_6
REMARK    3  A    between atoms: C_8  and  C_10
REMARK    4  A    between atoms: C_11  and  C_13
REMARK    5  A    between atoms: C_14  and  C_16
REMARK    6  A    between atoms: C_18  and  O_19
REMARK    7  A    between atoms: O_19  and  C_20
REMARK    8  A    between atoms: C_21  and  O_22
REMARK    9  A    between atoms: C_27  and  O_28
REMARK   10  A    between atoms: O_28  and  C_29
REMARK                            x       y       z     vdW  Elec       q    Type
REMARK                         _______ _______ _______ _____ _____    ______ ____
ROOT
ATOM      1  C   LIG A   1      -9.134  -2.031 125.388  0.00  0.00    +0.152 C 
ATOM      2  C   LIG A   1      -8.523  -2.721 124.158  0.00  0.00    +0.025 C 
ATOM      3  C   LIG A   1      -9.603  -3.389 123.302  0.00  0.00    +0.011 C 
ATOM      4  C   LIG A   1      -7.835  -1.595 123.376  0.00  0.00    +0.025 C 
ATOM      5  C   LIG A   1      -6.326  -1.606 123.641  0.00  0.00    +0.011 C 
ATOM      6  C   LIG A   1      -8.589  -0.343 123.848  0.00  0.00    +0.152 C 
ATOM      7  O   LIG A   1      -9.009  -0.615 125.195  0.00  0.00    -0.364 OA
ENDROOT
BRANCH   1  11
ATOM      8  C   LIG A   1      -7.274  -3.122 129.153  0.00  0.00    +0.159 A 
ATOM      9  C   LIG A   1      -8.301  -3.902 128.627  0.00  0.00    +0.049 A 
ATOM     10  C   LIG A   1      -8.902  -3.555 127.417  0.00  0.00    +0.010 A 
ATOM     11  C   LIG A   1      -8.492  -2.419 126.709  0.00  0.00    -0.015 A 
ATOM     12  C   LIG A   1      -7.454  -1.641 127.253  0.00  0.00    +0.055 A 
ATOM     13  C   LIG A   1      -6.833  -1.981 128.470  0.00  0.00    +0.162 A 
BRANCH   8  14
ATOM     14  O   LIG A   1      -6.719  -3.510 130.341  0.00  0.00    -0.503 OA
ATOM     15  H   LIG A   1      -5.771  -3.295 130.334  0.00  0.00    +0.292 HD
ENDBRANCH   8  14
BRANCH  13  16
ATOM     16  O   LIG A   1      -5.837  -1.113 128.835  0.00  0.00    -0.491 OA
ATOM     17  C   LIG A   1      -5.576  -0.008 127.978  0.00  0.00    +0.277 C 
ENDBRANCH  13  16
ENDBRANCH   1  11
BRANCH   6  18
ATOM     18  C   LIG A   1      -7.858   0.982 123.763  0.00  0.00    -0.015 A 
ATOM     19  C   LIG A   1      -7.896   1.744 122.577  0.00  0.00    +0.055 A 
ATOM     20  C   LIG A   1      -7.258   2.982 122.490  0.00  0.00    +0.162 A 
ATOM     21  C   LIG A   1      -6.557   3.453 123.598  0.00  0.00    +0.159 A 
ATOM     22  C   LIG A   1      -6.463   2.704 124.769  0.00  0.00    +0.049 A 
ATOM     23  C   LIG A   1      -7.115   1.469 124.847  0.00  0.00    +0.010 A 
BRANCH  20  24
ATOM     24  O   LIG A   1      -7.267   3.805 121.390  0.00  0.00    -0.491 OA
ATOM     25  C   LIG A   1      -8.480   3.831 120.643  0.00  0.00    +0.277 C 
ENDBRANCH  20  24
BRANCH  21  26
ATOM     26  O   LIG A   1      -5.953   4.680 123.568  0.00  0.00    -0.503 OA
ATOM     27  H   LIG A   1      -5.800   4.861 122.619  0.00  0.00    +0.292 HD
ENDBRANCH  21  26
ENDBRANCH   6  18
TORSDOF 6
ENDMDL
MODEL 2
REMARK VINA RESULT:      -7.4      7.838      9.803
REMARK  Name = NuBBE_644
REMARK  10 active torsions:
REMARK  status: ('A' for Active; 'I' for Inactive)
REMARK    1  A    between atoms: O_1  and  C_2
REMARK    2  A    between atoms: C_5  and  C_6
REMARK    3  A    between atoms: C_8  and  C_10
REMARK    4  A    between atoms: C_11  and  C_13
REMARK    5  A    between atoms: C_14  and  C_16
REMARK    6  A    between atoms: C_18  and  O_19
REMARK    7  A    between atoms: O_19  and  C_20
REMARK    8  A    between atoms: C_21  and  O_22
REMARK    9  A    between atoms: C_27  and  O_28
REMARK   10  A    between atoms: O_28  and  C_29
REMARK                            x       y       z     vdW  Elec       q    Type
REMARK                         _______ _______ _______ _____ _____    ______ ____
ROOT
ATOM      1  C   LIG A   1      -7.727   5.692 132.388  0.00  0.00    +0.152 C 
ATOM      2  C   LIG A   1      -8.451   4.340 132.491  0.00  0.00    +0.025 C 
ATOM      3  C   LIG A   1      -8.583   3.889 133.948  0.00  0.00    +0.011 C 
ATOM      4  C   LIG A   1      -9.834   4.585 131.874  0.00  0.00    +0.025 C 
ATOM      5  C   LIG A   1      -9.878   4.054 130.437  0.00  0.00    +0.011 C 
ATOM      6  C   LIG A   1     -10.013   6.101 132.033  0.00  0.00    +0.152 C 
ATOM      7  O   LIG A   1      -8.694   6.667 131.973  0.00  0.00    -0.364 OA
ENDROOT
BRANCH   1  11
ATOM      8  C   LIG A   1      -4.370   5.756 129.642  0.00  0.00    +0.159 A 
ATOM      9  C   LIG A   1      -5.255   4.680 129.641  0.00  0.00    +0.049 A 
ATOM     10  C   LIG A   1      -6.336   4.656 130.522  0.00  0.00    +0.010 A 
ATOM     11  C   LIG A   1      -6.553   5.704 131.425  0.00  0.00    -0.015 A 
ATOM     12  C   LIG A   1      -5.650   6.782 131.413  0.00  0.00    +0.055 A 
ATOM     13  C   LIG A   1      -4.558   6.825 130.527  0.00  0.00    +0.162 A 
BRANCH   8  14
ATOM     14  O   LIG A   1      -3.328   5.729 128.755  0.00  0.00    -0.503 OA
ATOM     15  H   LIG A   1      -2.929   4.843 128.760  0.00  0.00    +0.292 HD
ENDBRANCH   8  14
BRANCH  13  16
ATOM     16  O   LIG A   1      -3.796   7.957 130.654  0.00  0.00    -0.491 OA
ATOM     17  C   LIG A   1      -2.972   8.073 131.808  0.00  0.00    +0.277 C 
ENDBRANCH  13  16
ENDBRANCH   1  11
BRANCH   6  18
ATOM     18  C   LIG A   1     -10.948   6.797 131.064  0.00  0.00    -0.015 A 
ATOM     19  C   LIG A   1     -10.447   7.379 129.882  0.00  0.00    +0.055 A 
ATOM     20  C   LIG A   1     -11.296   7.994 128.960  0.00  0.00    +0.162 A 
ATOM     21  C   LIG A   1     -12.660   8.042 129.236  0.00  0.00    +0.159 A 
ATOM     22  C   LIG A   1     -13.181   7.515 130.415  0.00  0.00    +0.049 A 
ATOM     23  C   LIG A   1     -12.321   6.893 131.327  0.00  0.00    +0.010 A 
BRANCH  20  24
ATOM     24  O   LIG A   1     -10.902   8.560 127.771  0.00  0.00    -0.491 OA
ATOM     25  C   LIG A   1     -10.775   7.666 126.668  0.00  0.00    +0.277 C 
ENDBRANCH  20  24
BRANCH  21  26
ATOM     26  O   LIG A   1     -13.531   8.597 128.339  0.00  0.00    -0.503 OA
ATOM     27  H   LIG A   1     -13.509   8.000 127.565  0.00  0.00    +0.292 HD
ENDBRANCH  21  26
ENDBRANCH   6  18
TORSDOF 6
ENDMDL
MODEL 3
REMARK VINA RESULT:      -7.3      0.979      2.096
REMARK  Name = NuBBE_644
REMARK  10 active torsions:
REMARK  status: ('A' for Active; 'I' for Inactive)
REMARK    1  A    between atoms: O_1  and  C_2
REMARK    2  A    between atoms: C_5  and  C_6
REMARK    3  A    between atoms: C_8  and  C_10
REMARK    4  A    between atoms: C_11  and  C_13
REMARK    5  A    between atoms: C_14  and  C_16
REMARK    6  A    between atoms: C_18  and  O_19
REMARK    7  A    between atoms: O_19  and  C_20
REMARK    8  A    between atoms: C_21  and  O_22
REMARK    9  A    between atoms: C_27  and  O_28
REMARK   10  A    between atoms: O_28  and  C_29
REMARK                            x       y       z     vdW  Elec       q    Type
REMARK                         _______ _______ _______ _____ _____    ______ ____
ROOT
ATOM      1  C   LIG A   1      -9.062  -1.930 125.450  0.00  0.00    +0.152 C 
ATOM      2  C   LIG A   1      -8.406  -2.635 124.252  0.00  0.00    +0.025 C 
ATOM      3  C   LIG A   1      -9.459  -3.239 123.318  0.00  0.00    +0.011 C 
ATOM      4  C   LIG A   1      -7.613  -1.536 123.534  0.00  0.00    +0.025 C 
ATOM      5  C   LIG A   1      -6.128  -1.626 123.897  0.00  0.00    +0.011 C 
ATOM      6  C   LIG A   1      -8.335  -0.254 123.975  0.00  0.00    +0.152 C 
ATOM      7  O   LIG A   1      -8.855  -0.520 125.287  0.00  0.00    -0.364 OA
ENDROOT
BRANCH   1  11
ATOM      8  C   LIG A   1      -7.512  -3.155 129.313  0.00  0.00    +0.159 A 
ATOM      9  C   LIG A   1      -8.416  -3.967 128.631  0.00  0.00    +0.049 A 
ATOM     10  C   LIG A   1      -8.916  -3.577 127.389  0.00  0.00    +0.010 A 
ATOM     11  C   LIG A   1      -8.528  -2.366 126.804  0.00  0.00    -0.015 A 
ATOM     12  C   LIG A   1      -7.615  -1.557 127.505  0.00  0.00    +0.055 A 
ATOM     13  C   LIG A   1      -7.096  -1.938 128.756  0.00  0.00    +0.162 A 
BRANCH   8  14
ATOM     14  O   LIG A   1      -7.051  -3.587 130.526  0.00  0.00    -0.503 OA
ATOM     15  H   LIG A   1      -6.084  -3.677 130.485  0.00  0.00    +0.292 HD
ENDBRANCH   8  14
BRANCH  13  16
ATOM     16  O   LIG A   1      -6.214  -1.030 129.281  0.00  0.00    -0.491 OA
ATOM     17  C   LIG A   1      -6.262   0.302 128.782  0.00  0.00    +0.277 C 
ENDBRANCH  13  16
ENDBRANCH   1  11
BRANCH   6  18
ATOM     18  C   LIG A   1      -7.535   1.034 123.958  0.00  0.00    -0.015 A 
ATOM     19  C   LIG A   1      -6.863   1.472 125.117  0.00  0.00    +0.055 A 
ATOM     20  C   LIG A   1      -6.093   2.637 125.111  0.00  0.00    +0.162 A 
ATOM     21  C   LIG A   1      -6.014   3.381 123.937  0.00  0.00    +0.159 A 
ATOM     22  C   LIG A   1      -6.703   2.998 122.788  0.00  0.00    +0.049 A 
ATOM     23  C   LIG A   1      -7.462   1.824 122.803  0.00  0.00    +0.010 A 
BRANCH  20  24
ATOM     24  O   LIG A   1      -5.381   3.123 126.181  0.00  0.00    -0.491 OA
ATOM     25  C   LIG A   1      -4.177   2.428 126.495  0.00  0.00    +0.277 C 
ENDBRANCH  20  24
BRANCH  21  26
ATOM     26  O   LIG A   1      -5.237   4.506 123.878  0.00  0.00    -0.503 OA
ATOM     27  H   LIG A   1      -4.339   4.202 124.117  0.00  0.00    +0.292 HD
ENDBRANCH  21  26
ENDBRANCH   6  18
TORSDOF 6
ENDMDL
MODEL 4
REMARK VINA RESULT:      -7.2      2.175      4.322
REMARK  Name = NuBBE_644
REMARK  10 active torsions:
REMARK  status: ('A' for Active; 'I' for Inactive)
REMARK    1  A    between atoms: O_1  and  C_2
REMARK    2  A    between atoms: C_5  and  C_6
REMARK    3  A    between atoms: C_8  and  C_10
REMARK    4  A    between atoms: C_11  and  C_13
REMARK    5  A    between atoms: C_14  and  C_16
REMARK    6  A    between atoms: C_18  and  O_19
REMARK    7  A    between atoms: O_19  and  C_20
REMARK    8  A    between atoms: C_21  and  O_22
REMARK    9  A    between atoms: C_27  and  O_28
REMARK   10  A    between atoms: O_28  and  C_29
REMARK                            x       y       z     vdW  Elec       q    Type
REMARK                         _______ _______ _______ _____ _____    ______ ____
ROOT
ATOM      1  C   LIG A   1      -5.797  -1.493 126.096  0.00  0.00    +0.152 C 
ATOM      2  C   LIG A   1      -6.038  -1.296 127.601  0.00  0.00    +0.025 C 
ATOM      3  C   LIG A   1      -4.939  -1.963 128.432  0.00  0.00    +0.011 C 
ATOM      4  C   LIG A   1      -6.024   0.224 127.808  0.00  0.00    +0.025 C 
ATOM      5  C   LIG A   1      -7.455   0.762 127.908  0.00  0.00    +0.011 C 
ATOM      6  C   LIG A   1      -5.204   0.722 126.609  0.00  0.00    +0.152 C 
ATOM      7  O   LIG A   1      -5.440  -0.216 125.547  0.00  0.00    -0.364 OA
ENDROOT
BRANCH   1  11
ATOM      8  C   LIG A   1      -9.210  -3.069 123.931  0.00  0.00    +0.159 A 
ATOM      9  C   LIG A   1      -8.324  -3.934 124.569  0.00  0.00    +0.049 A 
ATOM     10  C   LIG A   1      -7.225  -3.432 125.266  0.00  0.00    +0.010 A 
ATOM     11  C   LIG A   1      -6.987  -2.054 125.338  0.00  0.00    -0.015 A 
ATOM     12  C   LIG A   1      -7.890  -1.194 124.688  0.00  0.00    +0.055 A 
ATOM     13  C   LIG A   1      -9.007  -1.684 123.986  0.00  0.00    +0.162 A 
BRANCH   8  14
ATOM     14  O   LIG A   1     -10.272  -3.616 123.264  0.00  0.00    -0.503 OA
ATOM     15  H   LIG A   1     -11.094  -3.218 123.595  0.00  0.00    +0.292 HD
ENDBRANCH   8  14
BRANCH  13  16
ATOM     16  O   LIG A   1      -9.778  -0.697 123.429  0.00  0.00    -0.491 OA
ATOM     17  C   LIG A   1      -9.166   0.566 123.194  0.00  0.00    +0.277 C 
ENDBRANCH  13  16
ENDBRANCH   1  11
BRANCH   6  18
ATOM     18  C   LIG A   1      -5.447   2.144 126.143  0.00  0.00    -0.015 A 
ATOM     19  C   LIG A   1      -6.061   2.393 124.899  0.00  0.00    +0.055 A 
ATOM     20  C   LIG A   1      -6.324   3.694 124.468  0.00  0.00    +0.162 A 
ATOM     21  C   LIG A   1      -5.948   4.758 125.284  0.00  0.00    +0.159 A 
ATOM     22  C   LIG A   1      -5.300   4.546 126.498  0.00  0.00    +0.049 A 
ATOM     23  C   LIG A   1      -5.050   3.238 126.924  0.00  0.00    +0.010 A 
BRANCH  20  24
ATOM     24  O   LIG A   1      -6.944   4.030 123.288  0.00  0.00    -0.491 OA
ATOM     25  C   LIG A   1      -6.547   3.283 122.142  0.00  0.00    +0.277 C 
ENDBRANCH  20  24
BRANCH  21  26
ATOM     26  O   LIG A   1      -6.226   6.046 124.917  0.00  0.00    -0.503 OA
ATOM     27  H   LIG A   1      -5.370   6.412 124.619  0.00  0.00    +0.292 HD
ENDBRANCH  21  26
ENDBRANCH   6  18
TORSDOF 6
ENDMDL
MODEL 5
REMARK VINA RESULT:      -7.1      6.913      9.444
REMARK  Name = NuBBE_644
REMARK  10 active torsions:
REMARK  status: ('A' for Active; 'I' for Inactive)
REMARK    1  A    between atoms: O_1  and  C_2
REMARK    2  A    between atoms: C_5  and  C_6
REMARK    3  A    between atoms: C_8  and  C_10
REMARK    4  A    between atoms: C_11  and  C_13
REMARK    5  A    between atoms: C_14  and  C_16
REMARK    6  A    between atoms: C_18  and  O_19
REMARK    7  A    between atoms: O_19  and  C_20
REMARK    8  A    between atoms: C_21  and  O_22
REMARK    9  A    between atoms: C_27  and  O_28
REMARK   10  A    between atoms: O_28  and  C_29
REMARK                            x       y       z     vdW  Elec       q    Type
REMARK                         _______ _______ _______ _____ _____    ______ ____
ROOT
ATOM      1  C   LIG A   1      -9.546   5.409 131.741  0.00  0.00    +0.152 C 
ATOM      2  C   LIG A   1      -8.463   6.084 132.598  0.00  0.00    +0.025 C 
ATOM      3  C   LIG A   1      -8.424   5.495 134.011  0.00  0.00    +0.011 C 
ATOM      4  C   LIG A   1      -7.147   5.807 131.861  0.00  0.00    +0.025 C 
ATOM      5  C   LIG A   1      -6.718   7.036 131.054  0.00  0.00    +0.011 C 
ATOM      6  C   LIG A   1      -7.475   4.549 131.043  0.00  0.00    +0.152 C 
ATOM      7  O   LIG A   1      -8.878   4.622 130.745  0.00  0.00    -0.364 OA
ENDROOT
BRANCH   1  11
ATOM      8  C   LIG A   1     -12.254   8.181 129.790  0.00  0.00    +0.159 A 
ATOM      9  C   LIG A   1     -12.630   7.550 130.973  0.00  0.00    +0.049 A 
ATOM     10  C   LIG A   1     -11.762   6.658 131.604  0.00  0.00    +0.010 A 
ATOM     11  C   LIG A   1     -10.502   6.375 131.064  0.00  0.00    -0.015 A 
ATOM     12  C   LIG A   1     -10.138   7.020 129.868  0.00  0.00    +0.055 A 
ATOM     13  C   LIG A   1     -10.999   7.927 129.222  0.00  0.00    +0.162 A 
BRANCH   8  14
ATOM     14  O   LIG A   1     -13.143   9.048 129.215  0.00  0.00    -0.503 OA
ATOM     15  H   LIG A   1     -13.949   9.082 129.757  0.00  0.00    +0.292 HD
ENDBRANCH   8  14
BRANCH  13  16
ATOM     16  O   LIG A   1     -10.468   8.463 128.078  0.00  0.00    -0.491 OA
ATOM     17  C   LIG A   1     -10.814   7.852 126.840  0.00  0.00    +0.277 C 
ENDBRANCH  13  16
ENDBRANCH   1  11
BRANCH   6  18
ATOM     18  C   LIG A   1      -6.664   4.307 129.785  0.00  0.00    -0.015 A 
ATOM     19  C   LIG A   1      -7.301   4.220 128.530  0.00  0.00    +0.055 A 
ATOM     20  C   LIG A   1      -6.569   4.032 127.357  0.00  0.00    +0.162 A 
ATOM     21  C   LIG A   1      -5.184   3.910 127.445  0.00  0.00    +0.159 A 
ATOM     22  C   LIG A   1      -4.530   3.947 128.673  0.00  0.00    +0.049 A 
ATOM     23  C   LIG A   1      -5.273   4.146 129.841  0.00  0.00    +0.010 A 
BRANCH  20  24
ATOM     24  O   LIG A   1      -7.100   3.965 126.091  0.00  0.00    -0.491 OA
ATOM     25  C   LIG A   1      -8.159   4.878 125.812  0.00  0.00    +0.277 C 
ENDBRANCH  20  24
BRANCH  21  26
ATOM     26  O   LIG A   1      -4.427   3.767 126.315  0.00  0.00    -0.503 OA
ATOM     27  H   LIG A   1      -4.129   2.836 126.329  0.00  0.00    +0.292 HD
ENDBRANCH  21  26
ENDBRANCH   6  18
TORSDOF 6
ENDMDL
MODEL 6
REMARK VINA RESULT:      -6.9      1.357      1.543
REMARK  Name = NuBBE_644
REMARK  10 active torsions:
REMARK  status: ('A' for Active; 'I' for Inactive)
REMARK    1  A    between atoms: O_1  and  C_2
REMARK    2  A    between atoms: C_5  and  C_6
REMARK    3  A    between atoms: C_8  and  C_10
REMARK    4  A    between atoms: C_11  and  C_13
REMARK    5  A    between atoms: C_14  and  C_16
REMARK    6  A    between atoms: C_18  and  O_19
REMARK    7  A    between atoms: O_19  and  C_20
REMARK    8  A    between atoms: C_21  and  O_22
REMARK    9  A    between atoms: C_27  and  O_28
REMARK   10  A    between atoms: O_28  and  C_29
REMARK                            x       y       z     vdW  Elec       q    Type
REMARK                         _______ _______ _______ _____ _____    ______ ____
ROOT
ATOM      1  C   LIG A   1      -8.286  -2.316 126.381  0.00  0.00    +0.152 C 
ATOM      2  C   LIG A   1      -7.677  -3.026 125.161  0.00  0.00    +0.025 C 
ATOM      3  C   LIG A   1      -8.742  -3.800 124.379  0.00  0.00    +0.011 C 
ATOM      4  C   LIG A   1      -7.088  -1.900 124.301  0.00  0.00    +0.025 C 
ATOM      5  C   LIG A   1      -5.574  -1.806 124.509  0.00  0.00    +0.011 C 
ATOM      6  C   LIG A   1      -7.902  -0.675 124.744  0.00  0.00    +0.152 C 
ATOM      7  O   LIG A   1      -8.256  -0.906 126.117  0.00  0.00    -0.364 OA
ENDROOT
BRANCH   1  11
ATOM      8  C   LIG A   1      -6.224  -3.130 130.110  0.00  0.00    +0.159 A 
ATOM      9  C   LIG A   1      -7.605  -3.289 130.024  0.00  0.00    +0.049 A 
ATOM     10  C   LIG A   1      -8.272  -3.029 128.827  0.00  0.00    +0.010 A 
ATOM     11  C   LIG A   1      -7.574  -2.600 127.691  0.00  0.00    -0.015 A 
ATOM     12  C   LIG A   1      -6.179  -2.444 127.795  0.00  0.00    +0.055 A 
ATOM     13  C   LIG A   1      -5.491  -2.708 128.994  0.00  0.00    +0.162 A 
BRANCH   8  14
ATOM     14  O   LIG A   1      -5.621  -3.402 131.308  0.00  0.00    -0.503 OA
ATOM     15  H   LIG A   1      -6.300  -3.661 131.954  0.00  0.00    +0.292 HD
ENDBRANCH   8  14
BRANCH  13  16
ATOM     16  O   LIG A   1      -4.138  -2.510 128.901  0.00  0.00    -0.491 OA
ATOM     17  C   LIG A   1      -3.303  -3.661 128.851  0.00  0.00    +0.277 C 
ENDBRANCH  13  16
ENDBRANCH   1  11
BRANCH   6  18
ATOM     18  C   LIG A   1      -7.259   0.687 124.570  0.00  0.00    -0.015 A 
ATOM     19  C   LIG A   1      -7.333   1.358 123.333  0.00  0.00    +0.055 A 
ATOM     20  C   LIG A   1      -6.776   2.627 123.162  0.00  0.00    +0.162 A 
ATOM     21  C   LIG A   1      -6.122   3.220 124.239  0.00  0.00    +0.159 A 
ATOM     22  C   LIG A   1      -5.994   2.564 125.461  0.00  0.00    +0.049 A 
ATOM     23  C   LIG A   1      -6.564   1.298 125.622  0.00  0.00    +0.010 A 
BRANCH  20  24
ATOM     24  O   LIG A   1      -6.826   3.367 122.005  0.00  0.00    -0.491 OA
ATOM     25  C   LIG A   1      -8.105   3.464 121.383  0.00  0.00    +0.277 C 
ENDBRANCH  20  24
BRANCH  21  26
ATOM     26  O   LIG A   1      -5.600   4.480 124.126  0.00  0.00    -0.503 OA
ATOM     27  H   LIG A   1      -5.795   4.910 124.982  0.00  0.00    +0.292 HD
ENDBRANCH  21  26
ENDBRANCH   6  18
TORSDOF 6
ENDMDL
MODEL 7
REMARK VINA RESULT:      -6.9      6.642      8.600
REMARK  Name = NuBBE_644
REMARK  10 active torsions:
REMARK  status: ('A' for Active; 'I' for Inactive)
REMARK    1  A    between atoms: O_1  and  C_2
REMARK    2  A    between atoms: C_5  and  C_6
REMARK    3  A    between atoms: C_8  and  C_10
REMARK    4  A    between atoms: C_11  and  C_13
REMARK    5  A    between atoms: C_14  and  C_16
REMARK    6  A    between atoms: C_18  and  O_19
REMARK    7  A    between atoms: O_19  and  C_20
REMARK    8  A    between atoms: C_21  and  O_22
REMARK    9  A    between atoms: C_27  and  O_28
REMARK   10  A    between atoms: O_28  and  C_29
REMARK                            x       y       z     vdW  Elec       q    Type
REMARK                         _______ _______ _______ _____ _____    ______ ____
ROOT
ATOM      1  C   LIG A   1      -7.631   4.146 131.334  0.00  0.00    +0.152 C 
ATOM      2  C   LIG A   1      -8.690   3.172 131.876  0.00  0.00    +0.025 C 
ATOM      3  C   LIG A   1      -8.419   2.816 133.340  0.00  0.00    +0.011 C 
ATOM      4  C   LIG A   1     -10.021   3.922 131.740  0.00  0.00    +0.025 C 
ATOM      5  C   LIG A   1     -10.781   3.439 130.501  0.00  0.00    +0.011 C 
ATOM      6  C   LIG A   1      -9.582   5.393 131.726  0.00  0.00    +0.152 C 
ATOM      7  O   LIG A   1      -8.273   5.413 131.135  0.00  0.00    -0.364 OA
ENDROOT
BRANCH   1  11
ATOM      8  C   LIG A   1      -5.782   2.896 127.613  0.00  0.00    +0.159 A 
ATOM      9  C   LIG A   1      -5.597   2.149 128.773  0.00  0.00    +0.049 A 
ATOM     10  C   LIG A   1      -6.189   2.546 129.972  0.00  0.00    +0.010 A 
ATOM     11  C   LIG A   1      -6.977   3.702 130.037  0.00  0.00    -0.015 A 
ATOM     12  C   LIG A   1      -7.154   4.447 128.857  0.00  0.00    +0.055 A 
ATOM     13  C   LIG A   1      -6.568   4.056 127.638  0.00  0.00    +0.162 A 
BRANCH   8  14
ATOM     14  O   LIG A   1      -5.180   2.459 126.465  0.00  0.00    -0.503 OA
ATOM     15  H   LIG A   1      -4.766   3.215 126.016  0.00  0.00    +0.292 HD
ENDBRANCH   8  14
BRANCH  13  16
ATOM     16  O   LIG A   1      -6.861   4.898 126.597  0.00  0.00    -0.491 OA
ATOM     17  C   LIG A   1      -7.963   4.559 125.764  0.00  0.00    +0.277 C 
ENDBRANCH  13  16
ENDBRANCH   1  11
BRANCH   6  18
ATOM     18  C   LIG A   1     -10.502   6.386 131.043  0.00  0.00    -0.015 A 
ATOM     19  C   LIG A   1     -10.095   7.043 129.864  0.00  0.00    +0.055 A 
ATOM     20  C   LIG A   1     -10.941   7.935 129.202  0.00  0.00    +0.162 A 
ATOM     21  C   LIG A   1     -12.201   8.186 129.739  0.00  0.00    +0.159 A 
ATOM     22  C   LIG A   1     -12.615   7.586 130.926  0.00  0.00    +0.049 A 
ATOM     23  C   LIG A   1     -11.763   6.688 131.575  0.00  0.00    +0.010 A 
BRANCH  20  24
ATOM     24  O   LIG A   1     -10.641   8.596 128.035  0.00  0.00    -0.491 OA
ATOM     25  C   LIG A   1     -10.804   7.844 126.835  0.00  0.00    +0.277 C 
ENDBRANCH  20  24
BRANCH  21  26
ATOM     26  O   LIG A   1     -13.075   9.020 129.099  0.00  0.00    -0.503 OA
ATOM     27  H   LIG A   1     -12.981   8.802 128.150  0.00  0.00    +0.292 HD
ENDBRANCH  21  26
ENDBRANCH   6  18
TORSDOF 6
ENDMDL
MODEL 8
REMARK VINA RESULT:      -6.7      2.183      4.955
REMARK  Name = NuBBE_644
REMARK  10 active torsions:
REMARK  status: ('A' for Active; 'I' for Inactive)
REMARK    1  A    between atoms: O_1  and  C_2
REMARK    2  A    between atoms: C_5  and  C_6
REMARK    3  A    between atoms: C_8  and  C_10
REMARK    4  A    between atoms: C_11  and  C_13
REMARK    5  A    between atoms: C_14  and  C_16
REMARK    6  A    between atoms: C_18  and  O_19
REMARK    7  A    between atoms: O_19  and  C_20
REMARK    8  A    between atoms: C_21  and  O_22
REMARK    9  A    between atoms: C_27  and  O_28
REMARK   10  A    between atoms: O_28  and  C_29
REMARK                            x       y       z     vdW  Elec       q    Type
REMARK                         _______ _______ _______ _____ _____    ______ ____
ROOT
ATOM      1  C   LIG A   1      -6.496  -2.415 127.967  0.00  0.00    +0.152 C 
ATOM      2  C   LIG A   1      -7.198  -2.019 129.276  0.00  0.00    +0.025 C 
ATOM      3  C   LIG A   1      -6.774  -2.930 130.431  0.00  0.00    +0.011 C 
ATOM      4  C   LIG A   1      -6.757  -0.574 129.539  0.00  0.00    +0.025 C 
ATOM      5  C   LIG A   1      -7.857   0.404 129.114  0.00  0.00    +0.011 C 
ATOM      6  C   LIG A   1      -5.436  -0.475 128.762  0.00  0.00    +0.152 C 
ATOM      7  O   LIG A   1      -5.560  -1.375 127.650  0.00  0.00    -0.364 OA
ENDROOT
BRANCH   1  11
ATOM      8  C   LIG A   1      -9.157  -3.001 124.591  0.00  0.00    +0.159 A 
ATOM      9  C   LIG A   1      -9.623  -3.185 125.890  0.00  0.00    +0.049 A 
ATOM     10  C   LIG A   1      -8.771  -2.997 126.979  0.00  0.00    +0.010 A 
ATOM     11  C   LIG A   1      -7.434  -2.626 126.791  0.00  0.00    -0.015 A 
ATOM     12  C   LIG A   1      -6.979  -2.444 125.473  0.00  0.00    +0.055 A 
ATOM     13  C   LIG A   1      -7.827  -2.623 124.364  0.00  0.00    +0.162 A 
BRANCH   8  14
ATOM     14  O   LIG A   1     -10.036  -3.195 123.561  0.00  0.00    -0.503 OA
ATOM     15  H   LIG A   1     -10.009  -4.129 123.292  0.00  0.00    +0.292 HD
ENDBRANCH   8  14
BRANCH  13  16
ATOM     16  O   LIG A   1      -7.210  -2.392 123.162  0.00  0.00    -0.491 OA
ATOM     17  C   LIG A   1      -6.574  -1.133 122.978  0.00  0.00    +0.277 C 
ENDBRANCH  13  16
ENDBRANCH   1  11
BRANCH   6  18
ATOM     18  C   LIG A   1      -5.002   0.902 128.302  0.00  0.00    -0.015 A 
ATOM     19  C   LIG A   1      -5.221   1.313 126.971  0.00  0.00    +0.055 A 
ATOM     20  C   LIG A   1      -4.859   2.589 126.537  0.00  0.00    +0.162 A 
ATOM     21  C   LIG A   1      -4.253   3.456 127.442  0.00  0.00    +0.159 A 
ATOM     22  C   LIG A   1      -3.982   3.065 128.751  0.00  0.00    +0.049 A 
ATOM     23  C   LIG A   1      -4.358   1.788 129.177  0.00  0.00    +0.010 A 
BRANCH  20  24
ATOM     24  O   LIG A   1      -5.062   3.084 125.271  0.00  0.00    -0.491 OA
ATOM     25  C   LIG A   1      -6.337   2.815 124.694  0.00  0.00    +0.277 C 
ENDBRANCH  20  24
BRANCH  21  26
ATOM     26  O   LIG A   1      -3.922   4.730 127.069  0.00  0.00    -0.503 OA
ATOM     27  H   LIG A   1      -3.011   4.660 126.721  0.00  0.00    +0.292 HD
ENDBRANCH  21  26
ENDBRANCH   6  18
TORSDOF 6
ENDMDL
MODEL 9
REMARK VINA RESULT:      -6.7      2.809      5.597
REMARK  Name = NuBBE_644
REMARK  10 active torsions:
REMARK  status: ('A' for Active; 'I' for Inactive)
REMARK    1  A    between atoms: O_1  and  C_2
REMARK    2  A    between atoms: C_5  and  C_6
REMARK    3  A    between atoms: C_8  and  C_10
REMARK    4  A    between atoms: C_11  and  C_13
REMARK    5  A    between atoms: C_14  and  C_16
REMARK    6  A    between atoms: C_18  and  O_19
REMARK    7  A    between atoms: O_19  and  C_20
REMARK    8  A    between atoms: C_21  and  O_22
REMARK    9  A    between atoms: C_27  and  O_28
REMARK   10  A    between atoms: O_28  and  C_29
REMARK                            x       y       z     vdW  Elec       q    Type
REMARK                         _______ _______ _______ _____ _____    ______ ____
ROOT
ATOM      1  C   LIG A   1      -6.718  -2.384 128.011  0.00  0.00    +0.152 C 
ATOM      2  C   LIG A   1      -7.472  -1.828 129.230  0.00  0.00    +0.025 C 
ATOM      3  C   LIG A   1      -7.192  -2.662 130.484  0.00  0.00    +0.011 C 
ATOM      4  C   LIG A   1      -6.943  -0.399 129.404  0.00  0.00    +0.025 C 
ATOM      5  C   LIG A   1      -7.937   0.612 128.823  0.00  0.00    +0.011 C 
ATOM      6  C   LIG A   1      -5.571  -0.460 128.717  0.00  0.00    +0.152 C 
ATOM      7  O   LIG A   1      -5.689  -1.443 127.676  0.00  0.00    -0.364 OA
ENDROOT
BRANCH   1  11
ATOM      8  C   LIG A   1      -9.193  -3.074 124.516  0.00  0.00    +0.159 A 
ATOM      9  C   LIG A   1      -9.714  -3.270 125.792  0.00  0.00    +0.049 A 
ATOM     10  C   LIG A   1      -8.922  -3.049 126.919  0.00  0.00    +0.010 A 
ATOM     11  C   LIG A   1      -7.592  -2.631 126.793  0.00  0.00    -0.015 A 
ATOM     12  C   LIG A   1      -7.080  -2.439 125.497  0.00  0.00    +0.055 A 
ATOM     13  C   LIG A   1      -7.868  -2.652 124.350  0.00  0.00    +0.162 A 
BRANCH   8  14
ATOM     14  O   LIG A   1     -10.015  -3.303 123.446  0.00  0.00    -0.503 OA
ATOM     15  H   LIG A   1      -9.527  -3.121 122.625  0.00  0.00    +0.292 HD
ENDBRANCH   8  14
BRANCH  13  16
ATOM     16  O   LIG A   1      -7.203  -2.403 123.178  0.00  0.00    -0.491 OA
ATOM     17  C   LIG A   1      -6.667  -1.099 122.985  0.00  0.00    +0.277 C 
ENDBRANCH  13  16
ENDBRANCH   1  11
BRANCH   6  18
ATOM     18  C   LIG A   1      -5.006   0.840 128.176  0.00  0.00    -0.015 A 
ATOM     19  C   LIG A   1      -4.418   1.779 129.047  0.00  0.00    +0.055 A 
ATOM     20  C   LIG A   1      -3.862   2.966 128.565  0.00  0.00    +0.162 A 
ATOM     21  C   LIG A   1      -3.915   3.221 127.197  0.00  0.00    +0.159 A 
ATOM     22  C   LIG A   1      -4.529   2.334 126.317  0.00  0.00    +0.049 A 
ATOM     23  C   LIG A   1      -5.073   1.144 126.810  0.00  0.00    +0.010 A 
BRANCH  20  24
ATOM     24  O   LIG A   1      -3.242   3.922 129.333  0.00  0.00    -0.491 OA
ATOM     25  C   LIG A   1      -3.870   4.224 130.577  0.00  0.00    +0.277 C 
ENDBRANCH  20  24
BRANCH  21  26
ATOM     26  O   LIG A   1      -3.344   4.352 126.680  0.00  0.00    -0.503 OA
ATOM     27  H   LIG A   1      -3.324   4.202 125.714  0.00  0.00    +0.292 HD
ENDBRANCH  21  26
ENDBRANCH   6  18
TORSDOF 6
ENDMDL
