MODEL 1
REMARK VINA RESULT:      -7.1      0.000      0.000
REMARK  Name = NuBBE_1604
REMARK  10 active torsions:
REMARK  status: ('A' for Active; 'I' for Inactive)
REMARK    1  A    between atoms: O_1  and  C_2
REMARK    2  A    between atoms: C_3  and  C_4
REMARK    3  A    between atoms: C_4  and  C_5
REMARK    4  A    between atoms: C_5  and  C_6
REMARK    5  A    between atoms: C_6  and  C_7
REMARK    6  A    between atoms: C_10  and  O_11
REMARK    7  A    between atoms: O_11  and  C_12
REMARK    8  A    between atoms: C_16  and  O_17
REMARK    9  A    between atoms: O_17  and  C_18
REMARK   10  A    between atoms: C_20  and  O_21
REMARK                            x       y       z     vdW  Elec       q    Type
REMARK                         _______ _______ _______ _____ _____    ______ ____
ROOT
ATOM      1  C   LIG A   1     -12.129   7.076 130.738  0.00  0.00    +0.134 A 
ATOM      2  C   LIG A   1     -11.205   6.535 129.818  0.00  0.00    +0.101 A 
ATOM      3  C   LIG A   1     -10.943   7.272 128.640  0.00  0.00    +0.138 A 
ATOM      4  C   LIG A   1     -11.620   8.489 128.412  0.00  0.00    +0.092 A 
ATOM      5  C   LIG A   1     -12.514   8.991 129.352  0.00  0.00    +0.124 A 
ATOM      6  C   LIG A   1     -12.772   8.291 130.516  0.00  0.00    +0.091 A 
ENDROOT
BRANCH   1   7
ATOM      7  O   LIG A   1     -12.482   6.461 131.917  0.00  0.00    -0.506 OA
ATOM      8  H   LIG A   1     -11.695   6.459 132.507  0.00  0.00    +0.292 HD
ENDBRANCH   1   7
BRANCH   2   9
ATOM      9  C   LIG A   1     -10.542   5.226 130.174  0.00  0.00    +0.171 C 
ATOM     10  O   LIG A   1     -11.239   4.204 130.083  0.00  0.00    -0.292 OA
BRANCH   9  11
ATOM     11  C   LIG A   1      -9.098   5.117 130.627  0.00  0.00    +0.084 C 
BRANCH  11  12
ATOM     12  C   LIG A   1      -8.659   6.413 131.337  0.00  0.00    +0.043 C 
BRANCH  12  13
ATOM     13  C   LIG A   1      -7.192   6.433 131.689  0.00  0.00    -0.047 A 
ATOM     14  C   LIG A   1      -6.261   7.057 130.851  0.00  0.00    +0.007 A 
ATOM     15  C   LIG A   1      -4.903   7.073 131.188  0.00  0.00    +0.046 A 
ATOM     16  C   LIG A   1      -4.459   6.451 132.355  0.00  0.00    +0.120 A 
ATOM     17  C   LIG A   1      -5.384   5.847 133.205  0.00  0.00    +0.046 A 
ATOM     18  C   LIG A   1      -6.741   5.833 132.870  0.00  0.00    +0.007 A 
BRANCH  16  19
ATOM     19  O   LIG A   1      -3.112   6.525 132.593  0.00  0.00    -0.495 OA
ATOM     20  C   LIG A   1      -2.595   7.848 132.705  0.00  0.00    +0.277 C 
ENDBRANCH  16  19
ENDBRANCH  12  13
ENDBRANCH  11  12
ENDBRANCH   9  11
ENDBRANCH   2   9
BRANCH   3  21
ATOM     21  O   LIG A   1     -10.069   6.762 127.714  0.00  0.00    -0.494 OA
ATOM     22  C   LIG A   1     -10.353   7.054 126.347  0.00  0.00    +0.277 C 
ENDBRANCH   3  21
BRANCH   5  23
ATOM     23  O   LIG A   1     -13.170  10.171 129.164  0.00  0.00    -0.506 OA
ATOM     24  H   LIG A   1     -12.531  10.901 129.144  0.00  0.00    +0.292 HD
ENDBRANCH   5  23
TORSDOF 8
ENDMDL
MODEL 2
REMARK VINA RESULT:      -6.9      1.539      2.240
REMARK  Name = NuBBE_1604
REMARK  10 active torsions:
REMARK  status: ('A' for Active; 'I' for Inactive)
REMARK    1  A    between atoms: O_1  and  C_2
REMARK    2  A    between atoms: C_3  and  C_4
REMARK    3  A    between atoms: C_4  and  C_5
REMARK    4  A    between atoms: C_5  and  C_6
REMARK    5  A    between atoms: C_6  and  C_7
REMARK    6  A    between atoms: C_10  and  O_11
REMARK    7  A    between atoms: O_11  and  C_12
REMARK    8  A    between atoms: C_16  and  O_17
REMARK    9  A    between atoms: O_17  and  C_18
REMARK   10  A    between atoms: C_20  and  O_21
REMARK                            x       y       z     vdW  Elec       q    Type
REMARK                         _______ _______ _______ _____ _____    ______ ____
ROOT
ATOM      1  C   LIG A   1     -12.040   6.990 130.958  0.00  0.00    +0.134 A 
ATOM      2  C   LIG A   1     -11.324   6.520 129.836  0.00  0.00    +0.101 A 
ATOM      3  C   LIG A   1     -11.326   7.323 128.672  0.00  0.00    +0.138 A 
ATOM      4  C   LIG A   1     -12.051   8.533 128.658  0.00  0.00    +0.092 A 
ATOM      5  C   LIG A   1     -12.733   8.964 129.792  0.00  0.00    +0.124 A 
ATOM      6  C   LIG A   1     -12.731   8.199 130.943  0.00  0.00    +0.091 A 
ENDROOT
BRANCH   1   7
ATOM      7  O   LIG A   1     -12.129   6.307 132.148  0.00  0.00    -0.506 OA
ATOM      8  H   LIG A   1     -13.034   5.927 132.213  0.00  0.00    +0.292 HD
ENDBRANCH   1   7
BRANCH   2   9
ATOM      9  C   LIG A   1     -10.584   5.211 129.973  0.00  0.00    +0.171 C 
ATOM     10  O   LIG A   1     -11.274   4.181 130.014  0.00  0.00    -0.292 OA
BRANCH   9  11
ATOM     11  C   LIG A   1      -9.073   5.111 130.059  0.00  0.00    +0.084 C 
BRANCH  11  12
ATOM     12  C   LIG A   1      -8.489   6.373 130.721  0.00  0.00    +0.043 C 
BRANCH  12  13
ATOM     13  C   LIG A   1      -7.846   6.104 132.059  0.00  0.00    -0.047 A 
ATOM     14  C   LIG A   1      -8.626   5.872 133.198  0.00  0.00    +0.007 A 
ATOM     15  C   LIG A   1      -8.019   5.620 134.433  0.00  0.00    +0.046 A 
ATOM     16  C   LIG A   1      -6.629   5.615 134.549  0.00  0.00    +0.120 A 
ATOM     17  C   LIG A   1      -5.846   5.823 133.414  0.00  0.00    +0.046 A 
ATOM     18  C   LIG A   1      -6.451   6.072 132.178  0.00  0.00    +0.007 A 
BRANCH  16  19
ATOM     19  O   LIG A   1      -6.137   5.357 135.800  0.00  0.00    -0.495 OA
ATOM     20  C   LIG A   1      -6.896   5.915 136.869  0.00  0.00    +0.277 C 
ENDBRANCH  16  19
ENDBRANCH  12  13
ENDBRANCH  11  12
ENDBRANCH   9  11
ENDBRANCH   2   9
BRANCH   3  21
ATOM     21  O   LIG A   1     -10.660   6.881 127.557  0.00  0.00    -0.494 OA
ATOM     22  C   LIG A   1     -10.837   7.651 126.369  0.00  0.00    +0.277 C 
ENDBRANCH   3  21
BRANCH   5  23
ATOM     23  O   LIG A   1     -13.429  10.136 129.810  0.00  0.00    -0.506 OA
ATOM     24  H   LIG A   1     -12.856  10.852 130.127  0.00  0.00    +0.292 HD
ENDBRANCH   5  23
TORSDOF 8
ENDMDL
MODEL 3
REMARK VINA RESULT:      -6.9      8.280     10.200
REMARK  Name = NuBBE_1604
REMARK  10 active torsions:
REMARK  status: ('A' for Active; 'I' for Inactive)
REMARK    1  A    between atoms: O_1  and  C_2
REMARK    2  A    between atoms: C_3  and  C_4
REMARK    3  A    between atoms: C_4  and  C_5
REMARK    4  A    between atoms: C_5  and  C_6
REMARK    5  A    between atoms: C_6  and  C_7
REMARK    6  A    between atoms: C_10  and  O_11
REMARK    7  A    between atoms: O_11  and  C_12
REMARK    8  A    between atoms: C_16  and  O_17
REMARK    9  A    between atoms: O_17  and  C_18
REMARK   10  A    between atoms: C_20  and  O_21
REMARK                            x       y       z     vdW  Elec       q    Type
REMARK                         _______ _______ _______ _____ _____    ______ ____
ROOT
ATOM      1  C   LIG A   1      -9.377   0.211 123.325  0.00  0.00    +0.134 A 
ATOM      2  C   LIG A   1      -8.178  -0.409 123.740  0.00  0.00    +0.101 A 
ATOM      3  C   LIG A   1      -7.292   0.346 124.542  0.00  0.00    +0.138 A 
ATOM      4  C   LIG A   1      -7.614   1.678 124.876  0.00  0.00    +0.092 A 
ATOM      5  C   LIG A   1      -8.812   2.246 124.455  0.00  0.00    +0.124 A 
ATOM      6  C   LIG A   1      -9.697   1.519 123.682  0.00  0.00    +0.091 A 
ENDROOT
BRANCH   1   7
ATOM      7  O   LIG A   1     -10.321  -0.403 122.536  0.00  0.00    -0.506 OA
ATOM      8  H   LIG A   1     -11.203  -0.041 122.779  0.00  0.00    +0.292 HD
ENDBRANCH   1   7
BRANCH   2   9
ATOM      9  C   LIG A   1      -7.946  -1.841 123.321  0.00  0.00    +0.171 C 
ATOM     10  O   LIG A   1      -7.630  -2.033 122.137  0.00  0.00    -0.292 OA
BRANCH   9  11
ATOM     11  C   LIG A   1      -8.083  -3.020 124.267  0.00  0.00    +0.084 C 
BRANCH  11  12
ATOM     12  C   LIG A   1      -9.215  -2.766 125.280  0.00  0.00    +0.043 C 
BRANCH  12  13
ATOM     13  C   LIG A   1      -8.752  -2.809 126.716  0.00  0.00    -0.047 A 
ATOM     14  C   LIG A   1      -8.995  -3.932 127.516  0.00  0.00    +0.007 A 
ATOM     15  C   LIG A   1      -8.559  -3.963 128.845  0.00  0.00    +0.046 A 
ATOM     16  C   LIG A   1      -7.895  -2.866 129.395  0.00  0.00    +0.120 A 
ATOM     17  C   LIG A   1      -7.631  -1.753 128.597  0.00  0.00    +0.046 A 
ATOM     18  C   LIG A   1      -8.063  -1.723 127.268  0.00  0.00    +0.007 A 
BRANCH  16  19
ATOM     19  O   LIG A   1      -7.510  -2.998 130.702  0.00  0.00    -0.495 OA
ATOM     20  C   LIG A   1      -6.315  -3.749 130.903  0.00  0.00    +0.277 C 
ENDBRANCH  16  19
ENDBRANCH  12  13
ENDBRANCH  11  12
ENDBRANCH   9  11
ENDBRANCH   2   9
BRANCH   3  21
ATOM     21  O   LIG A   1      -6.107  -0.220 124.941  0.00  0.00    -0.494 OA
ATOM     22  C   LIG A   1      -5.398   0.461 125.974  0.00  0.00    +0.277 C 
ENDBRANCH   3  21
BRANCH   5  23
ATOM     23  O   LIG A   1      -9.154   3.525 124.776  0.00  0.00    -0.506 OA
ATOM     24  H   LIG A   1      -9.244   3.609 125.739  0.00  0.00    +0.292 HD
ENDBRANCH   5  23
TORSDOF 8
ENDMDL
MODEL 4
REMARK VINA RESULT:      -6.7      7.673     11.013
REMARK  Name = NuBBE_1604
REMARK  10 active torsions:
REMARK  status: ('A' for Active; 'I' for Inactive)
REMARK    1  A    between atoms: O_1  and  C_2
REMARK    2  A    between atoms: C_3  and  C_4
REMARK    3  A    between atoms: C_4  and  C_5
REMARK    4  A    between atoms: C_5  and  C_6
REMARK    5  A    between atoms: C_6  and  C_7
REMARK    6  A    between atoms: C_10  and  O_11
REMARK    7  A    between atoms: O_11  and  C_12
REMARK    8  A    between atoms: C_16  and  O_17
REMARK    9  A    between atoms: O_17  and  C_18
REMARK   10  A    between atoms: C_20  and  O_21
REMARK                            x       y       z     vdW  Elec       q    Type
REMARK                         _______ _______ _______ _____ _____    ______ ____
ROOT
ATOM      1  C   LIG A   1      -9.104  -2.205 125.424  0.00  0.00    +0.134 A 
ATOM      2  C   LIG A   1      -8.674  -0.873 125.608  0.00  0.00    +0.101 A 
ATOM      3  C   LIG A   1      -8.056  -0.546 126.838  0.00  0.00    +0.138 A 
ATOM      4  C   LIG A   1      -7.915  -1.535 127.834  0.00  0.00    +0.092 A 
ATOM      5  C   LIG A   1      -8.343  -2.839 127.605  0.00  0.00    +0.124 A 
ATOM      6  C   LIG A   1      -8.936  -3.180 126.405  0.00  0.00    +0.091 A 
ENDROOT
BRANCH   1   7
ATOM      7  O   LIG A   1      -9.727  -2.656 124.284  0.00  0.00    -0.506 OA
ATOM      8  H   LIG A   1      -9.082  -3.202 123.781  0.00  0.00    +0.292 HD
ENDBRANCH   1   7
BRANCH   2   9
ATOM      9  C   LIG A   1      -8.877   0.095 124.467  0.00  0.00    +0.171 C 
ATOM     10  O   LIG A   1     -10.040   0.471 124.255  0.00  0.00    -0.292 OA
BRANCH   9  11
ATOM     11  C   LIG A   1      -7.746   0.609 123.597  0.00  0.00    +0.084 C 
BRANCH  11  12
ATOM     12  C   LIG A   1      -7.618   2.139 123.731  0.00  0.00    +0.043 C 
BRANCH  12  13
ATOM     13  C   LIG A   1      -7.495   2.846 122.404  0.00  0.00    -0.047 A 
ATOM     14  C   LIG A   1      -8.634   3.239 121.691  0.00  0.00    +0.007 A 
ATOM     15  C   LIG A   1      -8.509   3.897 120.463  0.00  0.00    +0.046 A 
ATOM     16  C   LIG A   1      -7.247   4.153 119.925  0.00  0.00    +0.120 A 
ATOM     17  C   LIG A   1      -6.109   3.783 120.640  0.00  0.00    +0.046 A 
ATOM     18  C   LIG A   1      -6.233   3.129 121.869  0.00  0.00    +0.007 A 
BRANCH  16  19
ATOM     19  O   LIG A   1      -7.235   4.803 118.719  0.00  0.00    -0.495 OA
ATOM     20  C   LIG A   1      -6.041   5.527 118.441  0.00  0.00    +0.277 C 
ENDBRANCH  16  19
ENDBRANCH  12  13
ENDBRANCH  11  12
ENDBRANCH   9  11
ENDBRANCH   2   9
BRANCH   3  21
ATOM     21  O   LIG A   1      -7.649   0.746 127.056  0.00  0.00    -0.494 OA
ATOM     22  C   LIG A   1      -7.228   1.060 128.383  0.00  0.00    +0.277 C 
ENDBRANCH   3  21
BRANCH   5  23
ATOM     23  O   LIG A   1      -8.205  -3.816 128.545  0.00  0.00    -0.506 OA
ATOM     24  H   LIG A   1      -8.943  -4.443 128.476  0.00  0.00    +0.292 HD
ENDBRANCH   5  23
TORSDOF 8
ENDMDL
MODEL 5
REMARK VINA RESULT:      -6.6      8.587     10.758
REMARK  Name = NuBBE_1604
REMARK  10 active torsions:
REMARK  status: ('A' for Active; 'I' for Inactive)
REMARK    1  A    between atoms: O_1  and  C_2
REMARK    2  A    between atoms: C_3  and  C_4
REMARK    3  A    between atoms: C_4  and  C_5
REMARK    4  A    between atoms: C_5  and  C_6
REMARK    5  A    between atoms: C_6  and  C_7
REMARK    6  A    between atoms: C_10  and  O_11
REMARK    7  A    between atoms: O_11  and  C_12
REMARK    8  A    between atoms: C_16  and  O_17
REMARK    9  A    between atoms: O_17  and  C_18
REMARK   10  A    between atoms: C_20  and  O_21
REMARK                            x       y       z     vdW  Elec       q    Type
REMARK                         _______ _______ _______ _____ _____    ______ ____
ROOT
ATOM      1  C   LIG A   1      -7.938   2.896 123.435  0.00  0.00    +0.134 A 
ATOM      2  C   LIG A   1      -8.297   1.719 124.127  0.00  0.00    +0.101 A 
ATOM      3  C   LIG A   1      -7.456   1.295 125.182  0.00  0.00    +0.138 A 
ATOM      4  C   LIG A   1      -6.293   2.033 125.489  0.00  0.00    +0.092 A 
ATOM      5  C   LIG A   1      -5.984   3.195 124.788  0.00  0.00    +0.124 A 
ATOM      6  C   LIG A   1      -6.801   3.631 123.763  0.00  0.00    +0.091 A 
ENDROOT
BRANCH   1   7
ATOM      7  O   LIG A   1      -8.659   3.415 122.385  0.00  0.00    -0.506 OA
ATOM      8  H   LIG A   1      -8.022   3.699 121.691  0.00  0.00    +0.292 HD
ENDBRANCH   1   7
BRANCH   2   9
ATOM      9  C   LIG A   1      -9.567   1.018 123.709  0.00  0.00    +0.171 C 
ATOM     10  O   LIG A   1     -10.578   1.237 124.394  0.00  0.00    -0.292 OA
BRANCH   9  11
ATOM     11  C   LIG A   1      -9.650   0.082 122.518  0.00  0.00    +0.084 C 
BRANCH  11  12
ATOM     12  C   LIG A   1      -9.703  -1.384 122.989  0.00  0.00    +0.043 C 
BRANCH  12  13
ATOM     13  C   LIG A   1      -8.341  -1.982 123.237  0.00  0.00    -0.047 A 
ATOM     14  C   LIG A   1      -7.199  -1.445 122.631  0.00  0.00    +0.007 A 
ATOM     15  C   LIG A   1      -5.940  -2.005 122.870  0.00  0.00    +0.046 A 
ATOM     16  C   LIG A   1      -5.809  -3.119 123.701  0.00  0.00    +0.120 A 
ATOM     17  C   LIG A   1      -6.939  -3.645 124.324  0.00  0.00    +0.046 A 
ATOM     18  C   LIG A   1      -8.198  -3.084 124.089  0.00  0.00    +0.007 A 
BRANCH  16  19
ATOM     19  O   LIG A   1      -4.534  -3.589 123.869  0.00  0.00    -0.495 OA
ATOM     20  C   LIG A   1      -4.360  -4.971 123.572  0.00  0.00    +0.277 C 
ENDBRANCH  16  19
ENDBRANCH  12  13
ENDBRANCH  11  12
ENDBRANCH   9  11
ENDBRANCH   2   9
BRANCH   3  21
ATOM     21  O   LIG A   1      -7.764   0.142 125.858  0.00  0.00    -0.494 OA
ATOM     22  C   LIG A   1      -6.665  -0.579 126.412  0.00  0.00    +0.277 C 
ENDBRANCH   3  21
BRANCH   5  23
ATOM     23  O   LIG A   1      -4.875   3.933 125.073  0.00  0.00    -0.506 OA
ATOM     24  H   LIG A   1      -5.098   4.878 125.059  0.00  0.00    +0.292 HD
ENDBRANCH   5  23
TORSDOF 8
ENDMDL
MODEL 6
REMARK VINA RESULT:      -6.6      8.797     11.451
REMARK  Name = NuBBE_1604
REMARK  10 active torsions:
REMARK  status: ('A' for Active; 'I' for Inactive)
REMARK    1  A    between atoms: O_1  and  C_2
REMARK    2  A    between atoms: C_3  and  C_4
REMARK    3  A    between atoms: C_4  and  C_5
REMARK    4  A    between atoms: C_5  and  C_6
REMARK    5  A    between atoms: C_6  and  C_7
REMARK    6  A    between atoms: C_10  and  O_11
REMARK    7  A    between atoms: O_11  and  C_12
REMARK    8  A    between atoms: C_16  and  O_17
REMARK    9  A    between atoms: O_17  and  C_18
REMARK   10  A    between atoms: C_20  and  O_21
REMARK                            x       y       z     vdW  Elec       q    Type
REMARK                         _______ _______ _______ _____ _____    ______ ____
ROOT
ATOM      1  C   LIG A   1      -6.703  -1.518 123.268  0.00  0.00    +0.134 A 
ATOM      2  C   LIG A   1      -7.886  -1.863 123.956  0.00  0.00    +0.101 A 
ATOM      3  C   LIG A   1      -7.923  -3.115 124.613  0.00  0.00    +0.138 A 
ATOM      4  C   LIG A   1      -6.807  -3.976 124.541  0.00  0.00    +0.092 A 
ATOM      5  C   LIG A   1      -5.656  -3.589 123.861  0.00  0.00    +0.124 A 
ATOM      6  C   LIG A   1      -5.597  -2.364 123.225  0.00  0.00    +0.091 A 
ENDROOT
BRANCH   1   7
ATOM      7  O   LIG A   1      -6.535  -0.339 122.580  0.00  0.00    -0.506 OA
ATOM      8  H   LIG A   1      -7.076   0.352 123.025  0.00  0.00    +0.292 HD
ENDBRANCH   1   7
BRANCH   2   9
ATOM      9  C   LIG A   1      -9.013  -0.858 123.965  0.00  0.00    +0.171 C 
ATOM     10  O   LIG A   1      -9.767  -0.856 122.980  0.00  0.00    -0.292 OA
BRANCH   9  11
ATOM     11  C   LIG A   1      -9.249   0.121 125.099  0.00  0.00    +0.084 C 
BRANCH  11  12
ATOM     12  C   LIG A   1      -9.693   1.488 124.545  0.00  0.00    +0.043 C 
BRANCH  12  13
ATOM     13  C   LIG A   1      -8.570   2.268 123.908  0.00  0.00    -0.047 A 
ATOM     14  C   LIG A   1      -8.662   2.709 122.583  0.00  0.00    +0.007 A 
ATOM     15  C   LIG A   1      -7.616   3.435 122.003  0.00  0.00    +0.046 A 
ATOM     16  C   LIG A   1      -6.459   3.711 122.732  0.00  0.00    +0.120 A 
ATOM     17  C   LIG A   1      -6.370   3.293 124.059  0.00  0.00    +0.046 A 
ATOM     18  C   LIG A   1      -7.416   2.571 124.641  0.00  0.00    +0.007 A 
BRANCH  16  19
ATOM     19  O   LIG A   1      -5.497   4.427 122.073  0.00  0.00    -0.495 OA
ATOM     20  C   LIG A   1      -5.318   4.073 120.704  0.00  0.00    +0.277 C 
ENDBRANCH  16  19
ENDBRANCH  12  13
ENDBRANCH  11  12
ENDBRANCH   9  11
ENDBRANCH   2   9
BRANCH   3  21
ATOM     21  O   LIG A   1      -9.068  -3.490 125.270  0.00  0.00    -0.494 OA
ATOM     22  C   LIG A   1      -9.028  -3.426 126.694  0.00  0.00    +0.277 C 
ENDBRANCH   3  21
BRANCH   5  23
ATOM     23  O   LIG A   1      -4.559  -4.395 123.789  0.00  0.00    -0.506 OA
ATOM     24  H   LIG A   1      -4.062  -4.348 124.621  0.00  0.00    +0.292 HD
ENDBRANCH   5  23
TORSDOF 8
ENDMDL
MODEL 7
REMARK VINA RESULT:      -6.5      8.367     10.998
REMARK  Name = NuBBE_1604
REMARK  10 active torsions:
REMARK  status: ('A' for Active; 'I' for Inactive)
REMARK    1  A    between atoms: O_1  and  C_2
REMARK    2  A    between atoms: C_3  and  C_4
REMARK    3  A    between atoms: C_4  and  C_5
REMARK    4  A    between atoms: C_5  and  C_6
REMARK    5  A    between atoms: C_6  and  C_7
REMARK    6  A    between atoms: C_10  and  O_11
REMARK    7  A    between atoms: O_11  and  C_12
REMARK    8  A    between atoms: C_16  and  O_17
REMARK    9  A    between atoms: O_17  and  C_18
REMARK   10  A    between atoms: C_20  and  O_21
REMARK                            x       y       z     vdW  Elec       q    Type
REMARK                         _______ _______ _______ _____ _____    ______ ____
ROOT
ATOM      1  C   LIG A   1      -7.488  -1.236 123.735  0.00  0.00    +0.134 A 
ATOM      2  C   LIG A   1      -7.342  -1.136 125.136  0.00  0.00    +0.101 A 
ATOM      3  C   LIG A   1      -8.201  -1.918 125.943  0.00  0.00    +0.138 A 
ATOM      4  C   LIG A   1      -9.177  -2.737 125.336  0.00  0.00    +0.092 A 
ATOM      5  C   LIG A   1      -9.277  -2.814 123.951  0.00  0.00    +0.124 A 
ATOM      6  C   LIG A   1      -8.437  -2.068 123.146  0.00  0.00    +0.091 A 
ENDROOT
BRANCH   1   7
ATOM      7  O   LIG A   1      -6.727  -0.526 122.836  0.00  0.00    -0.506 OA
ATOM      8  H   LIG A   1      -5.926  -1.059 122.629  0.00  0.00    +0.292 HD
ENDBRANCH   1   7
BRANCH   2   9
ATOM      9  C   LIG A   1      -6.260  -0.227 125.667  0.00  0.00    +0.171 C 
ATOM     10  O   LIG A   1      -5.091  -0.626 125.557  0.00  0.00    -0.292 OA
BRANCH   9  11
ATOM     11  C   LIG A   1      -6.541   1.117 126.311  0.00  0.00    +0.084 C 
BRANCH  11  12
ATOM     12  C   LIG A   1      -5.959   2.257 125.453  0.00  0.00    +0.043 C 
BRANCH  12  13
ATOM     13  C   LIG A   1      -6.790   2.571 124.234  0.00  0.00    -0.047 A 
ATOM     14  C   LIG A   1      -6.193   3.047 123.060  0.00  0.00    +0.007 A 
ATOM     15  C   LIG A   1      -6.973   3.332 121.935  0.00  0.00    +0.046 A 
ATOM     16  C   LIG A   1      -8.358   3.166 121.974  0.00  0.00    +0.120 A 
ATOM     17  C   LIG A   1      -8.956   2.673 123.133  0.00  0.00    +0.046 A 
ATOM     18  C   LIG A   1      -8.177   2.383 124.258  0.00  0.00    +0.007 A 
BRANCH  16  19
ATOM     19  O   LIG A   1      -9.027   3.473 120.820  0.00  0.00    -0.495 OA
ATOM     20  C   LIG A   1      -8.246   4.143 119.834  0.00  0.00    +0.277 C 
ENDBRANCH  16  19
ENDBRANCH  12  13
ENDBRANCH  11  12
ENDBRANCH   9  11
ENDBRANCH   2   9
BRANCH   3  21
ATOM     21  O   LIG A   1      -8.100  -1.825 127.308  0.00  0.00    -0.494 OA
ATOM     22  C   LIG A   1      -8.295  -3.034 128.040  0.00  0.00    +0.277 C 
ENDBRANCH   3  21
BRANCH   5  23
ATOM     23  O   LIG A   1     -10.201  -3.608 123.340  0.00  0.00    -0.506 OA
ATOM     24  H   LIG A   1     -11.031  -3.117 123.225  0.00  0.00    +0.292 HD
ENDBRANCH   5  23
TORSDOF 8
ENDMDL
MODEL 8
REMARK VINA RESULT:      -6.5      8.697     10.245
REMARK  Name = NuBBE_1604
REMARK  10 active torsions:
REMARK  status: ('A' for Active; 'I' for Inactive)
REMARK    1  A    between atoms: O_1  and  C_2
REMARK    2  A    between atoms: C_3  and  C_4
REMARK    3  A    between atoms: C_4  and  C_5
REMARK    4  A    between atoms: C_5  and  C_6
REMARK    5  A    between atoms: C_6  and  C_7
REMARK    6  A    between atoms: C_10  and  O_11
REMARK    7  A    between atoms: O_11  and  C_12
REMARK    8  A    between atoms: C_16  and  O_17
REMARK    9  A    between atoms: O_17  and  C_18
REMARK   10  A    between atoms: C_20  and  O_21
REMARK                            x       y       z     vdW  Elec       q    Type
REMARK                         _______ _______ _______ _____ _____    ______ ____
ROOT
ATOM      1  C   LIG A   1      -8.965  -0.116 124.687  0.00  0.00    +0.134 A 
ATOM      2  C   LIG A   1      -8.360  -1.192 124.001  0.00  0.00    +0.101 A 
ATOM      3  C   LIG A   1      -7.172  -0.928 123.281  0.00  0.00    +0.138 A 
ATOM      4  C   LIG A   1      -6.651   0.383 123.249  0.00  0.00    +0.092 A 
ATOM      5  C   LIG A   1      -7.274   1.411 123.950  0.00  0.00    +0.124 A 
ATOM      6  C   LIG A   1      -8.428   1.169 124.670  0.00  0.00    +0.091 A 
ENDROOT
BRANCH   1   7
ATOM      7  O   LIG A   1     -10.126  -0.231 125.416  0.00  0.00    -0.506 OA
ATOM      8  H   LIG A   1     -10.134   0.487 126.088  0.00  0.00    +0.292 HD
ENDBRANCH   1   7
BRANCH   2   9
ATOM      9  C   LIG A   1      -9.010  -2.550 124.113  0.00  0.00    +0.171 C 
ATOM     10  O   LIG A   1      -9.957  -2.781 123.346  0.00  0.00    -0.292 OA
BRANCH   9  11
ATOM     11  C   LIG A   1      -8.561  -3.612 125.100  0.00  0.00    +0.084 C 
BRANCH  11  12
ATOM     12  C   LIG A   1      -9.210  -3.374 126.477  0.00  0.00    +0.043 C 
BRANCH  12  13
ATOM     13  C   LIG A   1      -8.210  -3.065 127.563  0.00  0.00    -0.047 A 
ATOM     14  C   LIG A   1      -7.022  -2.383 127.274  0.00  0.00    +0.007 A 
ATOM     15  C   LIG A   1      -6.103  -2.099 128.289  0.00  0.00    +0.046 A 
ATOM     16  C   LIG A   1      -6.351  -2.509 129.600  0.00  0.00    +0.120 A 
ATOM     17  C   LIG A   1      -7.542  -3.168 129.898  0.00  0.00    +0.046 A 
ATOM     18  C   LIG A   1      -8.463  -3.449 128.885  0.00  0.00    +0.007 A 
BRANCH  16  19
ATOM     19  O   LIG A   1      -5.389  -2.180 130.517  0.00  0.00    -0.495 OA
ATOM     20  C   LIG A   1      -4.170  -1.694 129.961  0.00  0.00    +0.277 C 
ENDBRANCH  16  19
ENDBRANCH  12  13
ENDBRANCH  11  12
ENDBRANCH   9  11
ENDBRANCH   2   9
BRANCH   3  21
ATOM     21  O   LIG A   1      -6.574  -1.947 122.585  0.00  0.00    -0.494 OA
ATOM     22  C   LIG A   1      -5.476  -2.592 123.228  0.00  0.00    +0.277 C 
ENDBRANCH   3  21
BRANCH   5  23
ATOM     23  O   LIG A   1      -6.784   2.683 123.947  0.00  0.00    -0.506 OA
ATOM     24  H   LIG A   1      -7.106   3.160 124.729  0.00  0.00    +0.292 HD
ENDBRANCH   5  23
TORSDOF 8
ENDMDL
MODEL 9
REMARK VINA RESULT:      -6.5      3.354      4.670
REMARK  Name = NuBBE_1604
REMARK  10 active torsions:
REMARK  status: ('A' for Active; 'I' for Inactive)
REMARK    1  A    between atoms: O_1  and  C_2
REMARK    2  A    between atoms: C_3  and  C_4
REMARK    3  A    between atoms: C_4  and  C_5
REMARK    4  A    between atoms: C_5  and  C_6
REMARK    5  A    between atoms: C_6  and  C_7
REMARK    6  A    between atoms: C_10  and  O_11
REMARK    7  A    between atoms: O_11  and  C_12
REMARK    8  A    between atoms: C_16  and  O_17
REMARK    9  A    between atoms: O_17  and  C_18
REMARK   10  A    between atoms: C_20  and  O_21
REMARK                            x       y       z     vdW  Elec       q    Type
REMARK                         _______ _______ _______ _____ _____    ______ ____
ROOT
ATOM      1  C   LIG A   1     -12.201   7.037 130.741  0.00  0.00    +0.134 A 
ATOM      2  C   LIG A   1     -11.317   6.441 129.816  0.00  0.00    +0.101 A 
ATOM      3  C   LIG A   1     -10.986   7.178 128.656  0.00  0.00    +0.138 A 
ATOM      4  C   LIG A   1     -11.557   8.451 128.449  0.00  0.00    +0.092 A 
ATOM      5  C   LIG A   1     -12.414   9.006 129.394  0.00  0.00    +0.124 A 
ATOM      6  C   LIG A   1     -12.739   8.306 130.540  0.00  0.00    +0.091 A 
ENDROOT
BRANCH   1   7
ATOM      7  O   LIG A   1     -12.615   6.429 131.904  0.00  0.00    -0.506 OA
ATOM      8  H   LIG A   1     -11.829   6.015 132.326  0.00  0.00    +0.292 HD
ENDBRANCH   1   7
BRANCH   2   9
ATOM      9  C   LIG A   1     -10.769   5.074 130.149  0.00  0.00    +0.171 C 
ATOM     10  O   LIG A   1     -11.539   4.112 130.004  0.00  0.00    -0.292 OA
BRANCH   9  11
ATOM     11  C   LIG A   1      -9.353   4.840 130.640  0.00  0.00    +0.084 C 
BRANCH  11  12
ATOM     12  C   LIG A   1      -9.343   3.797 131.774  0.00  0.00    +0.043 C 
BRANCH  12  13
ATOM     13  C   LIG A   1      -8.918   2.423 131.318  0.00  0.00    -0.047 A 
ATOM     14  C   LIG A   1      -8.996   1.323 132.182  0.00  0.00    +0.007 A 
ATOM     15  C   LIG A   1      -8.602   0.053 131.748  0.00  0.00    +0.046 A 
ATOM     16  C   LIG A   1      -8.108  -0.130 130.456  0.00  0.00    +0.120 A 
ATOM     17  C   LIG A   1      -8.048   0.956 129.585  0.00  0.00    +0.046 A 
ATOM     18  C   LIG A   1      -8.445   2.226 130.016  0.00  0.00    +0.007 A 
BRANCH  16  19
ATOM     19  O   LIG A   1      -7.751  -1.412 130.132  0.00  0.00    -0.495 OA
ATOM     20  C   LIG A   1      -7.484  -2.260 131.245  0.00  0.00    +0.277 C 
ENDBRANCH  16  19
ENDBRANCH  12  13
ENDBRANCH  11  12
ENDBRANCH   9  11
ENDBRANCH   2   9
BRANCH   3  21
ATOM     21  O   LIG A   1     -10.148   6.615 127.726  0.00  0.00    -0.494 OA
ATOM     22  C   LIG A   1     -10.354   7.009 126.370  0.00  0.00    +0.277 C 
ENDBRANCH   3  21
BRANCH   5  23
ATOM     23  O   LIG A   1     -12.968  10.240 129.226  0.00  0.00    -0.506 OA
ATOM     24  H   LIG A   1     -12.276  10.882 128.999  0.00  0.00    +0.292 HD
ENDBRANCH   5  23
TORSDOF 8
ENDMDL
