MODEL 1
REMARK VINA RESULT:      -7.3      0.000      0.000
REMARK  Name = NuBBE_2049
REMARK  10 active torsions:
REMARK  status: ('A' for Active; 'I' for Inactive)
REMARK    1  A    between atoms: O_1  and  C_2
REMARK    2  A    between atoms: O_1  and  C_3
REMARK    3  A    between atoms: C_15  and  O_16
REMARK    4  A    between atoms: O_16  and  C_17
REMARK    5  A    between atoms: C_18  and  O_22
REMARK    6  A    between atoms: C_19  and  O_21
REMARK    7  A    between atoms: O_22  and  C_23
REMARK    8  A    between atoms: C_25  and  O_29
REMARK    9  A    between atoms: C_26  and  O_27
REMARK   10  A    between atoms: O_27  and  C_28
REMARK                            x       y       z     vdW  Elec       q    Type
REMARK                         _______ _______ _______ _____ _____    ______ ____
ROOT
ATOM      1  C   LIG A   1     -10.538   7.558 129.561  0.00  0.00    +0.208 A 
ATOM      2  C   LIG A   1      -9.564   6.957 130.389  0.00  0.00    +0.172 A 
ATOM      3  C   LIG A   1      -9.926   6.374 131.606  0.00  0.00    +0.042 A 
ATOM      4  C   LIG A   1      -8.937   5.564 132.396  0.00  0.00    +0.218 C 
ATOM      5  C   LIG A   1      -7.493   5.656 131.898  0.00  0.00    +0.106 C 
ATOM      6  C   LIG A   1      -7.316   6.904 131.046  0.00  0.00    +0.241 C 
ATOM      7  O   LIG A   1      -8.256   6.913 129.958  0.00  0.00    -0.487 OA
ATOM      8  C   LIG A   1      -6.783   5.681 133.209  0.00  0.00    +0.012 A 
ATOM      9  C   LIG A   1      -7.707   5.867 134.237  0.00  0.00    +0.170 A 
ATOM     10  O   LIG A   1      -8.989   5.996 133.775  0.00  0.00    -0.479 OA
ATOM     11  C   LIG A   1      -7.338   5.972 135.581  0.00  0.00    +0.208 A 
ATOM     12  C   LIG A   1      -5.969   5.923 135.874  0.00  0.00    +0.207 A 
ATOM     13  C   LIG A   1      -5.044   5.740 134.814  0.00  0.00    +0.163 A 
ATOM     14  C   LIG A   1      -5.441   5.592 133.482  0.00  0.00    +0.057 A 
ATOM     15  C   LIG A   1     -11.243   6.495 132.059  0.00  0.00    +0.060 A 
ATOM     16  C   LIG A   1     -12.200   7.142 131.282  0.00  0.00    +0.163 A 
ATOM     17  C   LIG A   1     -11.873   7.667 130.020  0.00  0.00    +0.207 A 
ENDROOT
BRANCH   1  18
ATOM     18  O   LIG A   1     -10.056   8.069 128.375  0.00  0.00    -0.488 OA
ATOM     19  C   LIG A   1     -10.429   7.395 127.178  0.00  0.00    +0.277 C 
ENDBRANCH   1  18
BRANCH  11  20
ATOM     20  O   LIG A   1      -8.243   6.189 136.583  0.00  0.00    -0.488 OA
ATOM     21  C   LIG A   1      -8.335   7.520 137.079  0.00  0.00    +0.277 C 
ENDBRANCH  11  20
BRANCH  13  22
ATOM     22  O   LIG A   1      -3.697   5.748 135.063  0.00  0.00    -0.503 OA
ATOM     23  H   LIG A   1      -3.353   4.947 134.618  0.00  0.00    +0.292 HD
ENDBRANCH  13  22
BRANCH  12  24
ATOM     24  O   LIG A   1      -5.361   6.032 137.106  0.00  0.00    -0.488 OA
ATOM     25  C   LIG A   1      -5.344   4.885 137.948  0.00  0.00    +0.277 C 
ENDBRANCH  12  24
BRANCH  17  26
ATOM     26  O   LIG A   1     -12.784   8.248 129.179  0.00  0.00    -0.488 OA
ATOM     27  C   LIG A   1     -13.016   9.644 129.303  0.00  0.00    +0.277 C 
ENDBRANCH  17  26
BRANCH  16  28
ATOM     28  O   LIG A   1     -13.475   7.217 131.776  0.00  0.00    -0.503 OA
ATOM     29  H   LIG A   1     -13.930   6.374 131.620  0.00  0.00    +0.292 HD
ENDBRANCH  16  28
TORSDOF 6
ENDMDL
MODEL 2
REMARK VINA RESULT:      -7.2      1.717      7.906
REMARK  Name = NuBBE_2049
REMARK  10 active torsions:
REMARK  status: ('A' for Active; 'I' for Inactive)
REMARK    1  A    between atoms: O_1  and  C_2
REMARK    2  A    between atoms: O_1  and  C_3
REMARK    3  A    between atoms: C_15  and  O_16
REMARK    4  A    between atoms: O_16  and  C_17
REMARK    5  A    between atoms: C_18  and  O_22
REMARK    6  A    between atoms: C_19  and  O_21
REMARK    7  A    between atoms: O_22  and  C_23
REMARK    8  A    between atoms: C_25  and  O_29
REMARK    9  A    between atoms: C_26  and  O_27
REMARK   10  A    between atoms: O_27  and  C_28
REMARK                            x       y       z     vdW  Elec       q    Type
REMARK                         _______ _______ _______ _____ _____    ______ ____
ROOT
ATOM      1  C   LIG A   1      -4.798   5.933 133.159  0.00  0.00    +0.208 A 
ATOM      2  C   LIG A   1      -6.145   5.840 132.742  0.00  0.00    +0.172 A 
ATOM      3  C   LIG A   1      -6.486   5.992 131.396  0.00  0.00    +0.042 A 
ATOM      4  C   LIG A   1      -7.879   5.701 130.916  0.00  0.00    +0.218 C 
ATOM      5  C   LIG A   1      -8.907   5.489 132.030  0.00  0.00    +0.106 C 
ATOM      6  C   LIG A   1      -8.398   6.097 133.329  0.00  0.00    +0.241 C 
ATOM      7  O   LIG A   1      -7.114   5.550 133.677  0.00  0.00    -0.487 OA
ATOM      8  C   LIG A   1     -10.075   6.188 131.422  0.00  0.00    +0.012 A 
ATOM      9  C   LIG A   1      -9.658   6.905 130.301  0.00  0.00    +0.170 A 
ATOM     10  O   LIG A   1      -8.313   6.796 130.077  0.00  0.00    -0.479 OA
ATOM     11  C   LIG A   1     -10.524   7.695 129.540  0.00  0.00    +0.208 A 
ATOM     12  C   LIG A   1     -11.855   7.782 129.968  0.00  0.00    +0.207 A 
ATOM     13  C   LIG A   1     -12.258   7.050 131.115  0.00  0.00    +0.163 A 
ATOM     14  C   LIG A   1     -11.384   6.231 131.833  0.00  0.00    +0.057 A 
ATOM     15  C   LIG A   1      -5.498   6.359 130.477  0.00  0.00    +0.060 A 
ATOM     16  C   LIG A   1      -4.177   6.519 130.886  0.00  0.00    +0.163 A 
ATOM     17  C   LIG A   1      -3.801   6.294 132.221  0.00  0.00    +0.207 A 
ENDROOT
BRANCH   1  18
ATOM     18  O   LIG A   1      -4.593   5.732 134.508  0.00  0.00    -0.488 OA
ATOM     19  C   LIG A   1      -4.277   4.410 134.927  0.00  0.00    +0.277 C 
ENDBRANCH   1  18
BRANCH  11  20
ATOM     20  O   LIG A   1     -10.105   8.426 128.462  0.00  0.00    -0.488 OA
ATOM     21  C   LIG A   1     -10.630   8.047 127.194  0.00  0.00    +0.277 C 
ENDBRANCH  11  20
BRANCH  13  22
ATOM     22  O   LIG A   1     -13.537   7.161 131.592  0.00  0.00    -0.503 OA
ATOM     23  H   LIG A   1     -13.830   6.241 131.750  0.00  0.00    +0.292 HD
ENDBRANCH  13  22
BRANCH  12  24
ATOM     24  O   LIG A   1     -12.881   8.511 129.408  0.00  0.00    -0.488 OA
ATOM     25  C   LIG A   1     -12.947   9.904 129.694  0.00  0.00    +0.277 C 
ENDBRANCH  12  24
BRANCH  17  26
ATOM     26  O   LIG A   1      -2.508   6.361 132.669  0.00  0.00    -0.488 OA
ATOM     27  C   LIG A   1      -1.676   5.224 132.489  0.00  0.00    +0.277 C 
ENDBRANCH  17  26
BRANCH  16  28
ATOM     28  O   LIG A   1      -3.255   6.867 129.935  0.00  0.00    -0.503 OA
ATOM     29  H   LIG A   1      -3.242   7.832 129.837  0.00  0.00    +0.292 HD
ENDBRANCH  16  28
TORSDOF 6
ENDMDL
MODEL 3
REMARK VINA RESULT:      -6.8      2.959      7.865
REMARK  Name = NuBBE_2049
REMARK  10 active torsions:
REMARK  status: ('A' for Active; 'I' for Inactive)
REMARK    1  A    between atoms: O_1  and  C_2
REMARK    2  A    between atoms: O_1  and  C_3
REMARK    3  A    between atoms: C_15  and  O_16
REMARK    4  A    between atoms: O_16  and  C_17
REMARK    5  A    between atoms: C_18  and  O_22
REMARK    6  A    between atoms: C_19  and  O_21
REMARK    7  A    between atoms: O_22  and  C_23
REMARK    8  A    between atoms: C_25  and  O_29
REMARK    9  A    between atoms: C_26  and  O_27
REMARK   10  A    between atoms: O_27  and  C_28
REMARK                            x       y       z     vdW  Elec       q    Type
REMARK                         _______ _______ _______ _____ _____    ______ ____
ROOT
ATOM      1  C   LIG A   1      -4.872   4.814 130.442  0.00  0.00    +0.208 A 
ATOM      2  C   LIG A   1      -6.262   4.957 130.652  0.00  0.00    +0.172 A 
ATOM      3  C   LIG A   1      -7.171   4.653 129.635  0.00  0.00    +0.042 A 
ATOM      4  C   LIG A   1      -8.648   4.613 129.909  0.00  0.00    +0.218 C 
ATOM      5  C   LIG A   1      -9.060   5.168 131.274  0.00  0.00    +0.106 C 
ATOM      6  C   LIG A   1      -7.961   6.066 131.823  0.00  0.00    +0.241 C 
ATOM      7  O   LIG A   1      -6.712   5.357 131.892  0.00  0.00    -0.487 OA
ATOM      8  C   LIG A   1     -10.314   5.873 130.882  0.00  0.00    +0.012 A 
ATOM      9  C   LIG A   1     -10.402   5.932 129.492  0.00  0.00    +0.170 A 
ATOM     10  O   LIG A   1      -9.326   5.358 128.872  0.00  0.00    -0.479 OA
ATOM     11  C   LIG A   1     -11.452   6.568 128.823  0.00  0.00    +0.208 A 
ATOM     12  C   LIG A   1     -12.423   7.198 129.611  0.00  0.00    +0.207 A 
ATOM     13  C   LIG A   1     -12.313   7.134 131.024  0.00  0.00    +0.163 A 
ATOM     14  C   LIG A   1     -11.277   6.453 131.670  0.00  0.00    +0.057 A 
ATOM     15  C   LIG A   1      -6.691   4.321 128.365  0.00  0.00    +0.060 A 
ATOM     16  C   LIG A   1      -5.321   4.240 128.126  0.00  0.00    +0.163 A 
ATOM     17  C   LIG A   1      -4.393   4.466 129.156  0.00  0.00    +0.207 A 
ENDROOT
BRANCH   1  18
ATOM     18  O   LIG A   1      -4.086   5.116 131.534  0.00  0.00    -0.488 OA
ATOM     19  C   LIG A   1      -3.664   6.467 131.678  0.00  0.00    +0.277 C 
ENDBRANCH   1  18
BRANCH  11  20
ATOM     20  O   LIG A   1     -11.518   6.654 127.460  0.00  0.00    -0.488 OA
ATOM     21  C   LIG A   1     -10.813   7.733 126.856  0.00  0.00    +0.277 C 
ENDBRANCH  11  20
BRANCH  13  22
ATOM     22  O   LIG A   1     -13.214   7.791 131.820  0.00  0.00    -0.503 OA
ATOM     23  H   LIG A   1     -14.045   7.804 131.303  0.00  0.00    +0.292 HD
ENDBRANCH  13  22
BRANCH  12  24
ATOM     24  O   LIG A   1     -13.527   7.908 129.191  0.00  0.00    -0.488 OA
ATOM     25  C   LIG A   1     -13.340   9.258 128.782  0.00  0.00    +0.277 C 
ENDBRANCH  12  24
BRANCH  17  26
ATOM     26  O   LIG A   1      -3.039   4.329 129.003  0.00  0.00    -0.488 OA
ATOM     27  C   LIG A   1      -2.316   5.411 128.434  0.00  0.00    +0.277 C 
ENDBRANCH  17  26
BRANCH  16  28
ATOM     28  O   LIG A   1      -4.916   3.899 126.864  0.00  0.00    -0.503 OA
ATOM     29  H   LIG A   1      -5.275   3.026 126.635  0.00  0.00    +0.292 HD
ENDBRANCH  16  28
TORSDOF 6
ENDMDL
MODEL 4
REMARK VINA RESULT:      -6.6      2.338      2.761
REMARK  Name = NuBBE_2049
REMARK  10 active torsions:
REMARK  status: ('A' for Active; 'I' for Inactive)
REMARK    1  A    between atoms: O_1  and  C_2
REMARK    2  A    between atoms: O_1  and  C_3
REMARK    3  A    between atoms: C_15  and  O_16
REMARK    4  A    between atoms: O_16  and  C_17
REMARK    5  A    between atoms: C_18  and  O_22
REMARK    6  A    between atoms: C_19  and  O_21
REMARK    7  A    between atoms: O_22  and  C_23
REMARK    8  A    between atoms: C_25  and  O_29
REMARK    9  A    between atoms: C_26  and  O_27
REMARK   10  A    between atoms: O_27  and  C_28
REMARK                            x       y       z     vdW  Elec       q    Type
REMARK                         _______ _______ _______ _____ _____    ______ ____
ROOT
ATOM      1  C   LIG A   1     -11.259   7.157 128.770  0.00  0.00    +0.208 A 
ATOM      2  C   LIG A   1     -10.406   6.124 129.218  0.00  0.00    +0.172 A 
ATOM      3  C   LIG A   1     -10.640   5.487 130.440  0.00  0.00    +0.042 A 
ATOM      4  C   LIG A   1      -9.863   4.263 130.832  0.00  0.00    +0.218 C 
ATOM      5  C   LIG A   1      -8.665   3.951 129.931  0.00  0.00    +0.106 C 
ATOM      6  C   LIG A   1      -8.255   5.198 129.162  0.00  0.00    +0.241 C 
ATOM      7  O   LIG A   1      -9.365   5.720 128.412  0.00  0.00    -0.487 OA
ATOM      8  C   LIG A   1      -7.692   3.498 130.965  0.00  0.00    +0.012 A 
ATOM      9  C   LIG A   1      -8.187   3.796 132.234  0.00  0.00    +0.170 A 
ATOM     10  O   LIG A   1      -9.399   4.430 132.191  0.00  0.00    -0.479 OA
ATOM     11  C   LIG A   1      -7.479   3.526 133.409  0.00  0.00    +0.208 A 
ATOM     12  C   LIG A   1      -6.202   2.966 133.272  0.00  0.00    +0.207 A 
ATOM     13  C   LIG A   1      -5.713   2.677 131.972  0.00  0.00    +0.163 A 
ATOM     14  C   LIG A   1      -6.458   2.915 130.814  0.00  0.00    +0.057 A 
ATOM     15  C   LIG A   1     -11.656   5.961 131.275  0.00  0.00    +0.060 A 
ATOM     16  C   LIG A   1     -12.463   7.022 130.874  0.00  0.00    +0.163 A 
ATOM     17  C   LIG A   1     -12.293   7.625 129.616  0.00  0.00    +0.207 A 
ENDROOT
BRANCH   1  18
ATOM     18  O   LIG A   1     -10.937   7.681 127.536  0.00  0.00    -0.488 OA
ATOM     19  C   LIG A   1     -11.725   7.263 126.427  0.00  0.00    +0.277 C 
ENDBRANCH   1  18
BRANCH  11  20
ATOM     20  O   LIG A   1      -7.952   3.851 134.650  0.00  0.00    -0.488 OA
ATOM     21  C   LIG A   1      -7.611   5.142 135.143  0.00  0.00    +0.277 C 
ENDBRANCH  11  20
BRANCH  13  22
ATOM     22  O   LIG A   1      -4.446   2.185 131.804  0.00  0.00    -0.503 OA
ATOM     23  H   LIG A   1      -3.892   2.693 132.430  0.00  0.00    +0.292 HD
ENDBRANCH  13  22
BRANCH  12  24
ATOM     24  O   LIG A   1      -5.308   2.639 134.268  0.00  0.00    -0.488 OA
ATOM     25  C   LIG A   1      -5.495   1.409 134.959  0.00  0.00    +0.277 C 
ENDBRANCH  12  24
BRANCH  17  26
ATOM     26  O   LIG A   1     -13.101   8.621 129.135  0.00  0.00    -0.488 OA
ATOM     27  C   LIG A   1     -12.904   9.939 129.625  0.00  0.00    +0.277 C 
ENDBRANCH  17  26
BRANCH  16  28
ATOM     28  O   LIG A   1     -13.448   7.431 131.733  0.00  0.00    -0.503 OA
ATOM     29  H   LIG A   1     -14.175   6.788 131.719  0.00  0.00    +0.292 HD
ENDBRANCH  16  28
TORSDOF 6
ENDMDL
MODEL 5
REMARK VINA RESULT:      -6.4      6.337      9.186
REMARK  Name = NuBBE_2049
REMARK  10 active torsions:
REMARK  status: ('A' for Active; 'I' for Inactive)
REMARK    1  A    between atoms: O_1  and  C_2
REMARK    2  A    between atoms: O_1  and  C_3
REMARK    3  A    between atoms: C_15  and  O_16
REMARK    4  A    between atoms: O_16  and  C_17
REMARK    5  A    between atoms: C_18  and  O_22
REMARK    6  A    between atoms: C_19  and  O_21
REMARK    7  A    between atoms: O_22  and  C_23
REMARK    8  A    between atoms: C_25  and  O_29
REMARK    9  A    between atoms: C_26  and  O_27
REMARK   10  A    between atoms: O_27  and  C_28
REMARK                            x       y       z     vdW  Elec       q    Type
REMARK                         _______ _______ _______ _____ _____    ______ ____
ROOT
ATOM      1  C   LIG A   1      -8.375   3.948 131.358  0.00  0.00    +0.208 A 
ATOM      2  C   LIG A   1      -8.078   2.923 130.432  0.00  0.00    +0.172 A 
ATOM      3  C   LIG A   1      -8.200   3.147 129.058  0.00  0.00    +0.042 A 
ATOM      4  C   LIG A   1      -7.702   2.136 128.065  0.00  0.00    +0.218 C 
ATOM      5  C   LIG A   1      -7.308   0.786 128.671  0.00  0.00    +0.106 C 
ATOM      6  C   LIG A   1      -7.964   0.618 130.034  0.00  0.00    +0.241 C 
ATOM      7  O   LIG A   1      -7.620   1.712 130.901  0.00  0.00    -0.487 OA
ATOM      8  C   LIG A   1      -7.824  -0.120 127.605  0.00  0.00    +0.012 A 
ATOM      9  C   LIG A   1      -8.620   0.606 126.720  0.00  0.00    +0.170 A 
ATOM     10  O   LIG A   1      -8.730   1.924 127.071  0.00  0.00    -0.479 OA
ATOM     11  C   LIG A   1      -9.278   0.021 125.635  0.00  0.00    +0.208 A 
ATOM     12  C   LIG A   1      -9.144  -1.364 125.477  0.00  0.00    +0.207 A 
ATOM     13  C   LIG A   1      -8.336  -2.087 126.392  0.00  0.00    +0.163 A 
ATOM     14  C   LIG A   1      -7.652  -1.472 127.444  0.00  0.00    +0.057 A 
ATOM     15  C   LIG A   1      -8.736   4.357 128.606  0.00  0.00    +0.060 A 
ATOM     16  C   LIG A   1      -9.095   5.352 129.512  0.00  0.00    +0.163 A 
ATOM     17  C   LIG A   1      -8.907   5.176 130.893  0.00  0.00    +0.207 A 
ENDROOT
BRANCH   1  18
ATOM     18  O   LIG A   1      -8.184   3.609 132.680  0.00  0.00    -0.488 OA
ATOM     19  C   LIG A   1      -9.288   3.035 133.370  0.00  0.00    +0.277 C 
ENDBRANCH   1  18
BRANCH  11  20
ATOM     20  O   LIG A   1     -10.086   0.729 124.788  0.00  0.00    -0.488 OA
ATOM     21  C   LIG A   1      -9.446   1.390 123.702  0.00  0.00    +0.277 C 
ENDBRANCH  11  20
BRANCH  13  22
ATOM     22  O   LIG A   1      -8.235  -3.450 126.299  0.00  0.00    -0.503 OA
ATOM     23  H   LIG A   1      -7.391  -3.610 125.831  0.00  0.00    +0.292 HD
ENDBRANCH  13  22
BRANCH  12  24
ATOM     24  O   LIG A   1      -9.713  -2.168 124.512  0.00  0.00    -0.488 OA
ATOM     25  C   LIG A   1      -9.046  -2.286 123.261  0.00  0.00    +0.277 C 
ENDBRANCH  12  24
BRANCH  17  26
ATOM     26  O   LIG A   1      -9.170   6.143 131.826  0.00  0.00    -0.488 OA
ATOM     27  C   LIG A   1     -10.501   6.267 132.306  0.00  0.00    +0.277 C 
ENDBRANCH  17  26
BRANCH  16  28
ATOM     28  O   LIG A   1      -9.603   6.519 129.005  0.00  0.00    -0.503 OA
ATOM     29  H   LIG A   1      -8.952   6.920 128.407  0.00  0.00    +0.292 HD
ENDBRANCH  16  28
TORSDOF 6
ENDMDL
MODEL 6
REMARK VINA RESULT:      -6.4      6.882      9.865
REMARK  Name = NuBBE_2049
REMARK  10 active torsions:
REMARK  status: ('A' for Active; 'I' for Inactive)
REMARK    1  A    between atoms: O_1  and  C_2
REMARK    2  A    between atoms: O_1  and  C_3
REMARK    3  A    between atoms: C_15  and  O_16
REMARK    4  A    between atoms: O_16  and  C_17
REMARK    5  A    between atoms: C_18  and  O_22
REMARK    6  A    between atoms: C_19  and  O_21
REMARK    7  A    between atoms: O_22  and  C_23
REMARK    8  A    between atoms: C_25  and  O_29
REMARK    9  A    between atoms: C_26  and  O_27
REMARK   10  A    between atoms: O_27  and  C_28
REMARK                            x       y       z     vdW  Elec       q    Type
REMARK                         _______ _______ _______ _____ _____    ______ ____
ROOT
ATOM      1  C   LIG A   1      -8.166   1.599 132.338  0.00  0.00    +0.208 A 
ATOM      2  C   LIG A   1      -7.812   1.088 131.069  0.00  0.00    +0.172 A 
ATOM      3  C   LIG A   1      -8.276   1.698 129.901  0.00  0.00    +0.042 A 
ATOM      4  C   LIG A   1      -7.749   1.285 128.555  0.00  0.00    +0.218 C 
ATOM      5  C   LIG A   1      -6.896   0.015 128.566  0.00  0.00    +0.106 C 
ATOM      6  C   LIG A   1      -7.181  -0.793 129.823  0.00  0.00    +0.241 C 
ATOM      7  O   LIG A   1      -6.962   0.005 130.999  0.00  0.00    -0.487 OA
ATOM      8  C   LIG A   1      -7.368  -0.607 127.296  0.00  0.00    +0.012 A 
ATOM      9  C   LIG A   1      -8.495   0.071 126.834  0.00  0.00    +0.170 A 
ATOM     10  O   LIG A   1      -8.871   1.092 127.664  0.00  0.00    -0.479 OA
ATOM     11  C   LIG A   1      -9.189  -0.305 125.680  0.00  0.00    +0.208 A 
ATOM     12  C   LIG A   1      -8.731  -1.441 125.001  0.00  0.00    +0.207 A 
ATOM     13  C   LIG A   1      -7.587  -2.122 125.490  0.00  0.00    +0.163 A 
ATOM     14  C   LIG A   1      -6.883  -1.700 126.620  0.00  0.00    +0.057 A 
ATOM     15  C   LIG A   1      -9.194   2.747 129.994  0.00  0.00    +0.060 A 
ATOM     16  C   LIG A   1      -9.603   3.219 131.239  0.00  0.00    +0.163 A 
ATOM     17  C   LIG A   1      -9.088   2.671 132.425  0.00  0.00    +0.207 A 
ENDROOT
BRANCH   1  18
ATOM     18  O   LIG A   1      -7.617   0.927 133.409  0.00  0.00    -0.488 OA
ATOM     19  C   LIG A   1      -6.365   1.393 133.896  0.00  0.00    +0.277 C 
ENDBRANCH   1  18
BRANCH  11  20
ATOM     20  O   LIG A   1     -10.314   0.341 125.249  0.00  0.00    -0.488 OA
ATOM     21  C   LIG A   1     -10.118   1.450 124.378  0.00  0.00    +0.277 C 
ENDBRANCH  11  20
BRANCH  13  22
ATOM     22  O   LIG A   1      -7.152  -3.269 124.881  0.00  0.00    -0.503 OA
ATOM     23  H   LIG A   1      -6.709  -3.780 125.588  0.00  0.00    +0.292 HD
ENDBRANCH  13  22
BRANCH  12  24
ATOM     24  O   LIG A   1      -9.258  -2.021 123.867  0.00  0.00    -0.488 OA
ATOM     25  C   LIG A   1      -8.871  -1.495 122.603  0.00  0.00    +0.277 C 
ENDBRANCH  12  24
BRANCH  17  26
ATOM     26  O   LIG A   1      -9.393   3.140 133.675  0.00  0.00    -0.488 OA
ATOM     27  C   LIG A   1      -8.627   4.218 134.192  0.00  0.00    +0.277 C 
ENDBRANCH  17  26
BRANCH  16  28
ATOM     28  O   LIG A   1     -10.495   4.258 131.263  0.00  0.00    -0.503 OA
ATOM     29  H   LIG A   1     -10.852   4.396 130.371  0.00  0.00    +0.292 HD
ENDBRANCH  16  28
TORSDOF 6
ENDMDL
MODEL 7
REMARK VINA RESULT:      -6.4      6.528      7.249
REMARK  Name = NuBBE_2049
REMARK  10 active torsions:
REMARK  status: ('A' for Active; 'I' for Inactive)
REMARK    1  A    between atoms: O_1  and  C_2
REMARK    2  A    between atoms: O_1  and  C_3
REMARK    3  A    between atoms: C_15  and  O_16
REMARK    4  A    between atoms: O_16  and  C_17
REMARK    5  A    between atoms: C_18  and  O_22
REMARK    6  A    between atoms: C_19  and  O_21
REMARK    7  A    between atoms: O_22  and  C_23
REMARK    8  A    between atoms: C_25  and  O_29
REMARK    9  A    between atoms: C_26  and  O_27
REMARK   10  A    between atoms: O_27  and  C_28
REMARK                            x       y       z     vdW  Elec       q    Type
REMARK                         _______ _______ _______ _____ _____    ______ ____
ROOT
ATOM      1  C   LIG A   1      -8.930   3.471 130.030  0.00  0.00    +0.208 A 
ATOM      2  C   LIG A   1      -8.722   2.091 130.249  0.00  0.00    +0.172 A 
ATOM      3  C   LIG A   1      -9.000   1.518 131.493  0.00  0.00    +0.042 A 
ATOM      4  C   LIG A   1      -8.970   0.027 131.677  0.00  0.00    +0.218 C 
ATOM      5  C   LIG A   1      -8.376  -0.751 130.501  0.00  0.00    +0.106 C 
ATOM      6  C   LIG A   1      -7.520   0.173 129.646  0.00  0.00    +0.241 C 
ATOM      7  O   LIG A   1      -8.284   1.308 129.204  0.00  0.00    -0.487 OA
ATOM      8  C   LIG A   1      -7.622  -1.794 131.253  0.00  0.00    +0.012 A 
ATOM      9  C   LIG A   1      -7.580  -1.457 132.605  0.00  0.00    +0.170 A 
ATOM     10  O   LIG A   1      -8.211  -0.272 132.871  0.00  0.00    -0.479 OA
ATOM     11  C   LIG A   1      -6.908  -2.225 133.559  0.00  0.00    +0.208 A 
ATOM     12  C   LIG A   1      -6.223  -3.358 133.102  0.00  0.00    +0.207 A 
ATOM     13  C   LIG A   1      -6.271  -3.681 131.721  0.00  0.00    +0.163 A 
ATOM     14  C   LIG A   1      -6.988  -2.922 130.793  0.00  0.00    +0.057 A 
ATOM     15  C   LIG A   1      -9.372   2.342 132.559  0.00  0.00    +0.060 A 
ATOM     16  C   LIG A   1      -9.517   3.714 132.374  0.00  0.00    +0.163 A 
ATOM     17  C   LIG A   1      -9.318   4.298 131.112  0.00  0.00    +0.207 A 
ENDROOT
BRANCH   1  18
ATOM     18  O   LIG A   1      -8.647   3.905 128.752  0.00  0.00    -0.488 OA
ATOM     19  C   LIG A   1      -7.300   4.264 128.471  0.00  0.00    +0.277 C 
ENDBRANCH   1  18
BRANCH  11  20
ATOM     20  O   LIG A   1      -6.839  -1.873 134.879  0.00  0.00    -0.488 OA
ATOM     21  C   LIG A   1      -5.750  -1.040 135.260  0.00  0.00    +0.277 C 
ENDBRANCH  11  20
BRANCH  13  22
ATOM     22  O   LIG A   1      -5.563  -4.748 131.235  0.00  0.00    -0.503 OA
ATOM     23  H   LIG A   1      -6.213  -5.476 131.172  0.00  0.00    +0.292 HD
ENDBRANCH  13  22
BRANCH  12  24
ATOM     24  O   LIG A   1      -5.471  -4.249 133.836  0.00  0.00    -0.488 OA
ATOM     25  C   LIG A   1      -6.153  -5.279 134.541  0.00  0.00    +0.277 C 
ENDBRANCH  12  24
BRANCH  17  26
ATOM     26  O   LIG A   1      -9.518   5.628 130.849  0.00  0.00    -0.488 OA
ATOM     27  C   LIG A   1      -8.471   6.537 131.159  0.00  0.00    +0.277 C 
ENDBRANCH  17  26
BRANCH  16  28
ATOM     28  O   LIG A   1      -9.896   4.464 133.455  0.00  0.00    -0.503 OA
ATOM     29  H   LIG A   1      -9.163   5.044 133.717  0.00  0.00    +0.292 HD
ENDBRANCH  16  28
TORSDOF 6
ENDMDL
MODEL 8
REMARK VINA RESULT:      -6.3      7.529      9.326
REMARK  Name = NuBBE_2049
REMARK  10 active torsions:
REMARK  status: ('A' for Active; 'I' for Inactive)
REMARK    1  A    between atoms: O_1  and  C_2
REMARK    2  A    between atoms: O_1  and  C_3
REMARK    3  A    between atoms: C_15  and  O_16
REMARK    4  A    between atoms: O_16  and  C_17
REMARK    5  A    between atoms: C_18  and  O_22
REMARK    6  A    between atoms: C_19  and  O_21
REMARK    7  A    between atoms: O_22  and  C_23
REMARK    8  A    between atoms: C_25  and  O_29
REMARK    9  A    between atoms: C_26  and  O_27
REMARK   10  A    between atoms: O_27  and  C_28
REMARK                            x       y       z     vdW  Elec       q    Type
REMARK                         _______ _______ _______ _____ _____    ______ ____
ROOT
ATOM      1  C   LIG A   1      -8.960  -0.149 124.497  0.00  0.00    +0.208 A 
ATOM      2  C   LIG A   1      -7.978   0.827 124.777  0.00  0.00    +0.172 A 
ATOM      3  C   LIG A   1      -6.759   0.465 125.358  0.00  0.00    +0.042 A 
ATOM      4  C   LIG A   1      -5.638   1.458 125.478  0.00  0.00    +0.218 C 
ATOM      5  C   LIG A   1      -6.027   2.903 125.160  0.00  0.00    +0.106 C 
ATOM      6  C   LIG A   1      -7.535   3.073 125.277  0.00  0.00    +0.241 C 
ATOM      7  O   LIG A   1      -8.218   2.137 124.425  0.00  0.00    -0.487 OA
ATOM      8  C   LIG A   1      -5.230   3.607 126.206  0.00  0.00    +0.012 A 
ATOM      9  C   LIG A   1      -4.729   2.677 127.115  0.00  0.00    +0.170 A 
ATOM     10  O   LIG A   1      -5.113   1.396 126.824  0.00  0.00    -0.479 OA
ATOM     11  C   LIG A   1      -3.972   3.038 128.233  0.00  0.00    +0.208 A 
ATOM     12  C   LIG A   1      -3.757   4.406 128.444  0.00  0.00    +0.207 A 
ATOM     13  C   LIG A   1      -4.281   5.338 127.511  0.00  0.00    +0.163 A 
ATOM     14  C   LIG A   1      -4.997   4.949 126.376  0.00  0.00    +0.057 A 
ATOM     15  C   LIG A   1      -6.565  -0.855 125.775  0.00  0.00    +0.060 A 
ATOM     16  C   LIG A   1      -7.552  -1.814 125.565  0.00  0.00    +0.163 A 
ATOM     17  C   LIG A   1      -8.752  -1.486 124.911  0.00  0.00    +0.207 A 
ENDROOT
BRANCH   1  18
ATOM     18  O   LIG A   1     -10.102   0.334 123.895  0.00  0.00    -0.488 OA
ATOM     19  C   LIG A   1     -10.138   0.332 122.472  0.00  0.00    +0.277 C 
ENDBRANCH   1  18
BRANCH  11  20
ATOM     20  O   LIG A   1      -3.512   2.127 129.143  0.00  0.00    -0.488 OA
ATOM     21  C   LIG A   1      -4.426   1.720 130.155  0.00  0.00    +0.277 C 
ENDBRANCH  11  20
BRANCH  13  22
ATOM     22  O   LIG A   1      -4.138   6.684 127.723  0.00  0.00    -0.503 OA
ATOM     23  H   LIG A   1      -4.637   7.109 126.997  0.00  0.00    +0.292 HD
ENDBRANCH  13  22
BRANCH  12  24
ATOM     24  O   LIG A   1      -3.074   5.008 129.479  0.00  0.00    -0.488 OA
ATOM     25  C   LIG A   1      -3.775   5.249 130.694  0.00  0.00    +0.277 C 
ENDBRANCH  12  24
BRANCH  17  26
ATOM     26  O   LIG A   1      -9.728  -2.399 124.609  0.00  0.00    -0.488 OA
ATOM     27  C   LIG A   1      -9.515  -3.266 123.504  0.00  0.00    +0.277 C 
ENDBRANCH  17  26
BRANCH  16  28
ATOM     28  O   LIG A   1      -7.296  -3.092 125.985  0.00  0.00    -0.503 OA
ATOM     29  H   LIG A   1      -6.339  -3.208 126.097  0.00  0.00    +0.292 HD
ENDBRANCH  16  28
TORSDOF 6
ENDMDL
MODEL 9
REMARK VINA RESULT:      -6.3      8.921     10.049
REMARK  Name = NuBBE_2049
REMARK  10 active torsions:
REMARK  status: ('A' for Active; 'I' for Inactive)
REMARK    1  A    between atoms: O_1  and  C_2
REMARK    2  A    between atoms: O_1  and  C_3
REMARK    3  A    between atoms: C_15  and  O_16
REMARK    4  A    between atoms: O_16  and  C_17
REMARK    5  A    between atoms: C_18  and  O_22
REMARK    6  A    between atoms: C_19  and  O_21
REMARK    7  A    between atoms: O_22  and  C_23
REMARK    8  A    between atoms: C_25  and  O_29
REMARK    9  A    between atoms: C_26  and  O_27
REMARK   10  A    between atoms: O_27  and  C_28
REMARK                            x       y       z     vdW  Elec       q    Type
REMARK                         _______ _______ _______ _____ _____    ______ ____
ROOT
ATOM      1  C   LIG A   1      -8.997  -1.208 124.900  0.00  0.00    +0.208 A 
ATOM      2  C   LIG A   1      -8.611  -1.644 126.187  0.00  0.00    +0.172 A 
ATOM      3  C   LIG A   1      -7.896  -0.799 127.040  0.00  0.00    +0.042 A 
ATOM      4  C   LIG A   1      -7.653  -1.178 128.474  0.00  0.00    +0.218 C 
ATOM      5  C   LIG A   1      -8.015  -2.624 128.822  0.00  0.00    +0.106 C 
ATOM      6  C   LIG A   1      -8.068  -3.466 127.556  0.00  0.00    +0.241 C 
ATOM      7  O   LIG A   1      -8.989  -2.900 126.608  0.00  0.00    -0.487 OA
ATOM      8  C   LIG A   1      -6.888  -2.942 129.745  0.00  0.00    +0.012 A 
ATOM      9  C   LIG A   1      -5.926  -1.934 129.673  0.00  0.00    +0.170 A 
ATOM     10  O   LIG A   1      -6.257  -0.954 128.777  0.00  0.00    -0.479 OA
ATOM     11  C   LIG A   1      -4.731  -1.971 130.397  0.00  0.00    +0.208 A 
ATOM     12  C   LIG A   1      -4.500  -3.100 131.192  0.00  0.00    +0.207 A 
ATOM     13  C   LIG A   1      -5.487  -4.118 131.247  0.00  0.00    +0.163 A 
ATOM     14  C   LIG A   1      -6.694  -4.038 130.549  0.00  0.00    +0.057 A 
ATOM     15  C   LIG A   1      -7.459   0.442 126.567  0.00  0.00    +0.060 A 
ATOM     16  C   LIG A   1      -7.777   0.857 125.276  0.00  0.00    +0.163 A 
ATOM     17  C   LIG A   1      -8.560   0.054 124.431  0.00  0.00    +0.207 A 
ENDROOT
BRANCH   1  18
ATOM     18  O   LIG A   1      -9.724  -2.125 124.171  0.00  0.00    -0.488 OA
ATOM     19  C   LIG A   1      -9.013  -2.913 123.223  0.00  0.00    +0.277 C 
ENDBRANCH   1  18
BRANCH  11  20
ATOM     20  O   LIG A   1      -3.775  -0.999 130.297  0.00  0.00    -0.488 OA
ATOM     21  C   LIG A   1      -3.993   0.189 131.050  0.00  0.00    +0.277 C 
ENDBRANCH  11  20
BRANCH  13  22
ATOM     22  O   LIG A   1      -5.262  -5.261 131.969  0.00  0.00    -0.503 OA
ATOM     23  H   LIG A   1      -4.319  -5.218 132.224  0.00  0.00    +0.292 HD
ENDBRANCH  13  22
BRANCH  12  24
ATOM     24  O   LIG A   1      -3.396  -3.380 131.968  0.00  0.00    -0.488 OA
ATOM     25  C   LIG A   1      -3.322  -2.794 133.263  0.00  0.00    +0.277 C 
ENDBRANCH  12  24
BRANCH  17  26
ATOM     26  O   LIG A   1      -8.968   0.439 123.181  0.00  0.00    -0.488 OA
ATOM     27  C   LIG A   1     -10.155   1.212 123.071  0.00  0.00    +0.277 C 
ENDBRANCH  17  26
BRANCH  16  28
ATOM     28  O   LIG A   1      -7.329   2.088 124.877  0.00  0.00    -0.503 OA
ATOM     29  H   LIG A   1      -8.059   2.579 124.467  0.00  0.00    +0.292 HD
ENDBRANCH  16  28
TORSDOF 6
ENDMDL
