MODEL 1
REMARK VINA RESULT:      -5.4      0.000      0.000
REMARK  Name = NuBBE_1385
REMARK  7 active torsions:
REMARK  status: ('A' for Active; 'I' for Inactive)
REMARK    1  A    between atoms: C_1  and  C_2
REMARK    2  A    between atoms: C_2  and  C_3
REMARK    3  A    between atoms: C_4  and  C_5
REMARK    4  A    between atoms: C_5  and  C_6
REMARK    5  A    between atoms: C_6  and  C_7
REMARK    6  A    between atoms: C_7  and  C_8
REMARK    7  A    between atoms: C_9  and  C_10
REMARK                            x       y       z     vdW  Elec       q    Type
REMARK                         _______ _______ _______ _____ _____    ______ ____
ROOT
ATOM      1  C   LIG A   1     -12.698   8.466 129.814  0.00  0.00    +0.034 C 
ENDROOT
BRANCH   1   2
ATOM      2  C   LIG A   1     -12.433   7.915 128.422  0.00  0.00    -0.069 C 
ATOM      3  C   LIG A   1     -13.538   7.098 127.809  0.00  0.00    +0.039 C 
ATOM      4  C   LIG A   1     -11.252   8.160 127.823  0.00  0.00    +0.041 C 
BRANCH   4   5
ATOM      5  C   LIG A   1     -10.885   7.717 126.461  0.00  0.00    +0.251 C 
ATOM      6  O   LIG A   1     -10.370   6.621 126.269  0.00  0.00    -0.296 OA
ENDBRANCH   4   5
ENDBRANCH   1   2
BRANCH   1   7
ATOM      7  C   LIG A   1     -13.053   7.411 130.874  0.00  0.00    +0.031 C 
BRANCH   7  11
ATOM      8  C   LIG A   1      -9.871   5.809 132.518  0.00  0.00    +0.038 C 
ATOM      9  C   LIG A   1     -10.995   6.036 131.541  0.00  0.00    -0.080 C 
ATOM     10  C   LIG A   1     -11.008   5.074 130.386  0.00  0.00    +0.038 C 
ATOM     11  C   LIG A   1     -11.883   7.030 131.741  0.00  0.00    -0.028 C 
ENDBRANCH   7  11
ENDBRANCH   1   7
TORSDOF 4
ENDMDL
MODEL 2
REMARK VINA RESULT:      -5.1     10.318     11.712
REMARK  Name = NuBBE_1385
REMARK  7 active torsions:
REMARK  status: ('A' for Active; 'I' for Inactive)
REMARK    1  A    between atoms: C_1  and  C_2
REMARK    2  A    between atoms: C_2  and  C_3
REMARK    3  A    between atoms: C_4  and  C_5
REMARK    4  A    between atoms: C_5  and  C_6
REMARK    5  A    between atoms: C_6  and  C_7
REMARK    6  A    between atoms: C_7  and  C_8
REMARK    7  A    between atoms: C_9  and  C_10
REMARK                            x       y       z     vdW  Elec       q    Type
REMARK                         _______ _______ _______ _____ _____    ______ ____
ROOT
ATOM      1  C   LIG A   1      -8.082  -1.971 125.538  0.00  0.00    +0.034 C 
ENDROOT
BRANCH   1   2
ATOM      2  C   LIG A   1      -8.870  -1.853 124.243  0.00  0.00    -0.069 C 
ATOM      3  C   LIG A   1      -9.355  -3.145 123.641  0.00  0.00    +0.039 C 
ATOM      4  C   LIG A   1      -9.079  -0.640 123.699  0.00  0.00    +0.041 C 
BRANCH   4   5
ATOM      5  C   LIG A   1      -9.859  -0.386 122.469  0.00  0.00    +0.251 C 
ATOM      6  O   LIG A   1     -10.869   0.310 122.491  0.00  0.00    -0.296 OA
ENDBRANCH   4   5
ENDBRANCH   1   2
BRANCH   1   7
ATOM      7  C   LIG A   1      -6.604  -1.559 125.440  0.00  0.00    +0.031 C 
BRANCH   7  11
ATOM      8  C   LIG A   1      -4.389  -4.187 123.549  0.00  0.00    +0.038 C 
ATOM      9  C   LIG A   1      -5.311  -3.018 123.776  0.00  0.00    -0.080 C 
ATOM     10  C   LIG A   1      -5.720  -2.304 122.517  0.00  0.00    +0.038 C 
ATOM     11  C   LIG A   1      -5.704  -2.690 125.023  0.00  0.00    -0.028 C 
ENDBRANCH   7  11
ENDBRANCH   1   7
TORSDOF 4
ENDMDL
MODEL 3
REMARK VINA RESULT:      -4.9      1.996      4.247
REMARK  Name = NuBBE_1385
REMARK  7 active torsions:
REMARK  status: ('A' for Active; 'I' for Inactive)
REMARK    1  A    between atoms: C_1  and  C_2
REMARK    2  A    between atoms: C_2  and  C_3
REMARK    3  A    between atoms: C_4  and  C_5
REMARK    4  A    between atoms: C_5  and  C_6
REMARK    5  A    between atoms: C_6  and  C_7
REMARK    6  A    between atoms: C_7  and  C_8
REMARK    7  A    between atoms: C_9  and  C_10
REMARK                            x       y       z     vdW  Elec       q    Type
REMARK                         _______ _______ _______ _____ _____    ______ ____
ROOT
ATOM      1  C   LIG A   1     -12.042   6.542 131.428  0.00  0.00    +0.034 C 
ENDROOT
BRANCH   1   2
ATOM      2  C   LIG A   1     -10.678   6.005 131.024  0.00  0.00    -0.069 C 
ATOM      3  C   LIG A   1     -10.645   4.589 130.515  0.00  0.00    +0.039 C 
ATOM      4  C   LIG A   1      -9.590   6.789 131.150  0.00  0.00    +0.041 C 
BRANCH   4   5
ATOM      5  C   LIG A   1      -8.218   6.403 130.759  0.00  0.00    +0.251 C 
ATOM      6  O   LIG A   1      -7.313   7.231 130.721  0.00  0.00    -0.296 OA
ENDBRANCH   4   5
ENDBRANCH   1   2
BRANCH   1   7
ATOM      7  C   LIG A   1     -12.574   7.689 130.555  0.00  0.00    +0.031 C 
BRANCH   7  11
ATOM      8  C   LIG A   1     -12.564   7.036 126.686  0.00  0.00    +0.038 C 
ATOM      9  C   LIG A   1     -12.136   7.558 128.033  0.00  0.00    -0.080 C 
ATOM     10  C   LIG A   1     -10.885   8.392 127.999  0.00  0.00    +0.038 C 
ATOM     11  C   LIG A   1     -12.853   7.269 129.137  0.00  0.00    -0.028 C 
ENDBRANCH   7  11
ENDBRANCH   1   7
TORSDOF 4
ENDMDL
MODEL 4
REMARK VINA RESULT:      -4.8     10.385     12.273
REMARK  Name = NuBBE_1385
REMARK  7 active torsions:
REMARK  status: ('A' for Active; 'I' for Inactive)
REMARK    1  A    between atoms: C_1  and  C_2
REMARK    2  A    between atoms: C_2  and  C_3
REMARK    3  A    between atoms: C_4  and  C_5
REMARK    4  A    between atoms: C_5  and  C_6
REMARK    5  A    between atoms: C_6  and  C_7
REMARK    6  A    between atoms: C_7  and  C_8
REMARK    7  A    between atoms: C_9  and  C_10
REMARK                            x       y       z     vdW  Elec       q    Type
REMARK                         _______ _______ _______ _____ _____    ______ ____
ROOT
ATOM      1  C   LIG A   1      -9.495  -3.207 125.676  0.00  0.00    +0.034 C 
ENDROOT
BRANCH   1   2
ATOM      2  C   LIG A   1      -8.722  -2.790 126.916  0.00  0.00    -0.069 C 
ATOM      3  C   LIG A   1      -8.033  -1.453 126.851  0.00  0.00    +0.039 C 
ATOM      4  C   LIG A   1      -8.673  -3.614 127.980  0.00  0.00    +0.041 C 
BRANCH   4   5
ATOM      5  C   LIG A   1      -7.990  -3.312 129.256  0.00  0.00    +0.251 C 
ATOM      6  O   LIG A   1      -6.903  -3.811 129.526  0.00  0.00    -0.296 OA
ENDBRANCH   4   5
ENDBRANCH   1   2
BRANCH   1   7
ATOM      7  C   LIG A   1      -8.736  -3.044 124.350  0.00  0.00    +0.031 C 
BRANCH   7  11
ATOM      8  C   LIG A   1      -4.925  -3.899 123.978  0.00  0.00    +0.038 C 
ATOM      9  C   LIG A   1      -6.229  -3.158 123.831  0.00  0.00    -0.080 C 
ATOM     10  C   LIG A   1      -6.125  -1.883 123.041  0.00  0.00    +0.038 C 
ATOM     11  C   LIG A   1      -7.357  -3.646 124.382  0.00  0.00    -0.028 C 
ENDBRANCH   7  11
ENDBRANCH   1   7
TORSDOF 4
ENDMDL
MODEL 5
REMARK VINA RESULT:      -4.8      9.527     11.241
REMARK  Name = NuBBE_1385
REMARK  7 active torsions:
REMARK  status: ('A' for Active; 'I' for Inactive)
REMARK    1  A    between atoms: C_1  and  C_2
REMARK    2  A    between atoms: C_2  and  C_3
REMARK    3  A    between atoms: C_4  and  C_5
REMARK    4  A    between atoms: C_5  and  C_6
REMARK    5  A    between atoms: C_6  and  C_7
REMARK    6  A    between atoms: C_7  and  C_8
REMARK    7  A    between atoms: C_9  and  C_10
REMARK                            x       y       z     vdW  Elec       q    Type
REMARK                         _______ _______ _______ _____ _____    ______ ____
ROOT
ATOM      1  C   LIG A   1      -9.375  -2.991 125.649  0.00  0.00    +0.034 C 
ENDROOT
BRANCH   1   2
ATOM      2  C   LIG A   1      -8.772  -1.728 126.243  0.00  0.00    -0.069 C 
ATOM      3  C   LIG A   1      -7.868  -1.918 127.431  0.00  0.00    +0.039 C 
ATOM      4  C   LIG A   1      -9.077  -0.530 125.709  0.00  0.00    +0.041 C 
BRANCH   4   5
ATOM      5  C   LIG A   1      -8.531   0.766 126.166  0.00  0.00    +0.251 C 
ATOM      6  O   LIG A   1      -9.174   1.497 126.912  0.00  0.00    -0.296 OA
ENDBRANCH   4   5
ENDBRANCH   1   2
BRANCH   1   7
ATOM      7  C   LIG A   1      -8.824  -3.388 124.270  0.00  0.00    +0.031 C 
BRANCH   7  11
ATOM      8  C   LIG A   1      -4.917  -3.512 123.927  0.00  0.00    +0.038 C 
ATOM      9  C   LIG A   1      -6.333  -3.015 123.794  0.00  0.00    -0.080 C 
ATOM     10  C   LIG A   1      -6.458  -1.702 123.071  0.00  0.00    +0.038 C 
ATOM     11  C   LIG A   1      -7.358  -3.729 124.298  0.00  0.00    -0.028 C 
ENDBRANCH   7  11
ENDBRANCH   1   7
TORSDOF 4
ENDMDL
MODEL 6
REMARK VINA RESULT:      -4.8      1.636      4.266
REMARK  Name = NuBBE_1385
REMARK  7 active torsions:
REMARK  status: ('A' for Active; 'I' for Inactive)
REMARK    1  A    between atoms: C_1  and  C_2
REMARK    2  A    between atoms: C_2  and  C_3
REMARK    3  A    between atoms: C_4  and  C_5
REMARK    4  A    between atoms: C_5  and  C_6
REMARK    5  A    between atoms: C_6  and  C_7
REMARK    6  A    between atoms: C_7  and  C_8
REMARK    7  A    between atoms: C_9  and  C_10
REMARK                            x       y       z     vdW  Elec       q    Type
REMARK                         _______ _______ _______ _____ _____    ______ ____
ROOT
ATOM      1  C   LIG A   1     -11.995   6.525 131.428  0.00  0.00    +0.034 C 
ENDROOT
BRANCH   1   2
ATOM      2  C   LIG A   1     -10.697   5.873 130.981  0.00  0.00    -0.069 C 
ATOM      3  C   LIG A   1      -9.474   6.750 130.993  0.00  0.00    +0.039 C 
ATOM      4  C   LIG A   1     -10.699   4.584 130.591  0.00  0.00    +0.041 C 
BRANCH   4   5
ATOM      5  C   LIG A   1      -9.503   3.823 130.172  0.00  0.00    +0.251 C 
ATOM      6  O   LIG A   1      -9.145   3.801 128.999  0.00  0.00    -0.296 OA
ENDBRANCH   4   5
ENDBRANCH   1   2
BRANCH   1   7
ATOM      7  C   LIG A   1     -12.476   7.688 130.546  0.00  0.00    +0.031 C 
BRANCH   7  11
ATOM      8  C   LIG A   1     -12.594   7.032 126.680  0.00  0.00    +0.038 C 
ATOM      9  C   LIG A   1     -12.123   7.558 128.011  0.00  0.00    -0.080 C 
ATOM     10  C   LIG A   1     -10.881   8.401 127.934  0.00  0.00    +0.038 C 
ATOM     11  C   LIG A   1     -12.800   7.265 129.139  0.00  0.00    -0.028 C 
ENDBRANCH   7  11
ENDBRANCH   1   7
TORSDOF 4
ENDMDL
MODEL 7
REMARK VINA RESULT:      -4.6      2.529      3.184
REMARK  Name = NuBBE_1385
REMARK  7 active torsions:
REMARK  status: ('A' for Active; 'I' for Inactive)
REMARK    1  A    between atoms: C_1  and  C_2
REMARK    2  A    between atoms: C_2  and  C_3
REMARK    3  A    between atoms: C_4  and  C_5
REMARK    4  A    between atoms: C_5  and  C_6
REMARK    5  A    between atoms: C_6  and  C_7
REMARK    6  A    between atoms: C_7  and  C_8
REMARK    7  A    between atoms: C_9  and  C_10
REMARK                            x       y       z     vdW  Elec       q    Type
REMARK                         _______ _______ _______ _____ _____    ______ ____
ROOT
ATOM      1  C   LIG A   1     -11.011   6.966 128.680  0.00  0.00    +0.034 C 
ENDROOT
BRANCH   1   2
ATOM      2  C   LIG A   1     -12.298   7.774 128.708  0.00  0.00    -0.069 C 
ATOM      3  C   LIG A   1     -13.564   7.020 128.401  0.00  0.00    +0.039 C 
ATOM      4  C   LIG A   1     -12.251   9.092 128.980  0.00  0.00    +0.041 C 
BRANCH   4   5
ATOM      5  C   LIG A   1     -13.428   9.981 129.076  0.00  0.00    +0.251 C 
ATOM      6  O   LIG A   1     -13.517  10.821 129.965  0.00  0.00    -0.296 OA
ENDBRANCH   4   5
ENDBRANCH   1   2
BRANCH   1   7
ATOM      7  C   LIG A   1      -9.882   7.509 129.571  0.00  0.00    +0.031 C 
BRANCH   7  11
ATOM      8  C   LIG A   1      -8.748   5.781 132.906  0.00  0.00    +0.038 C 
ATOM      9  C   LIG A   1      -8.659   6.499 131.584  0.00  0.00    -0.080 C 
ATOM     10  C   LIG A   1      -7.256   6.830 131.159  0.00  0.00    +0.038 C 
ATOM     11  C   LIG A   1      -9.776   6.792 130.890  0.00  0.00    -0.028 C 
ENDBRANCH   7  11
ENDBRANCH   1   7
TORSDOF 4
ENDMDL
MODEL 8
REMARK VINA RESULT:      -4.5     10.807     12.277
REMARK  Name = NuBBE_1385
REMARK  7 active torsions:
REMARK  status: ('A' for Active; 'I' for Inactive)
REMARK    1  A    between atoms: C_1  and  C_2
REMARK    2  A    between atoms: C_2  and  C_3
REMARK    3  A    between atoms: C_4  and  C_5
REMARK    4  A    between atoms: C_5  and  C_6
REMARK    5  A    between atoms: C_6  and  C_7
REMARK    6  A    between atoms: C_7  and  C_8
REMARK    7  A    between atoms: C_9  and  C_10
REMARK                            x       y       z     vdW  Elec       q    Type
REMARK                         _______ _______ _______ _____ _____    ______ ____
ROOT
ATOM      1  C   LIG A   1      -6.283  -1.464 124.887  0.00  0.00    +0.034 C 
ENDROOT
BRANCH   1   2
ATOM      2  C   LIG A   1      -5.738  -2.496 123.913  0.00  0.00    -0.069 C 
ATOM      3  C   LIG A   1      -5.954  -2.211 122.451  0.00  0.00    +0.039 C 
ATOM      4  C   LIG A   1      -5.119  -3.595 124.385  0.00  0.00    +0.041 C 
BRANCH   4   5
ATOM      5  C   LIG A   1      -4.513  -4.652 123.548  0.00  0.00    +0.251 C 
ATOM      6  O   LIG A   1      -3.310  -4.887 123.597  0.00  0.00    -0.296 OA
ENDBRANCH   4   5
ENDBRANCH   1   2
BRANCH   1   7
ATOM      7  C   LIG A   1      -7.814  -1.441 125.021  0.00  0.00    +0.031 C 
BRANCH   7  11
ATOM      8  C   LIG A   1      -8.984  -4.036 127.721  0.00  0.00    +0.038 C 
ATOM      9  C   LIG A   1      -8.386  -2.788 127.125  0.00  0.00    -0.080 C 
ATOM     10  C   LIG A   1      -7.857  -1.815 128.142  0.00  0.00    +0.038 C 
ATOM     11  C   LIG A   1      -8.355  -2.616 125.789  0.00  0.00    -0.028 C 
ENDBRANCH   7  11
ENDBRANCH   1   7
TORSDOF 4
ENDMDL
MODEL 9
REMARK VINA RESULT:      -4.4     10.530     11.477
REMARK  Name = NuBBE_1385
REMARK  7 active torsions:
REMARK  status: ('A' for Active; 'I' for Inactive)
REMARK    1  A    between atoms: C_1  and  C_2
REMARK    2  A    between atoms: C_2  and  C_3
REMARK    3  A    between atoms: C_4  and  C_5
REMARK    4  A    between atoms: C_5  and  C_6
REMARK    5  A    between atoms: C_6  and  C_7
REMARK    6  A    between atoms: C_7  and  C_8
REMARK    7  A    between atoms: C_9  and  C_10
REMARK                            x       y       z     vdW  Elec       q    Type
REMARK                         _______ _______ _______ _____ _____    ______ ____
ROOT
ATOM      1  C   LIG A   1      -5.460  -2.024 126.192  0.00  0.00    +0.034 C 
ENDROOT
BRANCH   1   2
ATOM      2  C   LIG A   1      -5.786  -2.289 124.731  0.00  0.00    -0.069 C 
ATOM      3  C   LIG A   1      -5.238  -3.564 124.148  0.00  0.00    +0.039 C 
ATOM      4  C   LIG A   1      -6.515  -1.393 124.038  0.00  0.00    +0.041 C 
BRANCH   4   5
ATOM      5  C   LIG A   1      -6.932  -1.549 122.628  0.00  0.00    +0.251 C 
ATOM      6  O   LIG A   1      -7.985  -2.107 122.338  0.00  0.00    -0.296 OA
ENDBRANCH   4   5
ENDBRANCH   1   2
BRANCH   1   7
ATOM      7  C   LIG A   1      -6.620  -1.457 127.025  0.00  0.00    +0.031 C 
BRANCH   7  11
ATOM      8  C   LIG A   1      -9.245  -4.176 128.078  0.00  0.00    +0.038 C 
ATOM      9  C   LIG A   1      -8.568  -3.106 127.262  0.00  0.00    -0.080 C 
ATOM     10  C   LIG A   1      -9.268  -2.782 125.972  0.00  0.00    +0.038 C 
ATOM     11  C   LIG A   1      -7.435  -2.525 127.703  0.00  0.00    -0.028 C 
ENDBRANCH   7  11
ENDBRANCH   1   7
TORSDOF 4
ENDMDL
