MODEL 1
REMARK VINA RESULT:      -9.0      0.000      0.000
REMARK  Name = NuBBE_684
REMARK  9 active torsions:
REMARK  status: ('A' for Active; 'I' for Inactive)
REMARK    1  A    between atoms: C_3  and  C_4
REMARK    2  A    between atoms: C_9  and  C_10
REMARK    3  A    between atoms: C_11  and  C_12
REMARK    4  A    between atoms: C_12  and  C_14
REMARK    5  A    between atoms: C_12  and  C_16
REMARK    6  A    between atoms: C_14  and  C_15
REMARK    7  A    between atoms: C_23  and  O_24
REMARK    8  A    between atoms: C_27  and  C_35
REMARK    9  A    between atoms: C_29  and  C_34
REMARK                            x       y       z     vdW  Elec       q    Type
REMARK                         _______ _______ _______ _____ _____    ______ ____
ROOT
ATOM      1  O   LIG A   1      -8.043  -1.541 133.100  0.00  0.00    -0.288 OA
ATOM      2  C   LIG A   1      -7.769  -0.972 132.047  0.00  0.00    +0.207 C 
ATOM      3  C   LIG A   1      -7.670   0.563 131.932  0.00  0.00    +0.141 C 
ATOM      4  C   LIG A   1      -6.170   0.924 131.848  0.00  0.00    +0.051 C 
ATOM      5  C   LIG A   1      -8.523   0.898 130.705  0.00  0.00    +0.081 C 
ATOM      6  C   LIG A   1      -7.807   0.361 129.491  0.00  0.00    +0.003 C 
ATOM      7  C   LIG A   1      -7.462   1.008 128.369  0.00  0.00    +0.200 C 
ATOM      8  O   LIG A   1      -6.840   0.417 127.291  0.00  0.00    -0.463 OA
ATOM      9  C   LIG A   1      -6.682  -0.964 127.278  0.00  0.00    +0.128 C 
ATOM     10  C   LIG A   1      -6.965  -1.727 128.351  0.00  0.00    +0.056 C 
ATOM     11  C   LIG A   1      -7.421  -1.079 129.585  0.00  0.00    +0.007 C 
ATOM     12  C   LIG A   1      -7.479  -1.735 130.771  0.00  0.00    +0.094 C 
ATOM     13 CL   LIG A   1      -7.119  -3.415 130.976  0.00  0.00    -0.079 Cl
ATOM     14  O   LIG A   1      -8.231   1.328 132.996  0.00  0.00    -0.333 OA
ATOM     15  C   LIG A   1      -8.772   2.540 132.460  0.00  0.00    +0.188 C 
ATOM     16  C   LIG A   1      -9.118   2.284 130.998  0.00  0.00    +0.168 C 
ATOM     17  C   LIG A   1      -7.796   3.702 132.706  0.00  0.00    +0.086 C 
ATOM     18  C   LIG A   1      -8.241   4.873 131.845  0.00  0.00    +0.181 C 
ATOM     19  O   LIG A   1      -8.163   4.467 130.460  0.00  0.00    -0.461 OA
ATOM     20  C   LIG A   1      -8.870   3.411 130.034  0.00  0.00    +0.316 C 
ATOM     21  O   LIG A   1      -9.288   3.373 128.876  0.00  0.00    -0.250 OA
ATOM     22  C   LIG A   1      -7.350   6.103 131.968  0.00  0.00    +0.052 C 
ATOM     23  C   LIG A   1      -7.668   4.056 134.191  0.00  0.00    +0.016 C 
ENDROOT
BRANCH   9  24
ATOM     24  C   LIG A   1      -6.162  -1.499 126.037  0.00  0.00    +0.042 C 
ATOM     25  C   LIG A   1      -6.791  -2.426 125.294  0.00  0.00    -0.020 C 
BRANCH  25  26
ATOM     26  C   LIG A   1      -6.278  -2.941 123.974  0.00  0.00    +0.008 C 
ATOM     27  C   LIG A   1      -6.526  -1.888 122.889  0.00  0.00    +0.012 C 
BRANCH  26  28
ATOM     28  C   LIG A   1      -4.779  -3.284 124.054  0.00  0.00    +0.004 C 
ATOM     29  C   LIG A   1      -4.457  -4.704 123.603  0.00  0.00    +0.004 C 
ENDBRANCH  26  28
ENDBRANCH  25  26
ENDBRANCH   9  24
BRANCH  15  30
ATOM     30  O   LIG A   1      -9.980   2.774 133.167  0.00  0.00    -0.363 OA
ATOM     31  H   LIG A   1      -9.966   2.115 133.886  0.00  0.00    +0.213 HD
ENDBRANCH  15  30
TORSDOF 4
ENDMDL
MODEL 2
REMARK VINA RESULT:      -8.4      3.032      7.555
REMARK  Name = NuBBE_684
REMARK  9 active torsions:
REMARK  status: ('A' for Active; 'I' for Inactive)
REMARK    1  A    between atoms: C_3  and  C_4
REMARK    2  A    between atoms: C_9  and  C_10
REMARK    3  A    between atoms: C_11  and  C_12
REMARK    4  A    between atoms: C_12  and  C_14
REMARK    5  A    between atoms: C_12  and  C_16
REMARK    6  A    between atoms: C_14  and  C_15
REMARK    7  A    between atoms: C_23  and  O_24
REMARK    8  A    between atoms: C_27  and  C_35
REMARK    9  A    between atoms: C_29  and  C_34
REMARK                            x       y       z     vdW  Elec       q    Type
REMARK                         _______ _______ _______ _____ _____    ______ ____
ROOT
ATOM      1  O   LIG A   1      -6.719   1.209 134.111  0.00  0.00    -0.288 OA
ATOM      2  C   LIG A   1      -7.323   1.523 133.089  0.00  0.00    +0.207 C 
ATOM      3  C   LIG A   1      -7.548   0.542 131.920  0.00  0.00    +0.141 C 
ATOM      4  C   LIG A   1      -9.027   0.098 131.969  0.00  0.00    +0.051 C 
ATOM      5  C   LIG A   1      -7.113   1.333 130.683  0.00  0.00    +0.081 C 
ATOM      6  C   LIG A   1      -8.116   2.439 130.472  0.00  0.00    +0.003 C 
ATOM      7  C   LIG A   1      -8.812   2.737 129.367  0.00  0.00    +0.200 C 
ATOM      8  O   LIG A   1      -9.683   3.799 129.259  0.00  0.00    -0.463 OA
ATOM      9  C   LIG A   1      -9.750   4.723 130.296  0.00  0.00    +0.128 C 
ATOM     10  C   LIG A   1      -9.119   4.528 131.470  0.00  0.00    +0.056 C 
ATOM     11  C   LIG A   1      -8.366   3.288 131.676  0.00  0.00    +0.007 C 
ATOM     12  C   LIG A   1      -7.923   2.901 132.899  0.00  0.00    +0.094 C 
ATOM     13 CL   LIG A   1      -8.101   3.838 134.342  0.00  0.00    -0.079 Cl
ATOM     14  O   LIG A   1      -6.751  -0.640 131.907  0.00  0.00    -0.333 OA
ATOM     15  C   LIG A   1      -6.468  -0.992 130.549  0.00  0.00    +0.188 C 
ATOM     16  C   LIG A   1      -6.546   0.282 129.716  0.00  0.00    +0.168 C 
ATOM     17  C   LIG A   1      -7.401  -2.127 130.097  0.00  0.00    +0.086 C 
ATOM     18  C   LIG A   1      -7.301  -2.236 128.584  0.00  0.00    +0.181 C 
ATOM     19  O   LIG A   1      -7.753  -0.988 128.013  0.00  0.00    -0.461 OA
ATOM     20  C   LIG A   1      -7.135   0.156 128.338  0.00  0.00    +0.316 C 
ATOM     21  O   LIG A   1      -7.071   1.078 127.523  0.00  0.00    -0.250 OA
ATOM     22  C   LIG A   1      -8.193  -3.315 127.983  0.00  0.00    +0.052 C 
ATOM     23  C   LIG A   1      -7.113  -3.447 130.820  0.00  0.00    +0.016 C 
ENDROOT
BRANCH   9  24
ATOM     24  C   LIG A   1     -10.574   5.881 130.019  0.00  0.00    +0.042 C 
ATOM     25  C   LIG A   1     -10.123   7.002 129.430  0.00  0.00    -0.020 C 
BRANCH  25  26
ATOM     26  C   LIG A   1     -10.993   8.184 129.089  0.00  0.00    +0.008 C 
ATOM     27  C   LIG A   1     -11.000   8.386 127.570  0.00  0.00    +0.012 C 
BRANCH  26  28
ATOM     28  C   LIG A   1     -12.430   7.988 129.609  0.00  0.00    +0.004 C 
ATOM     29  C   LIG A   1     -13.423   7.607 128.517  0.00  0.00    +0.004 C 
ENDBRANCH  26  28
ENDBRANCH  25  26
ENDBRANCH   9  24
BRANCH  15  30
ATOM     30  O   LIG A   1      -5.124  -1.447 130.537  0.00  0.00    -0.363 OA
ATOM     31  H   LIG A   1      -5.116  -2.151 129.862  0.00  0.00    +0.213 HD
ENDBRANCH  15  30
TORSDOF 4
ENDMDL
MODEL 3
REMARK VINA RESULT:      -8.4      3.940      6.454
REMARK  Name = NuBBE_684
REMARK  9 active torsions:
REMARK  status: ('A' for Active; 'I' for Inactive)
REMARK    1  A    between atoms: C_3  and  C_4
REMARK    2  A    between atoms: C_9  and  C_10
REMARK    3  A    between atoms: C_11  and  C_12
REMARK    4  A    between atoms: C_12  and  C_14
REMARK    5  A    between atoms: C_12  and  C_16
REMARK    6  A    between atoms: C_14  and  C_15
REMARK    7  A    between atoms: C_23  and  O_24
REMARK    8  A    between atoms: C_27  and  C_35
REMARK    9  A    between atoms: C_29  and  C_34
REMARK                            x       y       z     vdW  Elec       q    Type
REMARK                         _______ _______ _______ _____ _____    ______ ____
ROOT
ATOM      1  O   LIG A   1      -8.587  -3.634 125.200  0.00  0.00    -0.288 OA
ATOM      2  C   LIG A   1      -8.038  -2.558 125.420  0.00  0.00    +0.207 C 
ATOM      3  C   LIG A   1      -7.239  -2.280 126.710  0.00  0.00    +0.141 C 
ATOM      4  C   LIG A   1      -5.739  -2.315 126.341  0.00  0.00    +0.051 C 
ATOM      5  C   LIG A   1      -7.789  -0.939 127.204  0.00  0.00    +0.081 C 
ATOM      6  C   LIG A   1      -7.350   0.123 126.228  0.00  0.00    +0.003 C 
ATOM      7  C   LIG A   1      -6.699   1.268 126.475  0.00  0.00    +0.200 C 
ATOM      8  O   LIG A   1      -6.374   2.200 125.513  0.00  0.00    -0.463 OA
ATOM      9  C   LIG A   1      -6.869   2.039 124.224  0.00  0.00    +0.128 C 
ATOM     10  C   LIG A   1      -7.516   0.922 123.840  0.00  0.00    +0.056 C 
ATOM     11  C   LIG A   1      -7.674  -0.175 124.801  0.00  0.00    +0.007 C 
ATOM     12  C   LIG A   1      -8.078  -1.415 124.427  0.00  0.00    +0.094 C 
ATOM     13 CL   LIG A   1      -8.541  -1.847 122.817  0.00  0.00    -0.079 Cl
ATOM     14  O   LIG A   1      -7.429  -3.184 127.796  0.00  0.00    -0.333 OA
ATOM     15  C   LIG A   1      -7.328  -2.459 129.025  0.00  0.00    +0.188 C 
ATOM     16  C   LIG A   1      -7.692  -1.008 128.737  0.00  0.00    +0.168 C 
ATOM     17  C   LIG A   1      -5.939  -2.673 129.646  0.00  0.00    +0.086 C 
ATOM     18  C   LIG A   1      -5.758  -1.642 130.749  0.00  0.00    +0.181 C 
ATOM     19  O   LIG A   1      -5.817  -0.329 130.148  0.00  0.00    -0.461 OA
ATOM     20  C   LIG A   1      -6.912   0.046 129.473  0.00  0.00    +0.316 C 
ATOM     21  O   LIG A   1      -7.251   1.231 129.454  0.00  0.00    -0.250 OA
ATOM     22  C   LIG A   1      -4.407  -1.719 131.449  0.00  0.00    +0.052 C 
ATOM     23  C   LIG A   1      -5.724  -4.114 130.124  0.00  0.00    +0.016 C 
ENDROOT
BRANCH   9  24
ATOM     24  C   LIG A   1      -6.601   3.148 123.333  0.00  0.00    +0.042 C 
ATOM     25  C   LIG A   1      -6.453   3.026 122.002  0.00  0.00    -0.020 C 
BRANCH  25  26
ATOM     26  C   LIG A   1      -6.232   4.188 121.068  0.00  0.00    +0.008 C 
ATOM     27  C   LIG A   1      -4.764   4.211 120.628  0.00  0.00    +0.012 C 
BRANCH  26  28
ATOM     28  C   LIG A   1      -7.158   4.100 119.840  0.00  0.00    +0.004 C 
ATOM     29  C   LIG A   1      -6.680   4.939 118.660  0.00  0.00    +0.004 C 
ENDBRANCH  26  28
ENDBRANCH  25  26
ENDBRANCH   9  24
BRANCH  15  30
ATOM     30  O   LIG A   1      -8.322  -3.003 129.880  0.00  0.00    -0.363 OA
ATOM     31  H   LIG A   1      -9.122  -3.037 129.324  0.00  0.00    +0.213 HD
ENDBRANCH  15  30
TORSDOF 4
ENDMDL
MODEL 4
REMARK VINA RESULT:      -8.2      3.718      6.183
REMARK  Name = NuBBE_684
REMARK  9 active torsions:
REMARK  status: ('A' for Active; 'I' for Inactive)
REMARK    1  A    between atoms: C_3  and  C_4
REMARK    2  A    between atoms: C_9  and  C_10
REMARK    3  A    between atoms: C_11  and  C_12
REMARK    4  A    between atoms: C_12  and  C_14
REMARK    5  A    between atoms: C_12  and  C_16
REMARK    6  A    between atoms: C_14  and  C_15
REMARK    7  A    between atoms: C_23  and  O_24
REMARK    8  A    between atoms: C_27  and  C_35
REMARK    9  A    between atoms: C_29  and  C_34
REMARK                            x       y       z     vdW  Elec       q    Type
REMARK                         _______ _______ _______ _____ _____    ______ ____
ROOT
ATOM      1  O   LIG A   1      -8.589   7.176 130.436  0.00  0.00    -0.288 OA
ATOM      2  C   LIG A   1      -7.956   6.127 130.518  0.00  0.00    +0.207 C 
ATOM      3  C   LIG A   1      -6.433   6.091 130.760  0.00  0.00    +0.141 C 
ATOM      4  C   LIG A   1      -6.209   5.669 132.230  0.00  0.00    +0.051 C 
ATOM      5  C   LIG A   1      -5.910   5.131 129.687  0.00  0.00    +0.081 C 
ATOM      6  C   LIG A   1      -6.400   3.748 130.033  0.00  0.00    +0.003 C 
ATOM      7  C   LIG A   1      -5.691   2.620 130.176  0.00  0.00    +0.200 C 
ATOM      8  O   LIG A   1      -6.239   1.388 130.458  0.00  0.00    -0.463 OA
ATOM      9  C   LIG A   1      -7.622   1.247 130.450  0.00  0.00    +0.128 C 
ATOM     10  C   LIG A   1      -8.448   2.305 130.342  0.00  0.00    +0.056 C 
ATOM     11  C   LIG A   1      -7.873   3.652 130.264  0.00  0.00    +0.007 C 
ATOM     12  C   LIG A   1      -8.625   4.772 130.412  0.00  0.00    +0.094 C 
ATOM     13 CL   LIG A   1     -10.343   4.775 130.617  0.00  0.00    -0.079 Cl
ATOM     14  O   LIG A   1      -5.716   7.306 130.555  0.00  0.00    -0.333 OA
ATOM     15  C   LIG A   1      -4.416   6.997 130.045  0.00  0.00    +0.188 C 
ATOM     16  C   LIG A   1      -4.506   5.649 129.338  0.00  0.00    +0.168 C 
ATOM     17  C   LIG A   1      -3.378   7.073 131.176  0.00  0.00    +0.086 C 
ATOM     18  C   LIG A   1      -2.098   6.423 130.677  0.00  0.00    +0.181 C 
ATOM     19  O   LIG A   1      -2.383   5.038 130.382  0.00  0.00    -0.461 OA
ATOM     20  C   LIG A   1      -3.325   4.729 129.480  0.00  0.00    +0.316 C 
ATOM     21  O   LIG A   1      -3.219   3.706 128.801  0.00  0.00    -0.250 OA
ATOM     22  C   LIG A   1      -0.974   6.406 131.706  0.00  0.00    +0.052 C 
ATOM     23  C   LIG A   1      -3.172   8.503 131.688  0.00  0.00    +0.016 C 
ENDROOT
BRANCH   9  24
ATOM     24  C   LIG A   1      -8.090  -0.115 130.601  0.00  0.00    +0.042 C 
ATOM     25  C   LIG A   1      -7.420  -1.194 130.162  0.00  0.00    -0.020 C 
BRANCH  25  26
ATOM     26  C   LIG A   1      -7.878  -2.614 130.370  0.00  0.00    +0.008 C 
ATOM     27  C   LIG A   1      -8.113  -3.275 129.008  0.00  0.00    +0.012 C 
BRANCH  26  28
ATOM     28  C   LIG A   1      -6.849  -3.419 131.186  0.00  0.00    +0.004 C 
ATOM     29  C   LIG A   1      -5.993  -4.349 130.333  0.00  0.00    +0.004 C 
ENDBRANCH  26  28
ENDBRANCH  25  26
ENDBRANCH   9  24
BRANCH  15  30
ATOM     30  O   LIG A   1      -4.134   7.989 129.071  0.00  0.00    -0.363 OA
ATOM     31  H   LIG A   1      -3.333   8.433 129.408  0.00  0.00    +0.213 HD
ENDBRANCH  15  30
TORSDOF 4
ENDMDL
MODEL 5
REMARK VINA RESULT:      -8.0      2.869      4.386
REMARK  Name = NuBBE_684
REMARK  9 active torsions:
REMARK  status: ('A' for Active; 'I' for Inactive)
REMARK    1  A    between atoms: C_3  and  C_4
REMARK    2  A    between atoms: C_9  and  C_10
REMARK    3  A    between atoms: C_11  and  C_12
REMARK    4  A    between atoms: C_12  and  C_14
REMARK    5  A    between atoms: C_12  and  C_16
REMARK    6  A    between atoms: C_14  and  C_15
REMARK    7  A    between atoms: C_23  and  O_24
REMARK    8  A    between atoms: C_27  and  C_35
REMARK    9  A    between atoms: C_29  and  C_34
REMARK                            x       y       z     vdW  Elec       q    Type
REMARK                         _______ _______ _______ _____ _____    ______ ____
ROOT
ATOM      1  O   LIG A   1      -4.863   5.712 127.395  0.00  0.00    -0.288 OA
ATOM      2  C   LIG A   1      -5.238   4.572 127.660  0.00  0.00    +0.207 C 
ATOM      3  C   LIG A   1      -6.019   4.231 128.946  0.00  0.00    +0.141 C 
ATOM      4  C   LIG A   1      -7.493   4.005 128.546  0.00  0.00    +0.051 C 
ATOM      5  C   LIG A   1      -5.274   3.023 129.522  0.00  0.00    +0.081 C 
ATOM      6  C   LIG A   1      -5.508   1.858 128.594  0.00  0.00    +0.003 C 
ATOM      7  C   LIG A   1      -5.973   0.635 128.887  0.00  0.00    +0.200 C 
ATOM      8  O   LIG A   1      -6.117  -0.382 127.969  0.00  0.00    -0.463 OA
ATOM      9  C   LIG A   1      -5.618  -0.205 126.683  0.00  0.00    +0.128 C 
ATOM     10  C   LIG A   1      -5.148   0.981 126.255  0.00  0.00    +0.056 C 
ATOM     11  C   LIG A   1      -5.195   2.134 127.159  0.00  0.00    +0.007 C 
ATOM     12  C   LIG A   1      -4.986   3.404 126.729  0.00  0.00    +0.094 C 
ATOM     13 CL   LIG A   1      -4.554   3.827 125.108  0.00  0.00    -0.079 Cl
ATOM     14  O   LIG A   1      -6.007   5.206 129.987  0.00  0.00    -0.333 OA
ATOM     15  C   LIG A   1      -6.025   4.535 131.250  0.00  0.00    +0.188 C 
ATOM     16  C   LIG A   1      -5.424   3.149 131.046  0.00  0.00    +0.168 C 
ATOM     17  C   LIG A   1      -7.448   4.551 131.831  0.00  0.00    +0.086 C 
ATOM     18  C   LIG A   1      -7.491   3.558 132.982  0.00  0.00    +0.181 C 
ATOM     19  O   LIG A   1      -7.205   2.245 132.453  0.00  0.00    -0.461 OA
ATOM     20  C   LIG A   1      -6.045   2.020 131.821  0.00  0.00    +0.316 C 
ATOM     21  O   LIG A   1      -5.519   0.907 131.871  0.00  0.00    -0.250 OA
ATOM     22  C   LIG A   1      -8.856   3.449 133.650  0.00  0.00    +0.052 C 
ATOM     23  C   LIG A   1      -7.905   5.959 132.228  0.00  0.00    +0.016 C 
ENDROOT
BRANCH   9  24
ATOM     24  C   LIG A   1      -5.678  -1.386 125.846  0.00  0.00    +0.042 C 
ATOM     25  C   LIG A   1      -5.842  -1.355 124.513  0.00  0.00    -0.020 C 
BRANCH  25  26
ATOM     26  C   LIG A   1      -5.847  -2.580 123.635  0.00  0.00    +0.008 C 
ATOM     27  C   LIG A   1      -6.294  -2.189 122.222  0.00  0.00    +0.012 C 
BRANCH  26  28
ATOM     28  C   LIG A   1      -4.456  -3.241 123.592  0.00  0.00    +0.004 C 
ATOM     29  C   LIG A   1      -4.510  -4.765 123.599  0.00  0.00    +0.004 C 
ENDBRANCH  26  28
ENDBRANCH  25  26
ENDBRANCH   9  24
BRANCH  15  30
ATOM     30  O   LIG A   1      -5.157   5.274 132.096  0.00  0.00    -0.363 OA
ATOM     31  H   LIG A   1      -4.902   6.046 131.558  0.00  0.00    +0.213 HD
ENDBRANCH  15  30
TORSDOF 4
ENDMDL
MODEL 6
REMARK VINA RESULT:      -8.0      3.135      7.602
REMARK  Name = NuBBE_684
REMARK  9 active torsions:
REMARK  status: ('A' for Active; 'I' for Inactive)
REMARK    1  A    between atoms: C_3  and  C_4
REMARK    2  A    between atoms: C_9  and  C_10
REMARK    3  A    between atoms: C_11  and  C_12
REMARK    4  A    between atoms: C_12  and  C_14
REMARK    5  A    between atoms: C_12  and  C_16
REMARK    6  A    between atoms: C_14  and  C_15
REMARK    7  A    between atoms: C_23  and  O_24
REMARK    8  A    between atoms: C_27  and  C_35
REMARK    9  A    between atoms: C_29  and  C_34
REMARK                            x       y       z     vdW  Elec       q    Type
REMARK                         _______ _______ _______ _____ _____    ______ ____
ROOT
ATOM      1  O   LIG A   1      -8.766   2.329 128.257  0.00  0.00    -0.288 OA
ATOM      2  C   LIG A   1      -8.267   1.210 128.342  0.00  0.00    +0.207 C 
ATOM      3  C   LIG A   1      -7.775   0.422 127.111  0.00  0.00    +0.141 C 
ATOM      4  C   LIG A   1      -6.231   0.480 127.113  0.00  0.00    +0.051 C 
ATOM      5  C   LIG A   1      -8.406  -0.963 127.281  0.00  0.00    +0.081 C 
ATOM      6  C   LIG A   1      -7.747  -1.623 128.465  0.00  0.00    +0.003 C 
ATOM      7  C   LIG A   1      -7.154  -2.824 128.531  0.00  0.00    +0.200 C 
ATOM      8  O   LIG A   1      -6.610  -3.360 129.678  0.00  0.00    -0.463 OA
ATOM      9  C   LIG A   1      -6.806  -2.703 130.887  0.00  0.00    +0.128 C 
ATOM     10  C   LIG A   1      -7.363  -1.479 130.956  0.00  0.00    +0.056 C 
ATOM     11  C   LIG A   1      -7.746  -0.802 129.713  0.00  0.00    +0.007 C 
ATOM     12  C   LIG A   1      -8.070   0.515 129.674  0.00  0.00    +0.094 C 
ATOM     13 CL   LIG A   1      -8.165   1.539 131.066  0.00  0.00    -0.079 Cl
ATOM     14  O   LIG A   1      -8.214   0.878 125.834  0.00  0.00    -0.333 OA
ATOM     15  C   LIG A   1      -8.383  -0.251 124.972  0.00  0.00    +0.188 C 
ATOM     16  C   LIG A   1      -8.656  -1.466 125.851  0.00  0.00    +0.168 C 
ATOM     17  C   LIG A   1      -7.172  -0.381 124.036  0.00  0.00    +0.086 C 
ATOM     18  C   LIG A   1      -7.230  -1.755 123.386  0.00  0.00    +0.181 C 
ATOM     19  O   LIG A   1      -7.138  -2.749 124.430  0.00  0.00    -0.461 OA
ATOM     20  C   LIG A   1      -8.048  -2.771 125.412  0.00  0.00    +0.316 C 
ATOM     21  O   LIG A   1      -8.361  -3.838 125.943  0.00  0.00    -0.250 OA
ATOM     22  C   LIG A   1      -6.072  -2.038 122.438  0.00  0.00    +0.052 C 
ATOM     23  C   LIG A   1      -7.087   0.765 123.023  0.00  0.00    +0.016 C 
ENDROOT
BRANCH   9  24
ATOM     24  C   LIG A   1      -6.332  -3.426 132.049  0.00  0.00    +0.042 C 
ATOM     25  C   LIG A   1      -5.614  -4.562 131.988  0.00  0.00    -0.020 C 
BRANCH  25  26
ATOM     26  C   LIG A   1      -5.072  -5.283 133.195  0.00  0.00    +0.008 C 
ATOM     27  C   LIG A   1      -3.563  -5.037 133.296  0.00  0.00    +0.012 C 
BRANCH  26  28
ATOM     28  C   LIG A   1      -5.777  -4.821 134.484  0.00  0.00    +0.004 C 
ATOM     29  C   LIG A   1      -6.648  -5.901 135.117  0.00  0.00    +0.004 C 
ENDBRANCH  26  28
ENDBRANCH  25  26
ENDBRANCH   9  24
BRANCH  15  30
ATOM     30  O   LIG A   1      -9.550   0.013 124.208  0.00  0.00    -0.363 OA
ATOM     31  H   LIG A   1     -10.255   0.107 124.875  0.00  0.00    +0.213 HD
ENDBRANCH  15  30
TORSDOF 4
ENDMDL
MODEL 7
REMARK VINA RESULT:      -8.0      4.817      8.758
REMARK  Name = NuBBE_684
REMARK  9 active torsions:
REMARK  status: ('A' for Active; 'I' for Inactive)
REMARK    1  A    between atoms: C_3  and  C_4
REMARK    2  A    between atoms: C_9  and  C_10
REMARK    3  A    between atoms: C_11  and  C_12
REMARK    4  A    between atoms: C_12  and  C_14
REMARK    5  A    between atoms: C_12  and  C_16
REMARK    6  A    between atoms: C_14  and  C_15
REMARK    7  A    between atoms: C_23  and  O_24
REMARK    8  A    between atoms: C_27  and  C_35
REMARK    9  A    between atoms: C_29  and  C_34
REMARK                            x       y       z     vdW  Elec       q    Type
REMARK                         _______ _______ _______ _____ _____    ______ ____
ROOT
ATOM      1  O   LIG A   1      -9.759   2.452 124.722  0.00  0.00    -0.288 OA
ATOM      2  C   LIG A   1      -8.608   2.296 125.121  0.00  0.00    +0.207 C 
ATOM      3  C   LIG A   1      -7.818   0.991 124.891  0.00  0.00    +0.141 C 
ATOM      4  C   LIG A   1      -6.783   1.268 123.778  0.00  0.00    +0.051 C 
ATOM      5  C   LIG A   1      -7.258   0.649 126.275  0.00  0.00    +0.081 C 
ATOM      6  C   LIG A   1      -6.220   1.687 126.617  0.00  0.00    +0.003 C 
ATOM      7  C   LIG A   1      -4.947   1.505 126.996  0.00  0.00    +0.200 C 
ATOM      8  O   LIG A   1      -4.081   2.524 127.327  0.00  0.00    -0.463 OA
ATOM      9  C   LIG A   1      -4.573   3.821 127.427  0.00  0.00    +0.128 C 
ATOM     10  C   LIG A   1      -5.825   4.142 127.051  0.00  0.00    +0.056 C 
ATOM     11  C   LIG A   1      -6.688   3.100 126.486  0.00  0.00    +0.007 C 
ATOM     12  C   LIG A   1      -7.854   3.386 125.854  0.00  0.00    +0.094 C 
ATOM     13 CL   LIG A   1      -8.520   4.976 125.706  0.00  0.00    -0.079 Cl
ATOM     14  O   LIG A   1      -8.566  -0.157 124.497  0.00  0.00    -0.333 OA
ATOM     15  C   LIG A   1      -7.960  -1.322 125.066  0.00  0.00    +0.188 C 
ATOM     16  C   LIG A   1      -7.206  -0.887 126.316  0.00  0.00    +0.168 C 
ATOM     17  C   LIG A   1      -7.109  -2.039 124.006  0.00  0.00    +0.086 C 
ATOM     18  C   LIG A   1      -6.234  -3.056 124.722  0.00  0.00    +0.181 C 
ATOM     19  O   LIG A   1      -5.367  -2.340 125.630  0.00  0.00    -0.461 OA
ATOM     20  C   LIG A   1      -5.896  -1.572 126.591  0.00  0.00    +0.316 C 
ATOM     21  O   LIG A   1      -5.306  -1.429 127.664  0.00  0.00    -0.250 OA
ATOM     22  C   LIG A   1      -5.313  -3.838 123.795  0.00  0.00    +0.052 C 
ATOM     23  C   LIG A   1      -7.959  -2.653 122.888  0.00  0.00    +0.016 C 
ENDROOT
BRANCH   9  24
ATOM     24  C   LIG A   1      -3.621   4.789 127.931  0.00  0.00    +0.042 C 
ATOM     25  C   LIG A   1      -3.858   6.110 128.002  0.00  0.00    -0.020 C 
BRANCH  25  26
ATOM     26  C   LIG A   1      -2.890   7.110 128.580  0.00  0.00    +0.008 C 
ATOM     27  C   LIG A   1      -3.666   8.155 129.390  0.00  0.00    +0.012 C 
BRANCH  26  28
ATOM     28  C   LIG A   1      -1.837   6.420 129.466  0.00  0.00    +0.004 C 
ATOM     29  C   LIG A   1      -2.113   6.563 130.959  0.00  0.00    +0.004 C 
ENDBRANCH  26  28
ENDBRANCH  25  26
ENDBRANCH   9  24
BRANCH  15  30
ATOM     30  O   LIG A   1      -9.032  -2.162 125.465  0.00  0.00    -0.363 OA
ATOM     31  H   LIG A   1      -8.971  -2.180 126.438  0.00  0.00    +0.213 HD
ENDBRANCH  15  30
TORSDOF 4
ENDMDL
MODEL 8
REMARK VINA RESULT:      -7.8      2.836      4.207
REMARK  Name = NuBBE_684
REMARK  9 active torsions:
REMARK  status: ('A' for Active; 'I' for Inactive)
REMARK    1  A    between atoms: C_3  and  C_4
REMARK    2  A    between atoms: C_9  and  C_10
REMARK    3  A    between atoms: C_11  and  C_12
REMARK    4  A    between atoms: C_12  and  C_14
REMARK    5  A    between atoms: C_12  and  C_16
REMARK    6  A    between atoms: C_14  and  C_15
REMARK    7  A    between atoms: C_23  and  O_24
REMARK    8  A    between atoms: C_27  and  C_35
REMARK    9  A    between atoms: C_29  and  C_34
REMARK                            x       y       z     vdW  Elec       q    Type
REMARK                         _______ _______ _______ _____ _____    ______ ____
ROOT
ATOM      1  O   LIG A   1      -3.930   5.376 128.514  0.00  0.00    -0.288 OA
ATOM      2  C   LIG A   1      -4.662   4.425 128.252  0.00  0.00    +0.207 C 
ATOM      3  C   LIG A   1      -6.145   4.376 128.672  0.00  0.00    +0.141 C 
ATOM      4  C   LIG A   1      -6.992   4.636 127.406  0.00  0.00    +0.051 C 
ATOM      5  C   LIG A   1      -6.300   3.001 129.327  0.00  0.00    +0.081 C 
ATOM      6  C   LIG A   1      -6.159   1.961 128.244  0.00  0.00    +0.003 C 
ATOM      7  C   LIG A   1      -6.995   0.961 127.931  0.00  0.00    +0.200 C 
ATOM      8  O   LIG A   1      -6.758   0.032 126.942  0.00  0.00    -0.463 OA
ATOM      9  C   LIG A   1      -5.518   0.016 126.315  0.00  0.00    +0.128 C 
ATOM     10  C   LIG A   1      -4.599   0.978 126.521  0.00  0.00    +0.056 C 
ATOM     11  C   LIG A   1      -4.928   2.098 127.409  0.00  0.00    +0.007 C 
ATOM     12  C   LIG A   1      -4.173   3.224 127.469  0.00  0.00    +0.094 C 
ATOM     13 CL   LIG A   1      -2.698   3.457 126.596  0.00  0.00    -0.079 Cl
ATOM     14  O   LIG A   1      -6.567   5.311 129.663  0.00  0.00    -0.333 OA
ATOM     15  C   LIG A   1      -7.577   4.702 130.473  0.00  0.00    +0.188 C 
ATOM     16  C   LIG A   1      -7.370   3.193 130.413  0.00  0.00    +0.168 C 
ATOM     17  C   LIG A   1      -8.966   5.189 130.032  0.00  0.00    +0.086 C 
ATOM     18  C   LIG A   1     -10.004   4.283 130.676  0.00  0.00    +0.181 C 
ATOM     19  O   LIG A   1      -9.790   2.939 130.189  0.00  0.00    -0.461 OA
ATOM     20  C   LIG A   1      -8.608   2.339 130.386  0.00  0.00    +0.316 C 
ATOM     21  O   LIG A   1      -8.551   1.117 130.526  0.00  0.00    -0.250 OA
ATOM     22  C   LIG A   1     -11.440   4.634 130.311  0.00  0.00    +0.052 C 
ATOM     23  C   LIG A   1      -9.190   6.675 130.331  0.00  0.00    +0.016 C 
ENDROOT
BRANCH   9  24
ATOM     24  C   LIG A   1      -5.316  -1.094 125.406  0.00  0.00    +0.042 C 
ATOM     25  C   LIG A   1      -6.243  -1.533 124.537  0.00  0.00    -0.020 C 
BRANCH  25  26
ATOM     26  C   LIG A   1      -6.013  -2.650 123.552  0.00  0.00    +0.008 C 
ATOM     27  C   LIG A   1      -6.258  -2.130 122.131  0.00  0.00    +0.012 C 
BRANCH  26  28
ATOM     28  C   LIG A   1      -4.587  -3.219 123.675  0.00  0.00    +0.004 C 
ATOM     29  C   LIG A   1      -4.537  -4.742 123.626  0.00  0.00    +0.004 C 
ENDBRANCH  26  28
ENDBRANCH  25  26
ENDBRANCH   9  24
BRANCH  15  30
ATOM     30  O   LIG A   1      -7.322   5.131 131.802  0.00  0.00    -0.363 OA
ATOM     31  H   LIG A   1      -8.201   5.138 132.223  0.00  0.00    +0.213 HD
ENDBRANCH  15  30
TORSDOF 4
ENDMDL
MODEL 9
REMARK VINA RESULT:      -7.8      2.615      8.157
REMARK  Name = NuBBE_684
REMARK  9 active torsions:
REMARK  status: ('A' for Active; 'I' for Inactive)
REMARK    1  A    between atoms: C_3  and  C_4
REMARK    2  A    between atoms: C_9  and  C_10
REMARK    3  A    between atoms: C_11  and  C_12
REMARK    4  A    between atoms: C_12  and  C_14
REMARK    5  A    between atoms: C_12  and  C_16
REMARK    6  A    between atoms: C_14  and  C_15
REMARK    7  A    between atoms: C_23  and  O_24
REMARK    8  A    between atoms: C_27  and  C_35
REMARK    9  A    between atoms: C_29  and  C_34
REMARK                            x       y       z     vdW  Elec       q    Type
REMARK                         _______ _______ _______ _____ _____    ______ ____
ROOT
ATOM      1  O   LIG A   1      -4.546  -1.908 129.033  0.00  0.00    -0.288 OA
ATOM      2  C   LIG A   1      -5.534  -1.220 128.786  0.00  0.00    +0.207 C 
ATOM      3  C   LIG A   1      -6.458  -1.493 127.582  0.00  0.00    +0.141 C 
ATOM      4  C   LIG A   1      -7.754  -2.132 128.130  0.00  0.00    +0.051 C 
ATOM      5  C   LIG A   1      -6.603  -0.125 126.909  0.00  0.00    +0.081 C 
ATOM      6  C   LIG A   1      -7.405   0.756 127.834  0.00  0.00    +0.003 C 
ATOM      7  C   LIG A   1      -8.516   1.457 127.568  0.00  0.00    +0.200 C 
ATOM      8  O   LIG A   1      -9.158   2.270 128.476  0.00  0.00    -0.463 OA
ATOM      9  C   LIG A   1      -8.557   2.514 129.705  0.00  0.00    +0.128 C 
ATOM     10  C   LIG A   1      -7.453   1.855 130.106  0.00  0.00    +0.056 C 
ATOM     11  C   LIG A   1      -6.885   0.822 129.233  0.00  0.00    +0.007 C 
ATOM     12  C   LIG A   1      -5.943  -0.055 129.663  0.00  0.00    +0.094 C 
ATOM     13 CL   LIG A   1      -5.227  -0.024 131.238  0.00  0.00    -0.079 Cl
ATOM     14  O   LIG A   1      -5.957  -2.357 126.565  0.00  0.00    -0.333 OA
ATOM     15  C   LIG A   1      -6.455  -1.919 125.297  0.00  0.00    +0.188 C 
ATOM     16  C   LIG A   1      -6.763  -0.431 125.412  0.00  0.00    +0.168 C 
ATOM     17  C   LIG A   1      -7.639  -2.800 124.868  0.00  0.00    +0.086 C 
ATOM     18  C   LIG A   1      -8.339  -2.107 123.709  0.00  0.00    +0.181 C 
ATOM     19  O   LIG A   1      -8.834  -0.834 124.180  0.00  0.00    -0.461 OA
ATOM     20  C   LIG A   1      -7.982   0.068 124.684  0.00  0.00    +0.316 C 
ATOM     21  O   LIG A   1      -8.209   1.272 124.559  0.00  0.00    -0.250 OA
ATOM     22  C   LIG A   1      -9.555  -2.859 123.185  0.00  0.00    +0.052 C 
ATOM     23  C   LIG A   1      -7.216  -4.237 124.549  0.00  0.00    +0.016 C 
ENDROOT
BRANCH   9  24
ATOM     24  C   LIG A   1      -9.233   3.501 130.521  0.00  0.00    +0.042 C 
ATOM     25  C   LIG A   1     -10.128   4.384 130.047  0.00  0.00    -0.020 C 
BRANCH  25  26
ATOM     26  C   LIG A   1     -10.874   5.373 130.905  0.00  0.00    +0.008 C 
ATOM     27  C   LIG A   1      -9.973   5.822 132.060  0.00  0.00    +0.012 C 
BRANCH  26  28
ATOM     28  C   LIG A   1     -11.335   6.590 130.081  0.00  0.00    +0.004 C 
ATOM     29  C   LIG A   1     -10.196   7.532 129.703  0.00  0.00    +0.004 C 
ENDBRANCH  26  28
ENDBRANCH  25  26
ENDBRANCH   9  24
BRANCH  15  30
ATOM     30  O   LIG A   1      -5.384  -2.081 124.380  0.00  0.00    -0.363 OA
ATOM     31  H   LIG A   1      -4.739  -2.630 124.862  0.00  0.00    +0.213 HD
ENDBRANCH  15  30
TORSDOF 4
ENDMDL
