MODEL 1
REMARK VINA RESULT:      -8.1      0.000      0.000
REMARK  Name = NuBBE_2300
REMARK  17 active torsions:
REMARK  status: ('A' for Active; 'I' for Inactive)
REMARK    1  A    between atoms: O_1  and  C_2
REMARK    2  A    between atoms: C_9  and  C_34
REMARK    3  A    between atoms: C_14  and  C_15
REMARK    4  A    between atoms: C_16  and  C_20
REMARK    5  A    between atoms: C_20  and  C_21
REMARK    6  A    between atoms: C_20  and  C_32
REMARK    7  A    between atoms: C_20  and  O_33
REMARK    8  A    between atoms: C_21  and  C_23
REMARK    9  A    between atoms: C_21  and  O_31
REMARK   10  A    between atoms: C_23  and  C_24
REMARK   11  A    between atoms: C_24  and  C_26
REMARK   12  A    between atoms: C_24  and  O_30
REMARK   13  A    between atoms: C_26  and  C_27
REMARK   14  A    between atoms: C_26  and  C_28
REMARK   15  A    between atoms: C_26  and  O_29
REMARK   16  A    between atoms: C_36  and  O_42
REMARK   17  A    between atoms: C_38  and  O_41
REMARK                            x       y       z     vdW  Elec       q    Type
REMARK                         _______ _______ _______ _____ _____    ______ ____
ROOT
ATOM      1  C   LIG A   1      -9.138   1.935 131.884  0.00  0.00    +0.093 C 
ATOM      2  C   LIG A   1      -7.814   1.205 131.631  0.00  0.00    -0.031 C 
ATOM      3  C   LIG A   1      -6.848   1.075 132.551  0.00  0.00    +0.049 C 
ATOM      4  C   LIG A   1      -5.568   0.423 132.240  0.00  0.00    +0.160 C 
ATOM      5  O   LIG A   1      -4.592   0.671 132.932  0.00  0.00    -0.292 OA
ATOM      6  C   LIG A   1      -5.534  -0.630 131.156  0.00  0.00    +0.069 C 
ATOM      7  C   LIG A   1      -6.508  -0.391 129.957  0.00  0.00    -0.013 C 
ATOM      8  C   LIG A   1      -7.633   0.706 130.209  0.00  0.00    +0.025 C 
ATOM      9  C   LIG A   1      -7.580   1.983 129.352  0.00  0.00    +0.009 C 
ATOM     10  C   LIG A   1      -8.924   2.727 129.416  0.00  0.00    +0.011 C 
ATOM     11  C   LIG A   1      -9.447   3.082 130.841  0.00  0.00    +0.006 C 
ATOM     12  C   LIG A   1     -10.980   3.280 130.712  0.00  0.00    +0.014 C 
ATOM     13  C   LIG A   1      -8.689   4.346 131.452  0.00  0.00    +0.032 C 
ATOM     14  C   LIG A   1      -8.502   4.009 132.954  0.00  0.00    +0.010 C 
ATOM     15  C   LIG A   1      -9.241   2.707 133.206  0.00  0.00    +0.040 C 
ATOM     16  C   LIG A   1      -5.634  -0.040 128.724  0.00  0.00    +0.012 C 
ATOM     17  C   LIG A   1      -7.256  -1.729 129.620  0.00  0.00    +0.042 C 
ATOM     18  C   LIG A   1      -6.355  -2.963 129.565  0.00  0.00    +0.144 C 
ATOM     19  C   LIG A   1      -5.532  -3.145 130.855  0.00  0.00    +0.144 C 
ATOM     20  C   LIG A   1      -5.712  -1.994 131.838  0.00  0.00    +0.045 C 
ENDROOT
BRANCH   1  21
ATOM     21  O   LIG A   1     -10.138   0.922 131.912  0.00  0.00    -0.384 OA
ATOM     22  H   LIG A   1      -9.707   0.058 131.817  0.00  0.00    +0.211 HD
ENDBRANCH   1  21
BRANCH  13  23
ATOM     23  C   LIG A   1      -9.223   5.809 131.224  0.00  0.00    +0.092 C 
ATOM     24  C   LIG A   1     -10.285   6.209 132.265  0.00  0.00    +0.044 C 
BRANCH  23  25
ATOM     25  O   LIG A   1      -8.132   6.743 131.424  0.00  0.00    -0.386 OA
ATOM     26  H   LIG A   1      -8.508   7.632 131.562  0.00  0.00    +0.210 HD
ENDBRANCH  23  25
BRANCH  23  27
ATOM     27  C   LIG A   1      -9.750   6.122 129.764  0.00  0.00    +0.149 C 
BRANCH  27  28
ATOM     28  O   LIG A   1      -8.661   5.809 128.851  0.00  0.00    -0.389 OA
ATOM     29  H   LIG A   1      -8.481   6.635 128.357  0.00  0.00    +0.210 HD
ENDBRANCH  27  28
BRANCH  27  30
ATOM     30  C   LIG A   1     -10.187   7.551 129.391  0.00  0.00    +0.068 C 
BRANCH  30  31
ATOM     31  C   LIG A   1     -11.241   7.695 128.291  0.00  0.00    +0.148 C 
BRANCH  31  32
ATOM     32  C   LIG A   1     -12.665   8.123 128.761  0.00  0.00    +0.086 C 
ATOM     33  C   LIG A   1     -13.767   7.557 127.863  0.00  0.00    +0.043 C 
ATOM     34  C   LIG A   1     -12.948   7.807 130.232  0.00  0.00    +0.043 C 
BRANCH  32  35
ATOM     35  O   LIG A   1     -12.691   9.562 128.631  0.00  0.00    -0.387 OA
ATOM     36  H   LIG A   1     -13.560   9.879 128.935  0.00  0.00    +0.210 HD
ENDBRANCH  32  35
ENDBRANCH  31  32
BRANCH  31  37
ATOM     37  O   LIG A   1     -10.775   8.633 127.312  0.00  0.00    -0.389 OA
ATOM     38  H   LIG A   1     -10.812   8.144 126.462  0.00  0.00    +0.210 HD
ENDBRANCH  31  37
ENDBRANCH  30  31
ENDBRANCH  27  30
ENDBRANCH  23  27
ENDBRANCH  13  23
BRANCH  19  39
ATOM     39  O   LIG A   1      -5.887  -4.361 131.519  0.00  0.00    -0.389 OA
ATOM     40  H   LIG A   1      -6.314  -4.079 132.355  0.00  0.00    +0.210 HD
ENDBRANCH  19  39
BRANCH  18  41
ATOM     41  O   LIG A   1      -7.156  -4.134 129.348  0.00  0.00    -0.389 OA
ATOM     42  H   LIG A   1      -7.906  -3.875 128.782  0.00  0.00    +0.210 HD
ENDBRANCH  18  41
TORSDOF 12
ENDMDL
MODEL 2
REMARK VINA RESULT:      -8.1      4.924      7.179
REMARK  Name = NuBBE_2300
REMARK  17 active torsions:
REMARK  status: ('A' for Active; 'I' for Inactive)
REMARK    1  A    between atoms: O_1  and  C_2
REMARK    2  A    between atoms: C_9  and  C_34
REMARK    3  A    between atoms: C_14  and  C_15
REMARK    4  A    between atoms: C_16  and  C_20
REMARK    5  A    between atoms: C_20  and  C_21
REMARK    6  A    between atoms: C_20  and  C_32
REMARK    7  A    between atoms: C_20  and  O_33
REMARK    8  A    between atoms: C_21  and  C_23
REMARK    9  A    between atoms: C_21  and  O_31
REMARK   10  A    between atoms: C_23  and  C_24
REMARK   11  A    between atoms: C_24  and  C_26
REMARK   12  A    between atoms: C_24  and  O_30
REMARK   13  A    between atoms: C_26  and  C_27
REMARK   14  A    between atoms: C_26  and  C_28
REMARK   15  A    between atoms: C_26  and  O_29
REMARK   16  A    between atoms: C_36  and  O_42
REMARK   17  A    between atoms: C_38  and  O_41
REMARK                            x       y       z     vdW  Elec       q    Type
REMARK                         _______ _______ _______ _____ _____    ______ ____
ROOT
ATOM      1  C   LIG A   1      -6.363  -0.529 126.459  0.00  0.00    +0.093 C 
ATOM      2  C   LIG A   1      -7.005  -1.302 127.617  0.00  0.00    -0.031 C 
ATOM      3  C   LIG A   1      -7.547  -2.521 127.487  0.00  0.00    +0.049 C 
ATOM      4  C   LIG A   1      -8.210  -3.195 128.614  0.00  0.00    +0.160 C 
ATOM      5  O   LIG A   1      -9.021  -4.078 128.382  0.00  0.00    -0.292 OA
ATOM      6  C   LIG A   1      -7.769  -2.861 130.020  0.00  0.00    +0.069 C 
ATOM      7  C   LIG A   1      -7.328  -1.379 130.252  0.00  0.00    -0.013 C 
ATOM      8  C   LIG A   1      -7.063  -0.539 128.927  0.00  0.00    +0.025 C 
ATOM      9  C   LIG A   1      -8.000   0.650 128.644  0.00  0.00    +0.009 C 
ATOM     10  C   LIG A   1      -7.378   1.581 127.590  0.00  0.00    +0.011 C 
ATOM     11  C   LIG A   1      -6.965   0.917 126.242  0.00  0.00    +0.006 C 
ATOM     12  C   LIG A   1      -5.899   1.842 125.602  0.00  0.00    +0.014 C 
ATOM     13  C   LIG A   1      -8.227   0.650 125.302  0.00  0.00    +0.032 C 
ATOM     14  C   LIG A   1      -7.945  -0.723 124.639  0.00  0.00    +0.010 C 
ATOM     15  C   LIG A   1      -6.545  -1.134 125.061  0.00  0.00    +0.040 C 
ATOM     16  C   LIG A   1      -8.411  -0.716 131.142  0.00  0.00    +0.012 C 
ATOM     17  C   LIG A   1      -5.989  -1.357 131.070  0.00  0.00    +0.042 C 
ATOM     18  C   LIG A   1      -5.966  -2.299 132.275  0.00  0.00    +0.144 C 
ATOM     19  C   LIG A   1      -6.308  -3.751 131.888  0.00  0.00    +0.144 C 
ATOM     20  C   LIG A   1      -6.709  -3.894 130.425  0.00  0.00    +0.045 C 
ENDROOT
BRANCH   1  21
ATOM     21  O   LIG A   1      -4.966  -0.516 126.731  0.00  0.00    -0.384 OA
ATOM     22  H   LIG A   1      -4.503  -0.950 125.997  0.00  0.00    +0.211 HD
ENDBRANCH   1  21
BRANCH  13  23
ATOM     23  C   LIG A   1      -8.718   1.729 124.267  0.00  0.00    +0.092 C 
ATOM     24  C   LIG A   1      -9.412   1.094 123.048  0.00  0.00    +0.044 C 
BRANCH  23  25
ATOM     25  O   LIG A   1      -9.737   2.550 124.893  0.00  0.00    -0.386 OA
ATOM     26  H   LIG A   1      -9.303   3.317 125.310  0.00  0.00    +0.210 HD
ENDBRANCH  23  25
BRANCH  23  27
ATOM     27  C   LIG A   1      -7.619   2.762 123.786  0.00  0.00    +0.149 C 
BRANCH  27  28
ATOM     28  O   LIG A   1      -8.225   4.083 123.861  0.00  0.00    -0.389 OA
ATOM     29  H   LIG A   1      -8.006   4.526 123.016  0.00  0.00    +0.210 HD
ENDBRANCH  27  28
BRANCH  27  30
ATOM     30  C   LIG A   1      -7.040   2.668 122.361  0.00  0.00    +0.068 C 
BRANCH  30  31
ATOM     31  C   LIG A   1      -6.881   3.977 121.584  0.00  0.00    +0.148 C 
BRANCH  31  32
ATOM     32  C   LIG A   1      -5.498   4.200 120.899  0.00  0.00    +0.086 C 
ATOM     33  C   LIG A   1      -5.618   4.986 119.592  0.00  0.00    +0.043 C 
ATOM     34  C   LIG A   1      -4.452   4.834 121.818  0.00  0.00    +0.043 C 
BRANCH  32  35
ATOM     35  O   LIG A   1      -5.019   2.878 120.570  0.00  0.00    -0.387 OA
ATOM     36  H   LIG A   1      -4.311   2.645 121.198  0.00  0.00    +0.210 HD
ENDBRANCH  32  35
ENDBRANCH  31  32
BRANCH  31  37
ATOM     37  O   LIG A   1      -7.909   4.061 120.589  0.00  0.00    -0.389 OA
ATOM     38  H   LIG A   1      -7.960   5.014 120.364  0.00  0.00    +0.210 HD
ENDBRANCH  31  37
ENDBRANCH  30  31
ENDBRANCH  27  30
ENDBRANCH  23  27
ENDBRANCH  13  23
BRANCH  19  39
ATOM     39  O   LIG A   1      -5.201  -4.620 132.138  0.00  0.00    -0.389 OA
ATOM     40  H   LIG A   1      -4.407  -4.047 132.070  0.00  0.00    +0.210 HD
ENDBRANCH  19  39
BRANCH  18  41
ATOM     41  O   LIG A   1      -4.667  -2.268 132.884  0.00  0.00    -0.389 OA
ATOM     42  H   LIG A   1      -4.605  -3.035 133.481  0.00  0.00    +0.210 HD
ENDBRANCH  18  41
TORSDOF 12
ENDMDL
MODEL 3
REMARK VINA RESULT:      -8.0      5.712      7.452
REMARK  Name = NuBBE_2300
REMARK  17 active torsions:
REMARK  status: ('A' for Active; 'I' for Inactive)
REMARK    1  A    between atoms: O_1  and  C_2
REMARK    2  A    between atoms: C_9  and  C_34
REMARK    3  A    between atoms: C_14  and  C_15
REMARK    4  A    between atoms: C_16  and  C_20
REMARK    5  A    between atoms: C_20  and  C_21
REMARK    6  A    between atoms: C_20  and  C_32
REMARK    7  A    between atoms: C_20  and  O_33
REMARK    8  A    between atoms: C_21  and  C_23
REMARK    9  A    between atoms: C_21  and  O_31
REMARK   10  A    between atoms: C_23  and  C_24
REMARK   11  A    between atoms: C_24  and  C_26
REMARK   12  A    between atoms: C_24  and  O_30
REMARK   13  A    between atoms: C_26  and  C_27
REMARK   14  A    between atoms: C_26  and  C_28
REMARK   15  A    between atoms: C_26  and  O_29
REMARK   16  A    between atoms: C_36  and  O_42
REMARK   17  A    between atoms: C_38  and  O_41
REMARK                            x       y       z     vdW  Elec       q    Type
REMARK                         _______ _______ _______ _____ _____    ______ ____
ROOT
ATOM      1  C   LIG A   1      -6.650  -0.785 127.963  0.00  0.00    +0.093 C 
ATOM      2  C   LIG A   1      -5.832  -1.536 129.019  0.00  0.00    -0.031 C 
ATOM      3  C   LIG A   1      -4.493  -1.511 129.079  0.00  0.00    +0.049 C 
ATOM      4  C   LIG A   1      -3.749  -2.301 130.071  0.00  0.00    +0.160 C 
ATOM      5  O   LIG A   1      -2.579  -2.576 129.854  0.00  0.00    -0.292 OA
ATOM      6  C   LIG A   1      -4.420  -2.635 131.384  0.00  0.00    +0.069 C 
ATOM      7  C   LIG A   1      -5.963  -2.879 131.306  0.00  0.00    -0.013 C 
ATOM      8  C   LIG A   1      -6.656  -2.399 129.957  0.00  0.00    +0.025 C 
ATOM      9  C   LIG A   1      -7.270  -3.482 129.052  0.00  0.00    +0.009 C 
ATOM     10  C   LIG A   1      -8.234  -2.847 128.037  0.00  0.00    +0.011 C 
ATOM     11  C   LIG A   1      -7.648  -1.705 127.151  0.00  0.00    +0.006 C 
ATOM     12  C   LIG A   1      -8.855  -0.867 126.655  0.00  0.00    +0.014 C 
ATOM     13  C   LIG A   1      -6.740  -2.278 125.971  0.00  0.00    +0.032 C 
ATOM     14  C   LIG A   1      -5.554  -1.285 125.865  0.00  0.00    +0.010 C 
ATOM     15  C   LIG A   1      -5.852  -0.143 126.821  0.00  0.00    +0.040 C 
ATOM     16  C   LIG A   1      -6.197  -4.392 131.561  0.00  0.00    +0.012 C 
ATOM     17  C   LIG A   1      -6.671  -2.105 132.473  0.00  0.00    +0.042 C 
ATOM     18  C   LIG A   1      -5.997  -2.259 133.838  0.00  0.00    +0.144 C 
ATOM     19  C   LIG A   1      -4.505  -1.878 133.799  0.00  0.00    +0.144 C 
ATOM     20  C   LIG A   1      -4.014  -1.553 132.393  0.00  0.00    +0.045 C 
ENDROOT
BRANCH   1  21
ATOM     21  O   LIG A   1      -7.306   0.269 128.660  0.00  0.00    -0.384 OA
ATOM     22  H   LIG A   1      -6.880   1.108 128.425  0.00  0.00    +0.211 HD
ENDBRANCH   1  21
BRANCH  13  23
ATOM     23  C   LIG A   1      -7.354  -2.636 124.567  0.00  0.00    +0.092 C 
ATOM     24  C   LIG A   1      -6.329  -2.483 123.427  0.00  0.00    +0.044 C 
BRANCH  23  25
ATOM     25  O   LIG A   1      -7.719  -4.039 124.558  0.00  0.00    -0.386 OA
ATOM     26  H   LIG A   1      -8.447  -4.165 123.922  0.00  0.00    +0.210 HD
ENDBRANCH  23  25
BRANCH  23  27
ATOM     27  C   LIG A   1      -8.693  -1.877 124.195  0.00  0.00    +0.149 C 
BRANCH  27  28
ATOM     28  O   LIG A   1      -9.639  -2.891 123.753  0.00  0.00    -0.389 OA
ATOM     29  H   LIG A   1     -10.295  -2.977 124.473  0.00  0.00    +0.210 HD
ENDBRANCH  27  28
BRANCH  27  30
ATOM     30  C   LIG A   1      -8.695  -0.814 123.080  0.00  0.00    +0.068 C 
BRANCH  30  31
ATOM     31  C   LIG A   1      -9.597   0.406 123.279  0.00  0.00    +0.148 C 
BRANCH  31  32
ATOM     32  C   LIG A   1      -8.867   1.759 123.541  0.00  0.00    +0.086 C 
ATOM     33  C   LIG A   1      -7.442   1.558 124.060  0.00  0.00    +0.043 C 
ATOM     34  C   LIG A   1      -8.878   2.707 122.340  0.00  0.00    +0.043 C 
BRANCH  32  35
ATOM     35  O   LIG A   1      -9.626   2.402 124.588  0.00  0.00    -0.387 OA
ATOM     36  H   LIG A   1      -9.150   2.279 125.429  0.00  0.00    +0.210 HD
ENDBRANCH  32  35
ENDBRANCH  31  32
BRANCH  31  37
ATOM     37  O   LIG A   1     -10.448   0.554 122.135  0.00  0.00    -0.389 OA
ATOM     38  H   LIG A   1     -10.079   1.320 121.647  0.00  0.00    +0.210 HD
ENDBRANCH  31  37
ENDBRANCH  30  31
ENDBRANCH  27  30
ENDBRANCH  23  27
ENDBRANCH  13  23
BRANCH  19  39
ATOM     39  O   LIG A   1      -4.245  -0.749 134.638  0.00  0.00    -0.389 OA
ATOM     40  H   LIG A   1      -4.001  -0.025 134.022  0.00  0.00    +0.210 HD
ENDBRANCH  19  39
BRANCH  18  41
ATOM     41  O   LIG A   1      -6.670  -1.435 134.801  0.00  0.00    -0.389 OA
ATOM     42  H   LIG A   1      -6.038  -0.754 135.095  0.00  0.00    +0.210 HD
ENDBRANCH  18  41
TORSDOF 12
ENDMDL
MODEL 4
REMARK VINA RESULT:      -7.9      3.341      5.010
REMARK  Name = NuBBE_2300
REMARK  17 active torsions:
REMARK  status: ('A' for Active; 'I' for Inactive)
REMARK    1  A    between atoms: O_1  and  C_2
REMARK    2  A    between atoms: C_9  and  C_34
REMARK    3  A    between atoms: C_14  and  C_15
REMARK    4  A    between atoms: C_16  and  C_20
REMARK    5  A    between atoms: C_20  and  C_21
REMARK    6  A    between atoms: C_20  and  C_32
REMARK    7  A    between atoms: C_20  and  O_33
REMARK    8  A    between atoms: C_21  and  C_23
REMARK    9  A    between atoms: C_21  and  O_31
REMARK   10  A    between atoms: C_23  and  C_24
REMARK   11  A    between atoms: C_24  and  C_26
REMARK   12  A    between atoms: C_24  and  O_30
REMARK   13  A    between atoms: C_26  and  C_27
REMARK   14  A    between atoms: C_26  and  C_28
REMARK   15  A    between atoms: C_26  and  O_29
REMARK   16  A    between atoms: C_36  and  O_42
REMARK   17  A    between atoms: C_38  and  O_41
REMARK                            x       y       z     vdW  Elec       q    Type
REMARK                         _______ _______ _______ _____ _____    ______ ____
ROOT
ATOM      1  C   LIG A   1      -6.848   2.022 128.215  0.00  0.00    +0.093 C 
ATOM      2  C   LIG A   1      -7.607   1.023 127.334  0.00  0.00    -0.031 C 
ATOM      3  C   LIG A   1      -8.505   1.382 126.408  0.00  0.00    +0.049 C 
ATOM      4  C   LIG A   1      -9.256   0.383 125.632  0.00  0.00    +0.160 C 
ATOM      5  O   LIG A   1     -10.315   0.707 125.116  0.00  0.00    -0.292 OA
ATOM      6  C   LIG A   1      -8.630  -0.971 125.393  0.00  0.00    +0.069 C 
ATOM      7  C   LIG A   1      -7.738  -1.514 126.557  0.00  0.00    -0.013 C 
ATOM      8  C   LIG A   1      -7.328  -0.435 127.653  0.00  0.00    +0.025 C 
ATOM      9  C   LIG A   1      -7.873  -0.633 129.079  0.00  0.00    +0.009 C 
ATOM     10  C   LIG A   1      -7.077   0.221 130.079  0.00  0.00    +0.011 C 
ATOM     11  C   LIG A   1      -6.991   1.746 129.766  0.00  0.00    +0.006 C 
ATOM     12  C   LIG A   1      -5.743   2.281 130.515  0.00  0.00    +0.014 C 
ATOM     13  C   LIG A   1      -8.340   2.507 130.149  0.00  0.00    +0.032 C 
ATOM     14  C   LIG A   1      -8.545   3.547 129.018  0.00  0.00    +0.010 C 
ATOM     15  C   LIG A   1      -7.311   3.481 128.134  0.00  0.00    +0.040 C 
ATOM     16  C   LIG A   1      -8.495  -2.711 127.189  0.00  0.00    +0.012 C 
ATOM     17  C   LIG A   1      -6.399  -2.081 125.966  0.00  0.00    +0.042 C 
ATOM     18  C   LIG A   1      -6.576  -2.972 124.735  0.00  0.00    +0.144 C 
ATOM     19  C   LIG A   1      -7.377  -2.274 123.619  0.00  0.00    +0.144 C 
ATOM     20  C   LIG A   1      -7.911  -0.910 124.038  0.00  0.00    +0.045 C 
ENDROOT
BRANCH   1  21
ATOM     21  O   LIG A   1      -5.498   1.985 127.765  0.00  0.00    -0.384 OA
ATOM     22  H   LIG A   1      -5.071   1.193 128.128  0.00  0.00    +0.211 HD
ENDBRANCH   1  21
BRANCH  13  23
ATOM     23  C   LIG A   1      -8.553   3.124 131.581  0.00  0.00    +0.092 C 
ATOM     24  C   LIG A   1      -8.665   2.042 132.671  0.00  0.00    +0.044 C 
BRANCH  23  25
ATOM     25  O   LIG A   1      -7.378   3.896 131.939  0.00  0.00    -0.386 OA
ATOM     26  H   LIG A   1      -6.588   3.421 131.623  0.00  0.00    +0.210 HD
ENDBRANCH  23  25
BRANCH  23  27
ATOM     27  C   LIG A   1      -9.753   4.148 131.710  0.00  0.00    +0.149 C 
BRANCH  27  28
ATOM     28  O   LIG A   1     -10.865   3.586 130.958  0.00  0.00    -0.389 OA
ATOM     29  H   LIG A   1     -10.776   2.615 131.034  0.00  0.00    +0.210 HD
ENDBRANCH  27  28
BRANCH  27  30
ATOM     30  C   LIG A   1      -9.602   5.588 131.183  0.00  0.00    +0.068 C 
BRANCH  30  31
ATOM     31  C   LIG A   1     -10.808   6.518 131.332  0.00  0.00    +0.148 C 
BRANCH  31  32
ATOM     32  C   LIG A   1     -11.431   7.046 130.005  0.00  0.00    +0.086 C 
ATOM     33  C   LIG A   1     -12.689   7.883 130.247  0.00  0.00    +0.043 C 
ATOM     34  C   LIG A   1     -10.439   7.804 129.119  0.00  0.00    +0.043 C 
BRANCH  32  35
ATOM     35  O   LIG A   1     -11.826   5.865 129.273  0.00  0.00    -0.387 OA
ATOM     36  H   LIG A   1     -12.123   5.195 129.915  0.00  0.00    +0.210 HD
ENDBRANCH  32  35
ENDBRANCH  31  32
BRANCH  31  37
ATOM     37  O   LIG A   1     -11.827   5.849 132.088  0.00  0.00    -0.389 OA
ATOM     38  H   LIG A   1     -11.381   5.572 132.916  0.00  0.00    +0.210 HD
ENDBRANCH  31  37
ENDBRANCH  30  31
ENDBRANCH  27  30
ENDBRANCH  23  27
ENDBRANCH  13  23
BRANCH  19  39
ATOM     39  O   LIG A   1      -6.574  -2.102 122.448  0.00  0.00    -0.389 OA
ATOM     40  H   LIG A   1      -5.651  -2.239 122.750  0.00  0.00    +0.210 HD
ENDBRANCH  19  39
BRANCH  18  41
ATOM     41  O   LIG A   1      -5.289  -3.349 124.227  0.00  0.00    -0.389 OA
ATOM     42  H   LIG A   1      -4.865  -3.918 124.895  0.00  0.00    +0.210 HD
ENDBRANCH  18  41
TORSDOF 12
ENDMDL
MODEL 5
REMARK VINA RESULT:      -7.9      3.458      5.541
REMARK  Name = NuBBE_2300
REMARK  17 active torsions:
REMARK  status: ('A' for Active; 'I' for Inactive)
REMARK    1  A    between atoms: O_1  and  C_2
REMARK    2  A    between atoms: C_9  and  C_34
REMARK    3  A    between atoms: C_14  and  C_15
REMARK    4  A    between atoms: C_16  and  C_20
REMARK    5  A    between atoms: C_20  and  C_21
REMARK    6  A    between atoms: C_20  and  C_32
REMARK    7  A    between atoms: C_20  and  O_33
REMARK    8  A    between atoms: C_21  and  C_23
REMARK    9  A    between atoms: C_21  and  O_31
REMARK   10  A    between atoms: C_23  and  C_24
REMARK   11  A    between atoms: C_24  and  C_26
REMARK   12  A    between atoms: C_24  and  O_30
REMARK   13  A    between atoms: C_26  and  C_27
REMARK   14  A    between atoms: C_26  and  C_28
REMARK   15  A    between atoms: C_26  and  O_29
REMARK   16  A    between atoms: C_36  and  O_42
REMARK   17  A    between atoms: C_38  and  O_41
REMARK                            x       y       z     vdW  Elec       q    Type
REMARK                         _______ _______ _______ _____ _____    ______ ____
ROOT
ATOM      1  C   LIG A   1      -6.829   1.270 128.462  0.00  0.00    +0.093 C 
ATOM      2  C   LIG A   1      -7.526   0.409 127.402  0.00  0.00    -0.031 C 
ATOM      3  C   LIG A   1      -8.393   0.894 126.503  0.00  0.00    +0.049 C 
ATOM      4  C   LIG A   1      -9.087   0.017 125.547  0.00  0.00    +0.160 C 
ATOM      5  O   LIG A   1     -10.130   0.400 125.040  0.00  0.00    -0.292 OA
ATOM      6  C   LIG A   1      -8.419  -1.272 125.128  0.00  0.00    +0.069 C 
ATOM      7  C   LIG A   1      -7.564  -1.976 126.233  0.00  0.00    -0.013 C 
ATOM      8  C   LIG A   1      -7.227  -1.076 127.501  0.00  0.00    +0.025 C 
ATOM      9  C   LIG A   1      -7.827  -1.505 128.852  0.00  0.00    +0.009 C 
ATOM     10  C   LIG A   1      -7.095  -0.805 130.009  0.00  0.00    +0.011 C 
ATOM     11  C   LIG A   1      -7.032   0.752 129.942  0.00  0.00    +0.006 C 
ATOM     12  C   LIG A   1      -5.830   1.183 130.822  0.00  0.00    +0.014 C 
ATOM     13  C   LIG A   1      -8.414   1.420 130.378  0.00  0.00    +0.032 C 
ATOM     14  C   LIG A   1      -8.595   2.622 129.415  0.00  0.00    +0.010 C 
ATOM     15  C   LIG A   1      -7.324   2.716 128.589  0.00  0.00    +0.040 C 
ATOM     16  C   LIG A   1      -8.319  -3.270 126.635  0.00  0.00    +0.012 C 
ATOM     17  C   LIG A   1      -6.189  -2.420 125.622  0.00  0.00    +0.042 C 
ATOM     18  C   LIG A   1      -6.292  -3.110 124.261  0.00  0.00    +0.144 C 
ATOM     19  C   LIG A   1      -7.061  -2.259 123.231  0.00  0.00    +0.144 C 
ATOM     20  C   LIG A   1      -7.644  -0.987 123.834  0.00  0.00    +0.045 C 
ENDROOT
BRANCH   1  21
ATOM     21  O   LIG A   1      -5.461   1.327 128.073  0.00  0.00    -0.384 OA
ATOM     22  H   LIG A   1      -4.971   1.838 128.737  0.00  0.00    +0.211 HD
ENDBRANCH   1  21
BRANCH  13  23
ATOM     23  C   LIG A   1      -8.701   1.801 131.877  0.00  0.00    +0.092 C 
ATOM     24  C   LIG A   1     -10.153   1.491 132.289  0.00  0.00    +0.044 C 
BRANCH  23  25
ATOM     25  O   LIG A   1      -7.883   0.970 132.739  0.00  0.00    -0.386 OA
ATOM     26  H   LIG A   1      -8.285   0.954 133.626  0.00  0.00    +0.210 HD
ENDBRANCH  23  25
BRANCH  23  27
ATOM     27  C   LIG A   1      -8.328   3.284 132.287  0.00  0.00    +0.149 C 
BRANCH  27  28
ATOM     28  O   LIG A   1      -7.267   3.188 133.279  0.00  0.00    -0.389 OA
ATOM     29  H   LIG A   1      -6.947   2.264 133.240  0.00  0.00    +0.210 HD
ENDBRANCH  27  28
BRANCH  27  30
ATOM     30  C   LIG A   1      -9.389   4.201 132.924  0.00  0.00    +0.068 C 
BRANCH  30  31
ATOM     31  C   LIG A   1      -9.544   5.605 132.335  0.00  0.00    +0.148 C 
BRANCH  31  32
ATOM     32  C   LIG A   1     -10.609   5.758 131.207  0.00  0.00    +0.086 C 
ATOM     33  C   LIG A   1     -11.738   6.713 131.601  0.00  0.00    +0.043 C 
ATOM     34  C   LIG A   1     -10.016   6.151 129.851  0.00  0.00    +0.043 C 
BRANCH  32  35
ATOM     35  O   LIG A   1     -11.184   4.443 131.046  0.00  0.00    -0.387 OA
ATOM     36  H   LIG A   1     -11.022   3.938 131.863  0.00  0.00    +0.210 HD
ENDBRANCH  32  35
ENDBRANCH  31  32
BRANCH  31  37
ATOM     37  O   LIG A   1      -9.851   6.526 133.390  0.00  0.00    -0.389 OA
ATOM     38  H   LIG A   1     -10.100   5.960 134.150  0.00  0.00    +0.210 HD
ENDBRANCH  31  37
ENDBRANCH  30  31
ENDBRANCH  27  30
ENDBRANCH  23  27
ENDBRANCH  13  23
BRANCH  19  39
ATOM     39  O   LIG A   1      -6.214  -1.891 122.140  0.00  0.00    -0.389 OA
ATOM     40  H   LIG A   1      -5.536  -1.299 122.531  0.00  0.00    +0.210 HD
ENDBRANCH  19  39
BRANCH  18  41
ATOM     41  O   LIG A   1      -4.975  -3.381 123.759  0.00  0.00    -0.389 OA
ATOM     42  H   LIG A   1      -4.645  -2.562 123.346  0.00  0.00    +0.210 HD
ENDBRANCH  18  41
TORSDOF 12
ENDMDL
MODEL 6
REMARK VINA RESULT:      -7.9      1.852      2.400
REMARK  Name = NuBBE_2300
REMARK  17 active torsions:
REMARK  status: ('A' for Active; 'I' for Inactive)
REMARK    1  A    between atoms: O_1  and  C_2
REMARK    2  A    between atoms: C_9  and  C_34
REMARK    3  A    between atoms: C_14  and  C_15
REMARK    4  A    between atoms: C_16  and  C_20
REMARK    5  A    between atoms: C_20  and  C_21
REMARK    6  A    between atoms: C_20  and  C_32
REMARK    7  A    between atoms: C_20  and  O_33
REMARK    8  A    between atoms: C_21  and  C_23
REMARK    9  A    between atoms: C_21  and  O_31
REMARK   10  A    between atoms: C_23  and  C_24
REMARK   11  A    between atoms: C_24  and  C_26
REMARK   12  A    between atoms: C_24  and  O_30
REMARK   13  A    between atoms: C_26  and  C_27
REMARK   14  A    between atoms: C_26  and  C_28
REMARK   15  A    between atoms: C_26  and  O_29
REMARK   16  A    between atoms: C_36  and  O_42
REMARK   17  A    between atoms: C_38  and  O_41
REMARK                            x       y       z     vdW  Elec       q    Type
REMARK                         _______ _______ _______ _____ _____    ______ ____
ROOT
ATOM      1  C   LIG A   1      -6.832   2.309 132.976  0.00  0.00    +0.093 C 
ATOM      2  C   LIG A   1      -6.400   1.040 132.232  0.00  0.00    -0.031 C 
ATOM      3  C   LIG A   1      -5.186   0.873 131.690  0.00  0.00    +0.049 C 
ATOM      4  C   LIG A   1      -4.840  -0.336 130.929  0.00  0.00    +0.160 C 
ATOM      5  O   LIG A   1      -3.916  -0.290 130.130  0.00  0.00    -0.292 OA
ATOM      6  C   LIG A   1      -5.554  -1.628 131.253  0.00  0.00    +0.069 C 
ATOM      7  C   LIG A   1      -7.048  -1.478 131.690  0.00  0.00    -0.013 C 
ATOM      8  C   LIG A   1      -7.494   0.000 132.073  0.00  0.00    +0.025 C 
ATOM      9  C   LIG A   1      -8.546   0.677 131.175  0.00  0.00    +0.009 C 
ATOM     10  C   LIG A   1      -9.160   1.892 131.892  0.00  0.00    +0.011 C 
ATOM     11  C   LIG A   1      -8.155   2.965 132.409  0.00  0.00    +0.006 C 
ATOM     12  C   LIG A   1      -8.882   3.745 133.535  0.00  0.00    +0.014 C 
ATOM     13  C   LIG A   1      -7.623   3.897 131.228  0.00  0.00    +0.032 C 
ATOM     14  C   LIG A   1      -6.124   4.130 131.550  0.00  0.00    +0.010 C 
ATOM     15  C   LIG A   1      -5.864   3.496 132.905  0.00  0.00    +0.040 C 
ATOM     16  C   LIG A   1      -7.917  -2.058 130.542  0.00  0.00    +0.012 C 
ATOM     17  C   LIG A   1      -7.312  -2.367 132.956  0.00  0.00    +0.042 C 
ATOM     18  C   LIG A   1      -6.739  -3.782 132.868  0.00  0.00    +0.144 C 
ATOM     19  C   LIG A   1      -5.232  -3.784 132.544  0.00  0.00    +0.144 C 
ATOM     20  C   LIG A   1      -4.686  -2.388 132.266  0.00  0.00    +0.045 C 
ENDROOT
BRANCH   1  21
ATOM     21  O   LIG A   1      -6.938   1.935 134.346  0.00  0.00    -0.384 OA
ATOM     22  H   LIG A   1      -6.909   2.738 134.890  0.00  0.00    +0.211 HD
ENDBRANCH   1  21
BRANCH  13  23
ATOM     23  C   LIG A   1      -8.368   5.226 130.836  0.00  0.00    +0.092 C 
ATOM     24  C   LIG A   1      -8.004   6.396 131.770  0.00  0.00    +0.044 C 
BRANCH  23  25
ATOM     25  O   LIG A   1      -7.924   5.644 129.521  0.00  0.00    -0.386 OA
ATOM     26  H   LIG A   1      -6.962   5.802 129.555  0.00  0.00    +0.210 HD
ENDBRANCH  23  25
BRANCH  23  27
ATOM     27  C   LIG A   1      -9.942   5.111 130.703  0.00  0.00    +0.149 C 
BRANCH  27  28
ATOM     28  O   LIG A   1     -10.203   4.305 129.519  0.00  0.00    -0.389 OA
ATOM     29  H   LIG A   1     -10.498   3.432 129.850  0.00  0.00    +0.210 HD
ENDBRANCH  27  28
BRANCH  27  30
ATOM     30  C   LIG A   1     -10.798   6.379 130.520  0.00  0.00    +0.068 C 
BRANCH  30  31
ATOM     31  C   LIG A   1     -11.212   6.742 129.092  0.00  0.00    +0.148 C 
BRANCH  31  32
ATOM     32  C   LIG A   1     -12.269   7.880 128.957  0.00  0.00    +0.086 C 
ATOM     33  C   LIG A   1     -13.456   7.468 128.083  0.00  0.00    +0.043 C 
ATOM     34  C   LIG A   1     -12.753   8.433 130.300  0.00  0.00    +0.043 C 
BRANCH  32  35
ATOM     35  O   LIG A   1     -11.584   8.958 128.284  0.00  0.00    -0.387 OA
ATOM     36  H   LIG A   1     -12.130   9.241 127.528  0.00  0.00    +0.210 HD
ENDBRANCH  32  35
ENDBRANCH  31  32
BRANCH  31  37
ATOM     37  O   LIG A   1     -10.045   7.103 128.341  0.00  0.00    -0.389 OA
ATOM     38  H   LIG A   1      -9.442   6.336 128.435  0.00  0.00    +0.210 HD
ENDBRANCH  31  37
ENDBRANCH  30  31
ENDBRANCH  27  30
ENDBRANCH  23  27
ENDBRANCH  13  23
BRANCH  19  39
ATOM     39  O   LIG A   1      -4.480  -4.354 133.618  0.00  0.00    -0.389 OA
ATOM     40  H   LIG A   1      -4.534  -5.324 133.478  0.00  0.00    +0.210 HD
ENDBRANCH  19  39
BRANCH  18  41
ATOM     41  O   LIG A   1      -6.954  -4.465 134.112  0.00  0.00    -0.389 OA
ATOM     42  H   LIG A   1      -6.174  -5.024 134.278  0.00  0.00    +0.210 HD
ENDBRANCH  18  41
TORSDOF 12
ENDMDL
MODEL 7
REMARK VINA RESULT:      -7.8      5.078      7.080
REMARK  Name = NuBBE_2300
REMARK  17 active torsions:
REMARK  status: ('A' for Active; 'I' for Inactive)
REMARK    1  A    between atoms: O_1  and  C_2
REMARK    2  A    between atoms: C_9  and  C_34
REMARK    3  A    between atoms: C_14  and  C_15
REMARK    4  A    between atoms: C_16  and  C_20
REMARK    5  A    between atoms: C_20  and  C_21
REMARK    6  A    between atoms: C_20  and  C_32
REMARK    7  A    between atoms: C_20  and  O_33
REMARK    8  A    between atoms: C_21  and  C_23
REMARK    9  A    between atoms: C_21  and  O_31
REMARK   10  A    between atoms: C_23  and  C_24
REMARK   11  A    between atoms: C_24  and  C_26
REMARK   12  A    between atoms: C_24  and  O_30
REMARK   13  A    between atoms: C_26  and  C_27
REMARK   14  A    between atoms: C_26  and  C_28
REMARK   15  A    between atoms: C_26  and  O_29
REMARK   16  A    between atoms: C_36  and  O_42
REMARK   17  A    between atoms: C_38  and  O_41
REMARK                            x       y       z     vdW  Elec       q    Type
REMARK                         _______ _______ _______ _____ _____    ______ ____
ROOT
ATOM      1  C   LIG A   1      -8.095  -2.786 126.787  0.00  0.00    +0.093 C 
ATOM      2  C   LIG A   1      -7.555  -2.274 128.127  0.00  0.00    -0.031 C 
ATOM      3  C   LIG A   1      -8.262  -1.510 128.971  0.00  0.00    +0.049 C 
ATOM      4  C   LIG A   1      -7.677  -0.989 130.216  0.00  0.00    +0.160 C 
ATOM      5  O   LIG A   1      -8.176  -0.004 130.739  0.00  0.00    -0.292 OA
ATOM      6  C   LIG A   1      -6.561  -1.766 130.874  0.00  0.00    +0.069 C 
ATOM      7  C   LIG A   1      -5.587  -2.502 129.896  0.00  0.00    -0.013 C 
ATOM      8  C   LIG A   1      -6.104  -2.628 128.397  0.00  0.00    +0.025 C 
ATOM      9  C   LIG A   1      -5.312  -1.878 127.311  0.00  0.00    +0.009 C 
ATOM     10  C   LIG A   1      -5.671  -2.419 125.917  0.00  0.00    +0.011 C 
ATOM     11  C   LIG A   1      -7.186  -2.417 125.547  0.00  0.00    +0.006 C 
ATOM     12  C   LIG A   1      -7.369  -3.472 124.426  0.00  0.00    +0.014 C 
ATOM     13  C   LIG A   1      -7.694  -0.960 125.141  0.00  0.00    +0.032 C 
ATOM     14  C   LIG A   1      -9.114  -0.849 125.755  0.00  0.00    +0.010 C 
ATOM     15  C   LIG A   1      -9.445  -2.211 126.340  0.00  0.00    +0.040 C 
ATOM     16  C   LIG A   1      -4.224  -1.763 129.971  0.00  0.00    +0.012 C 
ATOM     17  C   LIG A   1      -5.342  -3.965 130.409  0.00  0.00    +0.042 C 
ATOM     18  C   LIG A   1      -5.055  -4.072 131.908  0.00  0.00    +0.144 C 
ATOM     19  C   LIG A   1      -6.150  -3.405 132.762  0.00  0.00    +0.144 C 
ATOM     20  C   LIG A   1      -7.201  -2.688 131.921  0.00  0.00    +0.045 C 
ENDROOT
BRANCH   1  21
ATOM     21  O   LIG A   1      -8.271  -4.189 126.952  0.00  0.00    -0.384 OA
ATOM     22  H   LIG A   1      -7.591  -4.649 126.435  0.00  0.00    +0.211 HD
ENDBRANCH   1  21
BRANCH  13  23
ATOM     23  C   LIG A   1      -7.643  -0.461 123.650  0.00  0.00    +0.092 C 
ATOM     24  C   LIG A   1      -6.509  -1.131 122.850  0.00  0.00    +0.044 C 
BRANCH  23  25
ATOM     25  O   LIG A   1      -8.863  -0.863 122.977  0.00  0.00    -0.386 OA
ATOM     26  H   LIG A   1      -9.128  -1.739 123.314  0.00  0.00    +0.210 HD
ENDBRANCH  23  25
BRANCH  23  27
ATOM     27  C   LIG A   1      -7.584   1.109 123.458  0.00  0.00    +0.149 C 
BRANCH  27  28
ATOM     28  O   LIG A   1      -6.676   1.362 122.349  0.00  0.00    -0.389 OA
ATOM     29  H   LIG A   1      -6.186   0.526 122.210  0.00  0.00    +0.210 HD
ENDBRANCH  27  28
BRANCH  27  30
ATOM     30  C   LIG A   1      -7.079   2.010 124.601  0.00  0.00    +0.068 C 
BRANCH  30  31
ATOM     31  C   LIG A   1      -7.264   3.520 124.435  0.00  0.00    +0.148 C 
BRANCH  31  32
ATOM     32  C   LIG A   1      -5.956   4.363 124.352  0.00  0.00    +0.086 C 
ATOM     33  C   LIG A   1      -4.899   3.895 125.355  0.00  0.00    +0.043 C 
ATOM     34  C   LIG A   1      -5.365   4.445 122.942  0.00  0.00    +0.043 C 
BRANCH  32  35
ATOM     35  O   LIG A   1      -6.344   5.705 124.720  0.00  0.00    -0.387 OA
ATOM     36  H   LIG A   1      -6.620   6.174 123.913  0.00  0.00    +0.210 HD
ENDBRANCH  32  35
ENDBRANCH  31  32
BRANCH  31  37
ATOM     37  O   LIG A   1      -8.052   3.771 123.265  0.00  0.00    -0.389 OA
ATOM     38  H   LIG A   1      -8.883   4.165 123.604  0.00  0.00    +0.210 HD
ENDBRANCH  31  37
ENDBRANCH  30  31
ENDBRANCH  27  30
ENDBRANCH  23  27
ENDBRANCH  13  23
BRANCH  19  39
ATOM     39  O   LIG A   1      -6.814  -4.369 133.584  0.00  0.00    -0.389 OA
ATOM     40  H   LIG A   1      -6.645  -5.232 133.150  0.00  0.00    +0.210 HD
ENDBRANCH  19  39
BRANCH  18  41
ATOM     41  O   LIG A   1      -4.946  -5.455 132.277  0.00  0.00    -0.389 OA
ATOM     42  H   LIG A   1      -4.214  -5.839 131.762  0.00  0.00    +0.210 HD
ENDBRANCH  18  41
TORSDOF 12
ENDMDL
MODEL 8
REMARK VINA RESULT:      -7.8      1.798      9.233
REMARK  Name = NuBBE_2300
REMARK  17 active torsions:
REMARK  status: ('A' for Active; 'I' for Inactive)
REMARK    1  A    between atoms: O_1  and  C_2
REMARK    2  A    between atoms: C_9  and  C_34
REMARK    3  A    between atoms: C_14  and  C_15
REMARK    4  A    between atoms: C_16  and  C_20
REMARK    5  A    between atoms: C_20  and  C_21
REMARK    6  A    between atoms: C_20  and  C_32
REMARK    7  A    between atoms: C_20  and  O_33
REMARK    8  A    between atoms: C_21  and  C_23
REMARK    9  A    between atoms: C_21  and  O_31
REMARK   10  A    between atoms: C_23  and  C_24
REMARK   11  A    between atoms: C_24  and  C_26
REMARK   12  A    between atoms: C_24  and  O_30
REMARK   13  A    between atoms: C_26  and  C_27
REMARK   14  A    between atoms: C_26  and  C_28
REMARK   15  A    between atoms: C_26  and  O_29
REMARK   16  A    between atoms: C_36  and  O_42
REMARK   17  A    between atoms: C_38  and  O_41
REMARK                            x       y       z     vdW  Elec       q    Type
REMARK                         _______ _______ _______ _____ _____    ______ ____
ROOT
ATOM      1  C   LIG A   1      -8.153   2.825 129.907  0.00  0.00    +0.093 C 
ATOM      2  C   LIG A   1      -8.517   4.271 130.263  0.00  0.00    -0.031 C 
ATOM      3  C   LIG A   1      -7.707   5.316 130.049  0.00  0.00    +0.049 C 
ATOM      4  C   LIG A   1      -8.074   6.677 130.467  0.00  0.00    +0.160 C 
ATOM      5  O   LIG A   1      -7.192   7.506 130.632  0.00  0.00    -0.292 OA
ATOM      6  C   LIG A   1      -9.539   7.039 130.555  0.00  0.00    +0.069 C 
ATOM      7  C   LIG A   1     -10.490   5.884 131.011  0.00  0.00    -0.013 C 
ATOM      8  C   LIG A   1      -9.852   4.428 130.970  0.00  0.00    +0.025 C 
ATOM      9  C   LIG A   1      -9.669   3.697 132.312  0.00  0.00    +0.009 C 
ATOM     10  C   LIG A   1      -9.442   2.195 132.077  0.00  0.00    +0.011 C 
ATOM     11  C   LIG A   1      -8.270   1.817 131.120  0.00  0.00    +0.006 C 
ATOM     12  C   LIG A   1      -8.571   0.390 130.594  0.00  0.00    +0.014 C 
ATOM     13  C   LIG A   1      -6.852   1.946 131.840  0.00  0.00    +0.032 C 
ATOM     14  C   LIG A   1      -5.908   2.529 130.757  0.00  0.00    +0.010 C 
ATOM     15  C   LIG A   1      -6.705   2.583 129.465  0.00  0.00    +0.040 C 
ATOM     16  C   LIG A   1     -10.996   6.247 132.432  0.00  0.00    +0.012 C 
ATOM     17  C   LIG A   1     -11.749   5.848 130.074  0.00  0.00    +0.042 C 
ATOM     18  C   LIG A   1     -12.376   7.215 129.800  0.00  0.00    +0.144 C 
ATOM     19  C   LIG A   1     -11.354   8.227 129.247  0.00  0.00    +0.144 C 
ATOM     20  C   LIG A   1      -9.934   7.675 129.215  0.00  0.00    +0.045 C 
ENDROOT
BRANCH   1  21
ATOM     21  O   LIG A   1      -8.990   2.476 128.809  0.00  0.00    -0.384 OA
ATOM     22  H   LIG A   1      -8.828   1.547 128.579  0.00  0.00    +0.211 HD
ENDBRANCH   1  21
BRANCH  13  23
ATOM     23  C   LIG A   1      -6.211   0.732 132.608  0.00  0.00    +0.092 C 
ATOM     24  C   LIG A   1      -4.933   1.132 133.368  0.00  0.00    +0.044 C 
BRANCH  23  25
ATOM     25  O   LIG A   1      -7.133   0.285 133.634  0.00  0.00    -0.386 OA
ATOM     26  H   LIG A   1      -6.763  -0.512 134.057  0.00  0.00    +0.210 HD
ENDBRANCH  23  25
BRANCH  23  27
ATOM     27  C   LIG A   1      -5.938  -0.559 131.733  0.00  0.00    +0.149 C 
BRANCH  27  28
ATOM     28  O   LIG A   1      -6.195  -1.707 132.590  0.00  0.00    -0.389 OA
ATOM     29  H   LIG A   1      -5.337  -2.169 132.682  0.00  0.00    +0.210 HD
ENDBRANCH  27  28
BRANCH  27  30
ATOM     30  C   LIG A   1      -4.538  -0.809 131.140  0.00  0.00    +0.068 C 
BRANCH  30  31
ATOM     31  C   LIG A   1      -3.962  -2.220 131.278  0.00  0.00    +0.148 C 
BRANCH  31  32
ATOM     32  C   LIG A   1      -4.161  -3.162 130.051  0.00  0.00    +0.086 C 
ATOM     33  C   LIG A   1      -5.036  -4.372 130.384  0.00  0.00    +0.043 C 
ATOM     34  C   LIG A   1      -4.681  -2.444 128.803  0.00  0.00    +0.043 C 
BRANCH  32  35
ATOM     35  O   LIG A   1      -2.841  -3.652 129.731  0.00  0.00    -0.387 OA
ATOM     36  H   LIG A   1      -2.203  -2.931 129.880  0.00  0.00    +0.210 HD
ENDBRANCH  32  35
ENDBRANCH  31  32
BRANCH  31  37
ATOM     37  O   LIG A   1      -2.562  -2.131 131.570  0.00  0.00    -0.389 OA
ATOM     38  H   LIG A   1      -2.340  -2.987 131.992  0.00  0.00    +0.210 HD
ENDBRANCH  31  37
ENDBRANCH  30  31
ENDBRANCH  27  30
ENDBRANCH  23  27
ENDBRANCH  13  23
BRANCH  19  39
ATOM     39  O   LIG A   1     -11.706   8.637 127.924  0.00  0.00    -0.389 OA
ATOM     40  H   LIG A   1     -12.001   9.569 128.016  0.00  0.00    +0.210 HD
ENDBRANCH  19  39
BRANCH  18  41
ATOM     41  O   LIG A   1     -13.451   7.071 128.860  0.00  0.00    -0.389 OA
ATOM     42  H   LIG A   1     -13.168   6.423 128.189  0.00  0.00    +0.210 HD
ENDBRANCH  18  41
TORSDOF 12
ENDMDL
MODEL 9
REMARK VINA RESULT:      -7.8      1.859      2.648
REMARK  Name = NuBBE_2300
REMARK  17 active torsions:
REMARK  status: ('A' for Active; 'I' for Inactive)
REMARK    1  A    between atoms: O_1  and  C_2
REMARK    2  A    between atoms: C_9  and  C_34
REMARK    3  A    between atoms: C_14  and  C_15
REMARK    4  A    between atoms: C_16  and  C_20
REMARK    5  A    between atoms: C_20  and  C_21
REMARK    6  A    between atoms: C_20  and  C_32
REMARK    7  A    between atoms: C_20  and  O_33
REMARK    8  A    between atoms: C_21  and  C_23
REMARK    9  A    between atoms: C_21  and  O_31
REMARK   10  A    between atoms: C_23  and  C_24
REMARK   11  A    between atoms: C_24  and  C_26
REMARK   12  A    between atoms: C_24  and  O_30
REMARK   13  A    between atoms: C_26  and  C_27
REMARK   14  A    between atoms: C_26  and  C_28
REMARK   15  A    between atoms: C_26  and  O_29
REMARK   16  A    between atoms: C_36  and  O_42
REMARK   17  A    between atoms: C_38  and  O_41
REMARK                            x       y       z     vdW  Elec       q    Type
REMARK                         _______ _______ _______ _____ _____    ______ ____
ROOT
ATOM      1  C   LIG A   1      -7.633   2.231 129.707  0.00  0.00    +0.093 C 
ATOM      2  C   LIG A   1      -7.072   1.177 130.667  0.00  0.00    -0.031 C 
ATOM      3  C   LIG A   1      -7.826   0.264 131.293  0.00  0.00    +0.049 C 
ATOM      4  C   LIG A   1      -7.250  -0.687 132.256  0.00  0.00    +0.160 C 
ATOM      5  O   LIG A   1      -7.981  -1.208 133.085  0.00  0.00    -0.292 OA
ATOM      6  C   LIG A   1      -5.799  -1.082 132.106  0.00  0.00    +0.069 C 
ATOM      7  C   LIG A   1      -4.849   0.039 131.573  0.00  0.00    -0.013 C 
ATOM      8  C   LIG A   1      -5.582   1.298 130.933  0.00  0.00    +0.025 C 
ATOM      9  C   LIG A   1      -5.424   2.650 131.654  0.00  0.00    +0.009 C 
ATOM     10  C   LIG A   1      -5.825   3.803 130.719  0.00  0.00    +0.011 C 
ATOM     11  C   LIG A   1      -7.249   3.717 130.090  0.00  0.00    +0.006 C 
ATOM     12  C   LIG A   1      -7.223   4.601 128.816  0.00  0.00    +0.014 C 
ATOM     13  C   LIG A   1      -8.384   4.131 131.132  0.00  0.00    +0.032 C 
ATOM     14  C   LIG A   1      -9.553   3.150 130.857  0.00  0.00    +0.010 C 
ATOM     15  C   LIG A   1      -9.162   2.335 129.637  0.00  0.00    +0.040 C 
ATOM     16  C   LIG A   1      -3.927   0.452 132.751  0.00  0.00    +0.012 C 
ATOM     17  C   LIG A   1      -3.921  -0.554 130.454  0.00  0.00    +0.042 C 
ATOM     18  C   LIG A   1      -3.297  -1.906 130.798  0.00  0.00    +0.144 C 
ATOM     19  C   LIG A   1      -4.354  -2.954 131.198  0.00  0.00    +0.144 C 
ATOM     20  C   LIG A   1      -5.761  -2.373 131.277  0.00  0.00    +0.045 C 
ENDROOT
BRANCH   1  21
ATOM     21  O   LIG A   1      -7.179   1.854 128.411  0.00  0.00    -0.384 OA
ATOM     22  H   LIG A   1      -7.294   0.896 128.309  0.00  0.00    +0.211 HD
ENDBRANCH   1  21
BRANCH  13  23
ATOM     23  C   LIG A   1      -8.867   5.622 131.265  0.00  0.00    +0.092 C 
ATOM     24  C   LIG A   1      -9.789   5.830 132.481  0.00  0.00    +0.044 C 
BRANCH  23  25
ATOM     25  O   LIG A   1      -7.717   6.468 131.518  0.00  0.00    -0.386 OA
ATOM     26  H   LIG A   1      -8.016   7.396 131.551  0.00  0.00    +0.210 HD
ENDBRANCH  23  25
BRANCH  23  27
ATOM     27  C   LIG A   1      -9.534   6.241 129.969  0.00  0.00    +0.149 C 
BRANCH  27  28
ATOM     28  O   LIG A   1      -9.083   7.621 129.884  0.00  0.00    -0.389 OA
ATOM     29  H   LIG A   1      -8.930   7.795 128.933  0.00  0.00    +0.210 HD
ENDBRANCH  27  28
BRANCH  27  30
ATOM     30  C   LIG A   1     -11.068   6.314 129.849  0.00  0.00    +0.068 C 
BRANCH  30  31
ATOM     31  C   LIG A   1     -11.712   7.698 129.957  0.00  0.00    +0.148 C 
BRANCH  31  32
ATOM     32  C   LIG A   1     -12.226   8.318 128.623  0.00  0.00    +0.086 C 
ATOM     33  C   LIG A   1     -12.829   7.267 127.688  0.00  0.00    +0.043 C 
ATOM     34  C   LIG A   1     -13.196   9.486 128.820  0.00  0.00    +0.043 C 
BRANCH  32  35
ATOM     35  O   LIG A   1     -11.052   8.855 127.976  0.00  0.00    -0.387 OA
ATOM     36  H   LIG A   1     -11.012   8.498 127.071  0.00  0.00    +0.210 HD
ENDBRANCH  32  35
ENDBRANCH  31  32
BRANCH  31  37
ATOM     37  O   LIG A   1     -12.800   7.639 130.889  0.00  0.00    -0.389 OA
ATOM     38  H   LIG A   1     -13.197   8.535 130.865  0.00  0.00    +0.210 HD
ENDBRANCH  31  37
ENDBRANCH  30  31
ENDBRANCH  27  30
ENDBRANCH  23  27
ENDBRANCH  13  23
BRANCH  19  39
ATOM     39  O   LIG A   1      -4.369  -4.043 130.271  0.00  0.00    -0.389 OA
ATOM     40  H   LIG A   1      -5.012  -4.684 130.643  0.00  0.00    +0.210 HD
ENDBRANCH  19  39
BRANCH  18  41
ATOM     41  O   LIG A   1      -2.554  -2.393 129.671  0.00  0.00    -0.389 OA
ATOM     42  H   LIG A   1      -2.268  -1.619 129.152  0.00  0.00    +0.210 HD
ENDBRANCH  18  41
TORSDOF 12
ENDMDL
