MODEL 1
REMARK VINA RESULT:      -7.8      0.000      0.000
REMARK  Name = NuBBE_677
REMARK  13 active torsions:
REMARK  status: ('A' for Active; 'I' for Inactive)
REMARK    1  A    between atoms: C_3  and  C_5
REMARK    2  A    between atoms: C_5  and  C_6
REMARK    3  A    between atoms: C_6  and  C_8
REMARK    4  A    between atoms: C_6  and  C_9
REMARK    5  A    between atoms: C_9  and  O_11
REMARK    6  A    between atoms: C_9  and  C_12
REMARK    7  A    between atoms: C_15  and  C_35
REMARK    8  A    between atoms: C_21  and  C_22
REMARK    9  A    between atoms: C_23  and  C_24
REMARK   10  A    between atoms: C_24  and  C_26
REMARK   11  A    between atoms: C_24  and  C_27
REMARK   12  A    between atoms: C_27  and  O_29
REMARK   13  A    between atoms: C_27  and  C_30
REMARK                            x       y       z     vdW  Elec       q    Type
REMARK                         _______ _______ _______ _____ _____    ______ ____
ROOT
ATOM      1  O   LIG A   1      -8.614   3.591 121.859  0.00  0.00    -0.250 OA
ATOM      2  C   LIG A   1      -8.602   2.703 122.712  0.00  0.00    +0.319 C 
ATOM      3  C   LIG A   1      -7.526   2.534 123.742  0.00  0.00    +0.176 C 
ATOM      4  O   LIG A   1      -9.549   1.717 122.793  0.00  0.00    -0.449 OA
ATOM      5  C   LIG A   1      -9.181   0.781 123.804  0.00  0.00    +0.181 C 
ATOM      6  C   LIG A   1      -7.682   1.024 123.923  0.00  0.00    +0.095 C 
ATOM      7  C   LIG A   1      -7.010   0.166 124.946  0.00  0.00    +0.005 C 
ATOM      8  C   LIG A   1      -5.879   0.482 125.598  0.00  0.00    +0.200 C 
ATOM      9  O   LIG A   1      -5.211  -0.376 126.452  0.00  0.00    -0.463 OA
ATOM     10  C   LIG A   1      -5.768  -1.627 126.712  0.00  0.00    +0.128 C 
ATOM     11  C   LIG A   1      -6.902  -2.048 126.124  0.00  0.00    +0.056 C 
ATOM     12  C   LIG A   1      -7.557  -1.202 125.128  0.00  0.00    +0.007 C 
ATOM     13  C   LIG A   1      -8.613  -1.641 124.400  0.00  0.00    +0.095 C 
ATOM     14 CL   LIG A   1      -9.309  -3.220 124.524  0.00  0.00    -0.079 Cl
ATOM     15  C   LIG A   1     -10.102   0.974 125.020  0.00  0.00    +0.065 C 
ATOM     16  C   LIG A   1      -9.308  -0.705 123.447  0.00  0.00    +0.218 C 
ATOM     17  O   LIG A   1      -9.954  -1.112 122.486  0.00  0.00    -0.287 OA
ENDROOT
BRANCH   3  18
ATOM     18  C   LIG A   1      -7.718   3.448 124.944  0.00  0.00    +0.153 C 
ATOM     19  O   LIG A   1      -8.780   4.050 125.110  0.00  0.00    -0.296 OA
BRANCH  18  20
ATOM     20  C   LIG A   1      -6.571   3.599 125.958  0.00  0.00    +0.081 C 
ATOM     21  C   LIG A   1      -5.703   4.820 125.631  0.00  0.00    +0.018 C 
BRANCH  20  22
ATOM     22  C   LIG A   1      -7.103   3.636 127.412  0.00  0.00    +0.121 C 
ATOM     23  C   LIG A   1      -7.922   2.420 127.845  0.00  0.00    +0.038 C 
BRANCH  22  24
ATOM     24  O   LIG A   1      -7.915   4.805 127.578  0.00  0.00    -0.391 OA
ATOM     25  H   LIG A   1      -8.849   4.557 127.445  0.00  0.00    +0.210 HD
ENDBRANCH  22  24
ENDBRANCH  20  22
ENDBRANCH  18  20
ENDBRANCH   3  18
BRANCH  10  26
ATOM     26  C   LIG A   1      -5.072  -2.421 127.701  0.00  0.00    +0.042 C 
ATOM     27  C   LIG A   1      -5.196  -2.260 129.029  0.00  0.00    -0.018 C 
BRANCH  27  28
ATOM     28  C   LIG A   1      -4.465  -3.100 130.061  0.00  0.00    +0.037 C 
ATOM     29  C   LIG A   1      -3.478  -2.223 130.841  0.00  0.00    +0.014 C 
BRANCH  28  30
ATOM     30  C   LIG A   1      -5.476  -3.828 130.986  0.00  0.00    +0.118 C 
ATOM     31  C   LIG A   1      -6.896  -3.279 130.880  0.00  0.00    +0.038 C 
BRANCH  30  32
ATOM     32  O   LIG A   1      -5.520  -5.222 130.666  0.00  0.00    -0.392 OA
ATOM     33  H   LIG A   1      -5.743  -5.704 131.481  0.00  0.00    +0.210 HD
ENDBRANCH  30  32
ENDBRANCH  28  30
ENDBRANCH  27  28
ENDBRANCH  10  26
TORSDOF 8
ENDMDL
MODEL 2
REMARK VINA RESULT:      -7.8      6.722     10.640
REMARK  Name = NuBBE_677
REMARK  13 active torsions:
REMARK  status: ('A' for Active; 'I' for Inactive)
REMARK    1  A    between atoms: C_3  and  C_5
REMARK    2  A    between atoms: C_5  and  C_6
REMARK    3  A    between atoms: C_6  and  C_8
REMARK    4  A    between atoms: C_6  and  C_9
REMARK    5  A    between atoms: C_9  and  O_11
REMARK    6  A    between atoms: C_9  and  C_12
REMARK    7  A    between atoms: C_15  and  C_35
REMARK    8  A    between atoms: C_21  and  C_22
REMARK    9  A    between atoms: C_23  and  C_24
REMARK   10  A    between atoms: C_24  and  C_26
REMARK   11  A    between atoms: C_24  and  C_27
REMARK   12  A    between atoms: C_27  and  O_29
REMARK   13  A    between atoms: C_27  and  C_30
REMARK                            x       y       z     vdW  Elec       q    Type
REMARK                         _______ _______ _______ _____ _____    ______ ____
ROOT
ATOM      1  O   LIG A   1      -1.235   6.551 132.540  0.00  0.00    -0.250 OA
ATOM      2  C   LIG A   1      -2.397   6.148 132.512  0.00  0.00    +0.319 C 
ATOM      3  C   LIG A   1      -3.401   6.529 131.465  0.00  0.00    +0.176 C 
ATOM      4  O   LIG A   1      -2.941   5.338 133.473  0.00  0.00    -0.449 OA
ATOM      5  C   LIG A   1      -4.332   5.155 133.216  0.00  0.00    +0.181 C 
ATOM      6  C   LIG A   1      -4.647   6.359 132.335  0.00  0.00    +0.095 C 
ATOM      7  C   LIG A   1      -6.072   6.426 131.890  0.00  0.00    +0.005 C 
ATOM      8  C   LIG A   1      -6.505   7.034 130.774  0.00  0.00    +0.200 C 
ATOM      9  O   LIG A   1      -7.838   7.186 130.441  0.00  0.00    -0.463 OA
ATOM     10  C   LIG A   1      -8.802   6.623 131.276  0.00  0.00    +0.128 C 
ATOM     11  C   LIG A   1      -8.486   5.983 132.416  0.00  0.00    +0.056 C 
ATOM     12  C   LIG A   1      -7.090   5.917 132.844  0.00  0.00    +0.007 C 
ATOM     13  C   LIG A   1      -6.735   5.417 134.053  0.00  0.00    +0.095 C 
ATOM     14 CL   LIG A   1      -7.845   4.820 135.238  0.00  0.00    -0.079 Cl
ATOM     15  C   LIG A   1      -4.559   3.727 132.694  0.00  0.00    +0.065 C 
ATOM     16  C   LIG A   1      -5.278   5.290 134.414  0.00  0.00    +0.218 C 
ATOM     17  O   LIG A   1      -4.895   5.261 135.580  0.00  0.00    -0.287 OA
ENDROOT
BRANCH   3  18
ATOM     18  C   LIG A   1      -3.265   5.701 130.196  0.00  0.00    +0.153 C 
ATOM     19  O   LIG A   1      -2.757   4.579 130.231  0.00  0.00    -0.296 OA
BRANCH  18  20
ATOM     20  C   LIG A   1      -3.785   6.279 128.868  0.00  0.00    +0.081 C 
ATOM     21  C   LIG A   1      -2.679   7.038 128.126  0.00  0.00    +0.018 C 
BRANCH  20  22
ATOM     22  C   LIG A   1      -4.427   5.179 127.987  0.00  0.00    +0.121 C 
ATOM     23  C   LIG A   1      -5.510   4.339 128.666  0.00  0.00    +0.038 C 
BRANCH  22  24
ATOM     24  O   LIG A   1      -3.399   4.296 127.525  0.00  0.00    -0.391 OA
ATOM     25  H   LIG A   1      -2.631   4.373 128.121  0.00  0.00    +0.210 HD
ENDBRANCH  22  24
ENDBRANCH  20  22
ENDBRANCH  18  20
ENDBRANCH   3  18
BRANCH  10  26
ATOM     26  C   LIG A   1     -10.166   6.727 130.804  0.00  0.00    +0.042 C 
ATOM     27  C   LIG A   1     -10.548   6.518 129.532  0.00  0.00    -0.018 C 
BRANCH  27  28
ATOM     28  C   LIG A   1     -11.981   6.625 129.045  0.00  0.00    +0.037 C 
ATOM     29  C   LIG A   1     -12.854   7.266 130.131  0.00  0.00    +0.014 C 
BRANCH  28  30
ATOM     30  C   LIG A   1     -12.045   7.394 127.699  0.00  0.00    +0.118 C 
ATOM     31  C   LIG A   1     -10.865   8.338 127.487  0.00  0.00    +0.038 C 
BRANCH  30  32
ATOM     32  O   LIG A   1     -12.069   6.471 126.606  0.00  0.00    -0.392 OA
ATOM     33  H   LIG A   1     -11.149   6.329 126.322  0.00  0.00    +0.210 HD
ENDBRANCH  30  32
ENDBRANCH  28  30
ENDBRANCH  27  28
ENDBRANCH  10  26
TORSDOF 8
ENDMDL
MODEL 3
REMARK VINA RESULT:      -7.7      4.964      7.513
REMARK  Name = NuBBE_677
REMARK  13 active torsions:
REMARK  status: ('A' for Active; 'I' for Inactive)
REMARK    1  A    between atoms: C_3  and  C_5
REMARK    2  A    between atoms: C_5  and  C_6
REMARK    3  A    between atoms: C_6  and  C_8
REMARK    4  A    between atoms: C_6  and  C_9
REMARK    5  A    between atoms: C_9  and  O_11
REMARK    6  A    between atoms: C_9  and  C_12
REMARK    7  A    between atoms: C_15  and  C_35
REMARK    8  A    between atoms: C_21  and  C_22
REMARK    9  A    between atoms: C_23  and  C_24
REMARK   10  A    between atoms: C_24  and  C_26
REMARK   11  A    between atoms: C_24  and  C_27
REMARK   12  A    between atoms: C_27  and  O_29
REMARK   13  A    between atoms: C_27  and  C_30
REMARK                            x       y       z     vdW  Elec       q    Type
REMARK                         _______ _______ _______ _____ _____    ______ ____
ROOT
ATOM      1  O   LIG A   1     -12.514   7.079 131.718  0.00  0.00    -0.250 OA
ATOM      2  C   LIG A   1     -11.472   6.436 131.588  0.00  0.00    +0.319 C 
ATOM      3  C   LIG A   1     -11.158   5.562 130.411  0.00  0.00    +0.176 C 
ATOM      4  O   LIG A   1     -10.484   6.394 132.536  0.00  0.00    -0.449 OA
ATOM      5  C   LIG A   1      -9.476   5.468 132.137  0.00  0.00    +0.181 C 
ATOM      6  C   LIG A   1     -10.232   4.592 131.146  0.00  0.00    +0.095 C 
ATOM      7  C   LIG A   1      -9.401   3.508 130.540  0.00  0.00    +0.005 C 
ATOM      8  C   LIG A   1      -9.622   2.943 129.342  0.00  0.00    +0.200 C 
ATOM      9  O   LIG A   1      -8.912   1.861 128.852  0.00  0.00    -0.463 OA
ATOM     10  C   LIG A   1      -7.856   1.358 129.610  0.00  0.00    +0.128 C 
ATOM     11  C   LIG A   1      -7.536   1.850 130.821  0.00  0.00    +0.056 C 
ATOM     12  C   LIG A   1      -8.351   2.914 131.406  0.00  0.00    +0.007 C 
ATOM     13  C   LIG A   1      -8.164   3.340 132.679  0.00  0.00    +0.095 C 
ATOM     14 CL   LIG A   1      -6.985   2.698 133.771  0.00  0.00    -0.079 Cl
ATOM     15  C   LIG A   1      -8.228   6.249 131.694  0.00  0.00    +0.065 C 
ATOM     16  C   LIG A   1      -8.970   4.496 133.210  0.00  0.00    +0.218 C 
ATOM     17  O   LIG A   1      -9.168   4.657 134.411  0.00  0.00    -0.287 OA
ENDROOT
BRANCH   3  18
ATOM     18  C   LIG A   1     -10.618   6.348 129.227  0.00  0.00    +0.153 C 
ATOM     19  O   LIG A   1      -9.651   5.933 128.586  0.00  0.00    -0.296 OA
BRANCH  18  20
ATOM     20  C   LIG A   1     -11.305   7.667 128.830  0.00  0.00    +0.081 C 
ATOM     21  C   LIG A   1     -10.272   8.734 128.449  0.00  0.00    +0.018 C 
BRANCH  20  22
ATOM     22  C   LIG A   1     -12.351   7.443 127.709  0.00  0.00    +0.121 C 
ATOM     23  C   LIG A   1     -13.714   6.929 128.173  0.00  0.00    +0.038 C 
BRANCH  22  24
ATOM     24  O   LIG A   1     -11.820   6.512 126.759  0.00  0.00    -0.391 OA
ATOM     25  H   LIG A   1     -10.881   6.354 126.969  0.00  0.00    +0.210 HD
ENDBRANCH  22  24
ENDBRANCH  20  22
ENDBRANCH  18  20
ENDBRANCH   3  18
BRANCH  10  26
ATOM     26  C   LIG A   1      -7.092   0.303 128.982  0.00  0.00    +0.042 C 
ATOM     27  C   LIG A   1      -7.388  -1.005 129.068  0.00  0.00    -0.018 C 
BRANCH  27  28
ATOM     28  C   LIG A   1      -6.583  -2.106 128.403  0.00  0.00    +0.037 C 
ATOM     29  C   LIG A   1      -6.026  -3.059 129.467  0.00  0.00    +0.014 C 
BRANCH  28  30
ATOM     30  C   LIG A   1      -7.439  -2.840 127.336  0.00  0.00    +0.118 C 
ATOM     31  C   LIG A   1      -8.636  -3.579 127.926  0.00  0.00    +0.038 C 
BRANCH  30  32
ATOM     32  O   LIG A   1      -7.933  -1.903 126.374  0.00  0.00    -0.392 OA
ATOM     33  H   LIG A   1      -8.875  -2.098 126.232  0.00  0.00    +0.210 HD
ENDBRANCH  30  32
ENDBRANCH  28  30
ENDBRANCH  27  28
ENDBRANCH  10  26
TORSDOF 8
ENDMDL
MODEL 4
REMARK VINA RESULT:      -7.7      3.611      7.850
REMARK  Name = NuBBE_677
REMARK  13 active torsions:
REMARK  status: ('A' for Active; 'I' for Inactive)
REMARK    1  A    between atoms: C_3  and  C_5
REMARK    2  A    between atoms: C_5  and  C_6
REMARK    3  A    between atoms: C_6  and  C_8
REMARK    4  A    between atoms: C_6  and  C_9
REMARK    5  A    between atoms: C_9  and  O_11
REMARK    6  A    between atoms: C_9  and  C_12
REMARK    7  A    between atoms: C_15  and  C_35
REMARK    8  A    between atoms: C_21  and  C_22
REMARK    9  A    between atoms: C_23  and  C_24
REMARK   10  A    between atoms: C_24  and  C_26
REMARK   11  A    between atoms: C_24  and  C_27
REMARK   12  A    between atoms: C_27  and  O_29
REMARK   13  A    between atoms: C_27  and  C_30
REMARK                            x       y       z     vdW  Elec       q    Type
REMARK                         _______ _______ _______ _____ _____    ______ ____
ROOT
ATOM      1  O   LIG A   1      -5.293  -2.326 125.694  0.00  0.00    -0.250 OA
ATOM      2  C   LIG A   1      -6.028  -1.960 126.611  0.00  0.00    +0.319 C 
ATOM      3  C   LIG A   1      -6.978  -0.803 126.524  0.00  0.00    +0.176 C 
ATOM      4  O   LIG A   1      -6.031  -2.535 127.854  0.00  0.00    -0.449 OA
ATOM      5  C   LIG A   1      -6.901  -1.804 128.717  0.00  0.00    +0.181 C 
ATOM      6  C   LIG A   1      -6.978  -0.455 128.013  0.00  0.00    +0.095 C 
ATOM      7  C   LIG A   1      -7.854   0.538 128.705  0.00  0.00    +0.005 C 
ATOM      8  C   LIG A   1      -8.486   1.561 128.106  0.00  0.00    +0.200 C 
ATOM      9  O   LIG A   1      -9.195   2.537 128.782  0.00  0.00    -0.463 OA
ATOM     10  C   LIG A   1      -9.325   2.430 130.166  0.00  0.00    +0.128 C 
ATOM     11  C   LIG A   1      -8.744   1.443 130.871  0.00  0.00    +0.056 C 
ATOM     12  C   LIG A   1      -7.892   0.471 130.188  0.00  0.00    +0.007 C 
ATOM     13  C   LIG A   1      -7.166  -0.449 130.870  0.00  0.00    +0.095 C 
ATOM     14 CL   LIG A   1      -7.126  -0.593 132.594  0.00  0.00    -0.079 Cl
ATOM     15  C   LIG A   1      -8.174  -2.632 128.959  0.00  0.00    +0.065 C 
ATOM     16  C   LIG A   1      -6.370  -1.483 130.119  0.00  0.00    +0.218 C 
ATOM     17  O   LIG A   1      -5.397  -2.044 130.615  0.00  0.00    -0.287 OA
ENDROOT
BRANCH   3  18
ATOM     18  C   LIG A   1      -8.290  -1.174 125.850  0.00  0.00    +0.153 C 
ATOM     19  O   LIG A   1      -9.194  -0.344 125.738  0.00  0.00    -0.296 OA
BRANCH  18  20
ATOM     20  C   LIG A   1      -8.468  -2.598 125.295  0.00  0.00    +0.081 C 
ATOM     21  C   LIG A   1      -9.683  -3.288 125.928  0.00  0.00    +0.018 C 
BRANCH  20  22
ATOM     22  C   LIG A   1      -8.541  -2.596 123.748  0.00  0.00    +0.121 C 
ATOM     23  C   LIG A   1      -7.462  -1.777 123.039  0.00  0.00    +0.038 C 
BRANCH  22  24
ATOM     24  O   LIG A   1      -9.821  -2.097 123.345  0.00  0.00    -0.391 OA
ATOM     25  H   LIG A   1     -10.298  -1.786 124.136  0.00  0.00    +0.210 HD
ENDBRANCH  22  24
ENDBRANCH  20  22
ENDBRANCH  18  20
ENDBRANCH   3  18
BRANCH  10  26
ATOM     26  C   LIG A   1     -10.174   3.423 130.786  0.00  0.00    +0.042 C 
ATOM     27  C   LIG A   1     -10.604   4.541 130.179  0.00  0.00    -0.018 C 
BRANCH  27  28
ATOM     28  C   LIG A   1     -11.499   5.577 130.835  0.00  0.00    +0.037 C 
ATOM     29  C   LIG A   1     -10.674   6.442 131.796  0.00  0.00    +0.014 C 
BRANCH  28  30
ATOM     30  C   LIG A   1     -12.239   6.419 129.762  0.00  0.00    +0.118 C 
ATOM     31  C   LIG A   1     -12.373   7.892 130.136  0.00  0.00    +0.038 C 
BRANCH  30  32
ATOM     32  O   LIG A   1     -11.542   6.346 128.514  0.00  0.00    -0.392 OA
ATOM     33  H   LIG A   1     -10.926   7.098 128.478  0.00  0.00    +0.210 HD
ENDBRANCH  30  32
ENDBRANCH  28  30
ENDBRANCH  27  28
ENDBRANCH  10  26
TORSDOF 8
ENDMDL
MODEL 5
REMARK VINA RESULT:      -7.5      4.155      7.355
REMARK  Name = NuBBE_677
REMARK  13 active torsions:
REMARK  status: ('A' for Active; 'I' for Inactive)
REMARK    1  A    between atoms: C_3  and  C_5
REMARK    2  A    between atoms: C_5  and  C_6
REMARK    3  A    between atoms: C_6  and  C_8
REMARK    4  A    between atoms: C_6  and  C_9
REMARK    5  A    between atoms: C_9  and  O_11
REMARK    6  A    between atoms: C_9  and  C_12
REMARK    7  A    between atoms: C_15  and  C_35
REMARK    8  A    between atoms: C_21  and  C_22
REMARK    9  A    between atoms: C_23  and  C_24
REMARK   10  A    between atoms: C_24  and  C_26
REMARK   11  A    between atoms: C_24  and  C_27
REMARK   12  A    between atoms: C_27  and  O_29
REMARK   13  A    between atoms: C_27  and  C_30
REMARK                            x       y       z     vdW  Elec       q    Type
REMARK                         _______ _______ _______ _____ _____    ______ ____
ROOT
ATOM      1  O   LIG A   1      -9.124   3.767 134.340  0.00  0.00    -0.250 OA
ATOM      2  C   LIG A   1      -8.597   3.145 133.418  0.00  0.00    +0.319 C 
ATOM      3  C   LIG A   1      -8.806   3.446 131.964  0.00  0.00    +0.176 C 
ATOM      4  O   LIG A   1      -7.790   2.054 133.604  0.00  0.00    -0.449 OA
ATOM      5  C   LIG A   1      -7.444   1.492 132.340  0.00  0.00    +0.181 C 
ATOM      6  C   LIG A   1      -8.553   2.031 131.445  0.00  0.00    +0.095 C 
ATOM      7  C   LIG A   1      -8.440   1.602 130.018  0.00  0.00    +0.005 C 
ATOM      8  C   LIG A   1      -8.931   2.278 128.967  0.00  0.00    +0.200 C 
ATOM      9  O   LIG A   1      -8.920   1.806 127.666  0.00  0.00    -0.463 OA
ATOM     10  C   LIG A   1      -8.306   0.582 127.407  0.00  0.00    +0.128 C 
ATOM     11  C   LIG A   1      -7.771  -0.178 128.379  0.00  0.00    +0.056 C 
ATOM     12  C   LIG A   1      -7.880   0.249 129.773  0.00  0.00    +0.007 C 
ATOM     13  C   LIG A   1      -7.493  -0.549 130.798  0.00  0.00    +0.095 C 
ATOM     14 CL   LIG A   1      -6.850  -2.145 130.618  0.00  0.00    -0.079 Cl
ATOM     15  C   LIG A   1      -5.971   1.815 132.037  0.00  0.00    +0.065 C 
ATOM     16  C   LIG A   1      -7.545  -0.033 132.212  0.00  0.00    +0.218 C 
ATOM     17  O   LIG A   1      -7.625  -0.785 133.179  0.00  0.00    -0.287 OA
ENDROOT
BRANCH   3  18
ATOM     18  C   LIG A   1      -7.925   4.584 131.471  0.00  0.00    +0.153 C 
ATOM     19  O   LIG A   1      -6.866   4.350 130.886  0.00  0.00    -0.296 OA
BRANCH  18  20
ATOM     20  C   LIG A   1      -8.382   6.036 131.701  0.00  0.00    +0.081 C 
ATOM     21  C   LIG A   1      -7.728   6.986 130.690  0.00  0.00    +0.018 C 
BRANCH  20  22
ATOM     22  C   LIG A   1      -9.926   6.150 131.691  0.00  0.00    +0.121 C 
ATOM     23  C   LIG A   1     -10.506   7.155 130.696  0.00  0.00    +0.038 C 
BRANCH  22  24
ATOM     24  O   LIG A   1     -10.372   6.511 133.004  0.00  0.00    -0.391 OA
ATOM     25  H   LIG A   1     -10.118   5.804 133.625  0.00  0.00    +0.210 HD
ENDBRANCH  22  24
ENDBRANCH  20  22
ENDBRANCH  18  20
ENDBRANCH   3  18
BRANCH  10  26
ATOM     26  C   LIG A   1      -8.233   0.210 126.011  0.00  0.00    +0.042 C 
ATOM     27  C   LIG A   1      -8.555  -1.003 125.531  0.00  0.00    -0.018 C 
BRANCH  27  28
ATOM     28  C   LIG A   1      -8.481  -1.386 124.064  0.00  0.00    +0.037 C 
ATOM     29  C   LIG A   1      -7.167  -0.876 123.459  0.00  0.00    +0.014 C 
BRANCH  28  30
ATOM     30  C   LIG A   1      -8.663  -2.917 123.889  0.00  0.00    +0.118 C 
ATOM     31  C   LIG A   1      -8.371  -3.709 125.160  0.00  0.00    +0.038 C 
BRANCH  30  32
ATOM     32  O   LIG A   1     -10.005  -3.210 123.489  0.00  0.00    -0.392 OA
ATOM     33  H   LIG A   1     -10.419  -3.722 124.205  0.00  0.00    +0.210 HD
ENDBRANCH  30  32
ENDBRANCH  28  30
ENDBRANCH  27  28
ENDBRANCH  10  26
TORSDOF 8
ENDMDL
MODEL 6
REMARK VINA RESULT:      -7.4      7.304      9.691
REMARK  Name = NuBBE_677
REMARK  13 active torsions:
REMARK  status: ('A' for Active; 'I' for Inactive)
REMARK    1  A    between atoms: C_3  and  C_5
REMARK    2  A    between atoms: C_5  and  C_6
REMARK    3  A    between atoms: C_6  and  C_8
REMARK    4  A    between atoms: C_6  and  C_9
REMARK    5  A    between atoms: C_9  and  O_11
REMARK    6  A    between atoms: C_9  and  C_12
REMARK    7  A    between atoms: C_15  and  C_35
REMARK    8  A    between atoms: C_21  and  C_22
REMARK    9  A    between atoms: C_23  and  C_24
REMARK   10  A    between atoms: C_24  and  C_26
REMARK   11  A    between atoms: C_24  and  C_27
REMARK   12  A    between atoms: C_27  and  O_29
REMARK   13  A    between atoms: C_27  and  C_30
REMARK                            x       y       z     vdW  Elec       q    Type
REMARK                         _______ _______ _______ _____ _____    ______ ____
ROOT
ATOM      1  O   LIG A   1     -11.306   3.456 130.194  0.00  0.00    -0.250 OA
ATOM      2  C   LIG A   1     -10.318   3.836 130.823  0.00  0.00    +0.319 C 
ATOM      3  C   LIG A   1      -9.597   5.126 130.570  0.00  0.00    +0.176 C 
ATOM      4  O   LIG A   1      -9.715   3.095 131.805  0.00  0.00    -0.449 OA
ATOM      5  C   LIG A   1      -8.532   3.758 132.246  0.00  0.00    +0.181 C 
ATOM      6  C   LIG A   1      -8.225   4.669 131.064  0.00  0.00    +0.095 C 
ATOM      7  C   LIG A   1      -7.008   5.516 131.253  0.00  0.00    +0.005 C 
ATOM      8  C   LIG A   1      -6.790   6.699 130.656  0.00  0.00    +0.200 C 
ATOM      9  O   LIG A   1      -5.607   7.409 130.752  0.00  0.00    -0.463 OA
ATOM     10  C   LIG A   1      -4.594   6.910 131.568  0.00  0.00    +0.128 C 
ATOM     11  C   LIG A   1      -4.704   5.740 132.223  0.00  0.00    +0.056 C 
ATOM     12  C   LIG A   1      -5.898   4.918 132.038  0.00  0.00    +0.007 C 
ATOM     13  C   LIG A   1      -5.994   3.668 132.553  0.00  0.00    +0.095 C 
ATOM     14 CL   LIG A   1      -4.751   2.878 133.461  0.00  0.00    -0.079 Cl
ATOM     15  C   LIG A   1      -8.784   4.351 133.642  0.00  0.00    +0.065 C 
ATOM     16  C   LIG A   1      -7.276   2.892 132.409  0.00  0.00    +0.218 C 
ATOM     17  O   LIG A   1      -7.307   1.666 132.456  0.00  0.00    -0.287 OA
ENDROOT
BRANCH   3  18
ATOM     18  C   LIG A   1     -10.270   6.313 131.244  0.00  0.00    +0.153 C 
ATOM     19  O   LIG A   1     -10.180   6.476 132.461  0.00  0.00    -0.296 OA
BRANCH  18  20
ATOM     20  C   LIG A   1     -11.053   7.317 130.380  0.00  0.00    +0.081 C 
ATOM     21  C   LIG A   1     -10.362   7.539 129.029  0.00  0.00    +0.018 C 
BRANCH  20  22
ATOM     22  C   LIG A   1     -12.531   6.886 130.213  0.00  0.00    +0.121 C 
ATOM     23  C   LIG A   1     -13.293   7.570 129.078  0.00  0.00    +0.038 C 
BRANCH  22  24
ATOM     24  O   LIG A   1     -13.229   7.139 131.438  0.00  0.00    -0.391 OA
ATOM     25  H   LIG A   1     -14.141   6.805 131.352  0.00  0.00    +0.210 HD
ENDBRANCH  22  24
ENDBRANCH  20  22
ENDBRANCH  18  20
ENDBRANCH   3  18
BRANCH  10  26
ATOM     26  C   LIG A   1      -3.435   7.764 131.708  0.00  0.00    +0.042 C 
ATOM     27  C   LIG A   1      -2.664   7.826 132.807  0.00  0.00    -0.018 C 
BRANCH  27  28
ATOM     28  C   LIG A   1      -1.447   8.722 132.945  0.00  0.00    +0.037 C 
ATOM     29  C   LIG A   1      -1.670   9.733 134.076  0.00  0.00    +0.014 C 
BRANCH  28  30
ATOM     30  C   LIG A   1      -0.164   7.872 133.150  0.00  0.00    +0.118 C 
ATOM     31  C   LIG A   1      -0.091   7.210 134.523  0.00  0.00    +0.038 C 
BRANCH  30  32
ATOM     32  O   LIG A   1      -0.096   6.839 132.162  0.00  0.00    -0.392 OA
ATOM     33  H   LIG A   1       0.654   6.263 132.390  0.00  0.00    +0.210 HD
ENDBRANCH  30  32
ENDBRANCH  28  30
ENDBRANCH  27  28
ENDBRANCH  10  26
TORSDOF 8
ENDMDL
MODEL 7
REMARK VINA RESULT:      -7.3      2.533      7.508
REMARK  Name = NuBBE_677
REMARK  13 active torsions:
REMARK  status: ('A' for Active; 'I' for Inactive)
REMARK    1  A    between atoms: C_3  and  C_5
REMARK    2  A    between atoms: C_5  and  C_6
REMARK    3  A    between atoms: C_6  and  C_8
REMARK    4  A    between atoms: C_6  and  C_9
REMARK    5  A    between atoms: C_9  and  O_11
REMARK    6  A    between atoms: C_9  and  C_12
REMARK    7  A    between atoms: C_15  and  C_35
REMARK    8  A    between atoms: C_21  and  C_22
REMARK    9  A    between atoms: C_23  and  C_24
REMARK   10  A    between atoms: C_24  and  C_26
REMARK   11  A    between atoms: C_24  and  C_27
REMARK   12  A    between atoms: C_27  and  O_29
REMARK   13  A    between atoms: C_27  and  C_30
REMARK                            x       y       z     vdW  Elec       q    Type
REMARK                         _______ _______ _______ _____ _____    ______ ____
ROOT
ATOM      1  O   LIG A   1      -8.278  -3.244 129.434  0.00  0.00    -0.250 OA
ATOM      2  C   LIG A   1      -7.968  -2.734 128.357  0.00  0.00    +0.319 C 
ATOM      3  C   LIG A   1      -7.219  -1.443 128.217  0.00  0.00    +0.176 C 
ATOM      4  O   LIG A   1      -8.320  -3.258 127.141  0.00  0.00    -0.449 OA
ATOM      5  C   LIG A   1      -7.918  -2.368 126.102  0.00  0.00    +0.181 C 
ATOM      6  C   LIG A   1      -7.787  -1.049 126.853  0.00  0.00    +0.095 C 
ATOM      7  C   LIG A   1      -7.355   0.095 125.994  0.00  0.00    +0.005 C 
ATOM      8  C   LIG A   1      -6.702   1.185 126.430  0.00  0.00    +0.200 C 
ATOM      9  O   LIG A   1      -6.416   2.285 125.641  0.00  0.00    -0.463 OA
ATOM     10  C   LIG A   1      -6.765   2.247 124.293  0.00  0.00    +0.128 C 
ATOM     11  C   LIG A   1      -7.414   1.204 123.743  0.00  0.00    +0.056 C 
ATOM     12  C   LIG A   1      -7.830   0.085 124.587  0.00  0.00    +0.007 C 
ATOM     13  C   LIG A   1      -8.613  -0.915 124.115  0.00  0.00    +0.095 C 
ATOM     14 CL   LIG A   1      -9.232  -1.005 122.502  0.00  0.00    -0.079 Cl
ATOM     15  C   LIG A   1      -6.708  -2.972 125.370  0.00  0.00    +0.065 C 
ATOM     16  C   LIG A   1      -8.945  -2.089 124.998  0.00  0.00    +0.218 C 
ATOM     17  O   LIG A   1      -9.941  -2.782 124.816  0.00  0.00    -0.287 OA
ENDROOT
BRANCH   3  18
ATOM     18  C   LIG A   1      -5.715  -1.621 128.369  0.00  0.00    +0.153 C 
ATOM     19  O   LIG A   1      -4.943  -1.192 127.511  0.00  0.00    -0.296 OA
BRANCH  18  20
ATOM     20  C   LIG A   1      -5.171  -2.332 129.620  0.00  0.00    +0.081 C 
ATOM     21  C   LIG A   1      -4.183  -3.442 129.238  0.00  0.00    +0.018 C 
BRANCH  20  22
ATOM     22  C   LIG A   1      -4.554  -1.324 130.620  0.00  0.00    +0.121 C 
ATOM     23  C   LIG A   1      -5.549  -0.609 131.535  0.00  0.00    +0.038 C 
BRANCH  22  24
ATOM     24  O   LIG A   1      -3.827  -0.330 129.887  0.00  0.00    -0.391 OA
ATOM     25  H   LIG A   1      -3.860   0.509 130.382  0.00  0.00    +0.210 HD
ENDBRANCH  22  24
ENDBRANCH  20  22
ENDBRANCH  18  20
ENDBRANCH   3  18
BRANCH  10  26
ATOM     26  C   LIG A   1      -6.333   3.384 123.510  0.00  0.00    +0.042 C 
ATOM     27  C   LIG A   1      -6.145   3.363 122.179  0.00  0.00    -0.018 C 
BRANCH  27  28
ATOM     28  C   LIG A   1      -5.696   4.562 121.364  0.00  0.00    +0.037 C 
ATOM     29  C   LIG A   1      -4.232   4.889 121.683  0.00  0.00    +0.014 C 
BRANCH  28  30
ATOM     30  C   LIG A   1      -5.934   4.312 119.850  0.00  0.00    +0.118 C 
ATOM     31  C   LIG A   1      -7.411   4.232 119.476  0.00  0.00    +0.038 C 
BRANCH  30  32
ATOM     32  O   LIG A   1      -5.344   5.364 119.080  0.00  0.00    -0.392 OA
ATOM     33  H   LIG A   1      -4.554   5.670 119.558  0.00  0.00    +0.210 HD
ENDBRANCH  30  32
ENDBRANCH  28  30
ENDBRANCH  27  28
ENDBRANCH  10  26
TORSDOF 8
ENDMDL
MODEL 8
REMARK VINA RESULT:      -7.3      2.596      4.723
REMARK  Name = NuBBE_677
REMARK  13 active torsions:
REMARK  status: ('A' for Active; 'I' for Inactive)
REMARK    1  A    between atoms: C_3  and  C_5
REMARK    2  A    between atoms: C_5  and  C_6
REMARK    3  A    between atoms: C_6  and  C_8
REMARK    4  A    between atoms: C_6  and  C_9
REMARK    5  A    between atoms: C_9  and  O_11
REMARK    6  A    between atoms: C_9  and  C_12
REMARK    7  A    between atoms: C_15  and  C_35
REMARK    8  A    between atoms: C_21  and  C_22
REMARK    9  A    between atoms: C_23  and  C_24
REMARK   10  A    between atoms: C_24  and  C_26
REMARK   11  A    between atoms: C_24  and  C_27
REMARK   12  A    between atoms: C_27  and  O_29
REMARK   13  A    between atoms: C_27  and  C_30
REMARK                            x       y       z     vdW  Elec       q    Type
REMARK                         _______ _______ _______ _____ _____    ______ ____
ROOT
ATOM      1  O   LIG A   1     -10.291   1.585 123.956  0.00  0.00    -0.250 OA
ATOM      2  C   LIG A   1      -9.485   1.313 124.846  0.00  0.00    +0.319 C 
ATOM      3  C   LIG A   1      -8.952  -0.062 125.114  0.00  0.00    +0.176 C 
ATOM      4  O   LIG A   1      -9.013   2.231 125.747  0.00  0.00    -0.449 OA
ATOM      5  C   LIG A   1      -8.199   1.576 126.717  0.00  0.00    +0.181 C 
ATOM      6  C   LIG A   1      -8.681   0.135 126.606  0.00  0.00    +0.095 C 
ATOM      7  C   LIG A   1      -7.977  -0.810 127.525  0.00  0.00    +0.005 C 
ATOM      8  C   LIG A   1      -7.826  -2.127 127.312  0.00  0.00    +0.200 C 
ATOM      9  O   LIG A   1      -7.276  -3.003 128.230  0.00  0.00    -0.463 OA
ATOM     10  C   LIG A   1      -6.783  -2.491 129.429  0.00  0.00    +0.128 C 
ATOM     11  C   LIG A   1      -6.870  -1.186 129.747  0.00  0.00    +0.056 C 
ATOM     12  C   LIG A   1      -7.556  -0.266 128.842  0.00  0.00    +0.007 C 
ATOM     13  C   LIG A   1      -7.801   1.023 129.182  0.00  0.00    +0.095 C 
ATOM     14 CL   LIG A   1      -7.371   1.742 130.696  0.00  0.00    -0.079 Cl
ATOM     15  C   LIG A   1      -6.726   1.929 126.451  0.00  0.00    +0.065 C 
ATOM     16  C   LIG A   1      -8.435   1.955 128.184  0.00  0.00    +0.218 C 
ATOM     17  O   LIG A   1      -9.056   2.956 128.528  0.00  0.00    -0.287 OA
ENDROOT
BRANCH   3  18
ATOM     18  C   LIG A   1      -7.798  -0.430 124.194  0.00  0.00    +0.153 C 
ATOM     19  O   LIG A   1      -7.151   0.445 123.618  0.00  0.00    -0.296 OA
BRANCH  18  20
ATOM     20  C   LIG A   1      -7.439  -1.915 124.004  0.00  0.00    +0.081 C 
ATOM     21  C   LIG A   1      -8.182  -2.512 122.803  0.00  0.00    +0.018 C 
BRANCH  20  22
ATOM     22  C   LIG A   1      -5.907  -2.116 123.899  0.00  0.00    +0.121 C 
ATOM     23  C   LIG A   1      -5.425  -3.564 123.997  0.00  0.00    +0.038 C 
BRANCH  22  24
ATOM     24  O   LIG A   1      -5.268  -1.360 124.935  0.00  0.00    -0.391 OA
ATOM     25  H   LIG A   1      -5.047  -1.962 125.669  0.00  0.00    +0.210 HD
ENDBRANCH  22  24
ENDBRANCH  20  22
ENDBRANCH  18  20
ENDBRANCH   3  18
BRANCH  10  26
ATOM     26  C   LIG A   1      -6.122  -3.450 130.286  0.00  0.00    +0.042 C 
ATOM     27  C   LIG A   1      -6.373  -3.597 131.598  0.00  0.00    -0.018 C 
BRANCH  27  28
ATOM     28  C   LIG A   1      -5.678  -4.608 132.491  0.00  0.00    +0.037 C 
ATOM     29  C   LIG A   1      -4.158  -4.417 132.408  0.00  0.00    +0.014 C 
BRANCH  28  30
ATOM     30  C   LIG A   1      -6.212  -4.511 133.945  0.00  0.00    +0.118 C 
ATOM     31  C   LIG A   1      -7.522  -3.736 134.057  0.00  0.00    +0.038 C 
BRANCH  30  32
ATOM     32  O   LIG A   1      -6.432  -5.821 134.476  0.00  0.00    -0.392 OA
ATOM     33  H   LIG A   1      -5.607  -6.325 134.365  0.00  0.00    +0.210 HD
ENDBRANCH  30  32
ENDBRANCH  28  30
ENDBRANCH  27  28
ENDBRANCH  10  26
TORSDOF 8
ENDMDL
MODEL 9
REMARK VINA RESULT:      -7.2      3.084      6.719
REMARK  Name = NuBBE_677
REMARK  13 active torsions:
REMARK  status: ('A' for Active; 'I' for Inactive)
REMARK    1  A    between atoms: C_3  and  C_5
REMARK    2  A    between atoms: C_5  and  C_6
REMARK    3  A    between atoms: C_6  and  C_8
REMARK    4  A    between atoms: C_6  and  C_9
REMARK    5  A    between atoms: C_9  and  O_11
REMARK    6  A    between atoms: C_9  and  C_12
REMARK    7  A    between atoms: C_15  and  C_35
REMARK    8  A    between atoms: C_21  and  C_22
REMARK    9  A    between atoms: C_23  and  C_24
REMARK   10  A    between atoms: C_24  and  C_26
REMARK   11  A    between atoms: C_24  and  C_27
REMARK   12  A    between atoms: C_27  and  O_29
REMARK   13  A    between atoms: C_27  and  C_30
REMARK                            x       y       z     vdW  Elec       q    Type
REMARK                         _______ _______ _______ _____ _____    ______ ____
ROOT
ATOM      1  O   LIG A   1     -10.003  -2.319 125.755  0.00  0.00    -0.250 OA
ATOM      2  C   LIG A   1      -9.065  -1.539 125.587  0.00  0.00    +0.319 C 
ATOM      3  C   LIG A   1      -8.197  -1.008 126.688  0.00  0.00    +0.176 C 
ATOM      4  O   LIG A   1      -8.730  -1.010 124.369  0.00  0.00    -0.449 OA
ATOM      5  C   LIG A   1      -7.685  -0.053 124.533  0.00  0.00    +0.181 C 
ATOM      6  C   LIG A   1      -7.823   0.308 126.007  0.00  0.00    +0.095 C 
ATOM      7  C   LIG A   1      -6.822   1.313 126.479  0.00  0.00    +0.005 C 
ATOM      8  C   LIG A   1      -6.389   1.437 127.744  0.00  0.00    +0.200 C 
ATOM      9  O   LIG A   1      -5.553   2.448 128.182  0.00  0.00    -0.463 OA
ATOM     10  C   LIG A   1      -5.070   3.365 127.250  0.00  0.00    +0.128 C 
ATOM     11  C   LIG A   1      -5.427   3.333 125.953  0.00  0.00    +0.056 C 
ATOM     12  C   LIG A   1      -6.403   2.345 125.497  0.00  0.00    +0.007 C 
ATOM     13  C   LIG A   1      -6.908   2.366 124.238  0.00  0.00    +0.095 C 
ATOM     14 CL   LIG A   1      -6.500   3.536 123.032  0.00  0.00    -0.079 Cl
ATOM     15  C   LIG A   1      -6.374  -0.650 123.996  0.00  0.00    +0.065 C 
ATOM     16  C   LIG A   1      -7.846   1.277 123.788  0.00  0.00    +0.218 C 
ATOM     17  O   LIG A   1      -8.645   1.442 122.871  0.00  0.00    -0.287 OA
ENDROOT
BRANCH   3  18
ATOM     18  C   LIG A   1      -7.094  -1.979 127.081  0.00  0.00    +0.153 C 
ATOM     19  O   LIG A   1      -6.371  -2.488 126.224  0.00  0.00    -0.296 OA
BRANCH  18  20
ATOM     20  C   LIG A   1      -6.882  -2.305 128.570  0.00  0.00    +0.081 C 
ATOM     21  C   LIG A   1      -7.949  -3.284 129.077  0.00  0.00    +0.018 C 
BRANCH  20  22
ATOM     22  C   LIG A   1      -5.447  -2.821 128.837  0.00  0.00    +0.121 C 
ATOM     23  C   LIG A   1      -5.174  -3.301 130.263  0.00  0.00    +0.038 C 
BRANCH  22  24
ATOM     24  O   LIG A   1      -4.515  -1.778 128.529  0.00  0.00    -0.391 OA
ATOM     25  H   LIG A   1      -4.601  -1.075 129.200  0.00  0.00    +0.210 HD
ENDBRANCH  22  24
ENDBRANCH  20  22
ENDBRANCH  18  20
ENDBRANCH   3  18
BRANCH  10  26
ATOM     26  C   LIG A   1      -4.114   4.322 127.761  0.00  0.00    +0.042 C 
ATOM     27  C   LIG A   1      -4.316   5.096 128.841  0.00  0.00    -0.018 C 
BRANCH  27  28
ATOM     28  C   LIG A   1      -3.306   6.095 129.374  0.00  0.00    +0.037 C 
ATOM     29  C   LIG A   1      -2.354   6.522 128.251  0.00  0.00    +0.014 C 
BRANCH  28  30
ATOM     30  C   LIG A   1      -4.027   7.301 130.035  0.00  0.00    +0.118 C 
ATOM     31  C   LIG A   1      -3.283   7.861 131.243  0.00  0.00    +0.038 C 
BRANCH  30  32
ATOM     32  O   LIG A   1      -4.183   8.360 129.086  0.00  0.00    -0.392 OA
ATOM     33  H   LIG A   1      -3.588   8.175 128.339  0.00  0.00    +0.210 HD
ENDBRANCH  30  32
ENDBRANCH  28  30
ENDBRANCH  27  28
ENDBRANCH  10  26
TORSDOF 8
ENDMDL
