MODEL 1
REMARK VINA RESULT:     -11.6      0.000      0.000
REMARK  Name = NuBBE_438
REMARK  12 active torsions:
REMARK  status: ('A' for Active; 'I' for Inactive)
REMARK    1  A    between atoms: C_1  and  C_2
REMARK    2  A    between atoms: C_3  and  C_4
REMARK    3  A    between atoms: C_8  and  C_44
REMARK    4  A    between atoms: C_8  and  C_45
REMARK    5  A    between atoms: C_9  and  O_10
REMARK    6  A    between atoms: O_10  and  C_11
REMARK    7  A    between atoms: C_11  and  C_12
REMARK    8  A    between atoms: C_13  and  C_14
REMARK    9  A    between atoms: C_23  and  C_24
REMARK   10  A    between atoms: C_30  and  C_33
REMARK   11  A    between atoms: C_36  and  C_38
REMARK   12  A    between atoms: C_39  and  C_41
REMARK                            x       y       z     vdW  Elec       q    Type
REMARK                         _______ _______ _______ _____ _____    ______ ____
ROOT
ATOM      1  C   LIG A   1      -4.497  -1.996 128.833  0.00  0.00    +0.016 C 
ATOM      2  C   LIG A   1      -5.679  -0.994 128.855  0.00  0.00    -0.005 C 
ATOM      3  C   LIG A   1      -5.979  -0.523 130.397  0.00  0.00    -0.019 C 
ATOM      4  C   LIG A   1      -5.966  -1.764 131.354  0.00  0.00    +0.012 C 
ATOM      5  C   LIG A   1      -4.887   0.426 130.979  0.00  0.00    +0.008 C 
ATOM      6  C   LIG A   1      -5.305   1.835 131.384  0.00  0.00    +0.005 C 
ATOM      7  C   LIG A   1      -6.674   1.885 132.079  0.00  0.00    +0.004 C 
ATOM      8  C   LIG A   1      -6.978   3.271 132.824  0.00  0.00    +0.005 C 
ATOM      9  C   LIG A   1      -8.517   3.601 132.932  0.00  0.00    +0.183 C 
ATOM     10  C   LIG A   1      -9.356   2.325 133.014  0.00  0.00    +0.046 C 
ATOM     11  C   LIG A   1      -9.106   1.293 131.900  0.00  0.00    +0.011 C 
ATOM     12  C   LIG A   1      -7.784   1.429 131.102  0.00  0.00    -0.025 C 
ATOM     13  C   LIG A   1      -7.963   2.476 129.948  0.00  0.00    +0.012 C 
ATOM     14  C   LIG A   1      -7.416   0.099 130.326  0.00  0.00    +0.006 C 
ATOM     15  C   LIG A   1      -8.455  -1.026 130.155  0.00  0.00    +0.031 C 
ATOM     16  C   LIG A   1      -8.113  -1.803 128.894  0.00  0.00    -0.026 C 
ATOM     17  C   LIG A   1      -6.952  -1.675 128.207  0.00  0.00    -0.063 C 
ATOM     18  C   LIG A   1      -6.827  -1.963 126.689  0.00  0.00    +0.024 C 
ATOM     19  C   LIG A   1      -6.629  -0.589 125.935  0.00  0.00    -0.025 C 
ATOM     20  C   LIG A   1      -5.320   0.052 126.469  0.00  0.00    +0.008 C 
ATOM     21  C   LIG A   1      -5.272   0.245 127.984  0.00  0.00    +0.012 C 
ATOM     22  C   LIG A   1      -7.799   0.410 126.138  0.00  0.00    +0.012 C 
ATOM     23  C   LIG A   1      -6.441  -0.765 124.404  0.00  0.00    +0.007 C 
ATOM     24  C   LIG A   1      -7.426  -1.733 123.763  0.00  0.00    +0.004 C 
ATOM     25  C   LIG A   1      -7.418  -3.100 124.453  0.00  0.00    -0.011 C 
ATOM     26  C   LIG A   1      -6.081  -3.824 124.243  0.00  0.00    +0.008 C 
ATOM     27  C   LIG A   1      -7.798  -2.960 125.958  0.00  0.00    -0.004 C 
ATOM     28  C   LIG A   1      -9.310  -2.692 126.062  0.00  0.00    +0.008 C 
ATOM     29  C   LIG A   1      -6.464   3.122 134.286  0.00  0.00    +0.015 C 
ATOM     30  C   LIG A   1      -6.189   4.463 132.231  0.00  0.00    +0.015 C 
ENDROOT
BRANCH   9  31
ATOM     31  O   LIG A   1      -9.070   4.335 131.819  0.00  0.00    -0.458 OA
BRANCH  31  32
ATOM     32  C   LIG A   1      -9.534   5.585 131.986  0.00  0.00    +0.332 C 
ATOM     33  O   LIG A   1      -9.280   6.341 132.918  0.00  0.00    -0.246 OA
BRANCH  32  34
ATOM     34  C   LIG A   1     -10.403   5.985 130.860  0.00  0.00    +0.092 C 
ATOM     35  C   LIG A   1     -11.440   6.832 130.986  0.00  0.00    +0.015 C 
BRANCH  35  36
ATOM     36  C   LIG A   1     -12.264   7.304 129.862  0.00  0.00    -0.025 A 
ATOM     37  C   LIG A   1     -12.462   8.684 129.703  0.00  0.00    +0.008 A 
ATOM     38  C   LIG A   1     -13.239   9.177 128.651  0.00  0.00    +0.001 A 
ATOM     39  C   LIG A   1     -13.835   8.296 127.753  0.00  0.00    +0.000 A 
ATOM     40  C   LIG A   1     -13.660   6.923 127.909  0.00  0.00    +0.001 A 
ATOM     41  C   LIG A   1     -12.886   6.429 128.963  0.00  0.00    +0.008 A 
ENDBRANCH  35  36
ENDBRANCH  32  34
ENDBRANCH  31  32
ENDBRANCH   9  31
TORSDOF 4
ENDMDL
MODEL 2
REMARK VINA RESULT:     -10.9      4.279      8.400
REMARK  Name = NuBBE_438
REMARK  12 active torsions:
REMARK  status: ('A' for Active; 'I' for Inactive)
REMARK    1  A    between atoms: C_1  and  C_2
REMARK    2  A    between atoms: C_3  and  C_4
REMARK    3  A    between atoms: C_8  and  C_44
REMARK    4  A    between atoms: C_8  and  C_45
REMARK    5  A    between atoms: C_9  and  O_10
REMARK    6  A    between atoms: O_10  and  C_11
REMARK    7  A    between atoms: C_11  and  C_12
REMARK    8  A    between atoms: C_13  and  C_14
REMARK    9  A    between atoms: C_23  and  C_24
REMARK   10  A    between atoms: C_30  and  C_33
REMARK   11  A    between atoms: C_36  and  C_38
REMARK   12  A    between atoms: C_39  and  C_41
REMARK                            x       y       z     vdW  Elec       q    Type
REMARK                         _______ _______ _______ _____ _____    ______ ____
ROOT
ATOM      1  C   LIG A   1      -6.172  -2.464 132.287  0.00  0.00    +0.016 C 
ATOM      2  C   LIG A   1      -6.465  -1.549 131.070  0.00  0.00    -0.005 C 
ATOM      3  C   LIG A   1      -6.268  -2.394 129.680  0.00  0.00    -0.019 C 
ATOM      4  C   LIG A   1      -4.951  -3.240 129.743  0.00  0.00    +0.012 C 
ATOM      5  C   LIG A   1      -7.392  -3.444 129.428  0.00  0.00    +0.008 C 
ATOM      6  C   LIG A   1      -8.263  -3.277 128.188  0.00  0.00    +0.005 C 
ATOM      7  C   LIG A   1      -7.473  -2.833 126.947  0.00  0.00    +0.004 C 
ATOM      8  C   LIG A   1      -8.278  -2.992 125.570  0.00  0.00    +0.005 C 
ATOM      9  C   LIG A   1      -7.817  -1.975 124.455  0.00  0.00    +0.183 C 
ATOM     10  C   LIG A   1      -6.339  -1.615 124.605  0.00  0.00    +0.046 C 
ATOM     11  C   LIG A   1      -5.916  -1.111 125.996  0.00  0.00    +0.011 C 
ATOM     12  C   LIG A   1      -6.870  -1.426 127.176  0.00  0.00    -0.025 C 
ATOM     13  C   LIG A   1      -8.007  -0.347 127.245  0.00  0.00    +0.012 C 
ATOM     14  C   LIG A   1      -6.153  -1.282 128.580  0.00  0.00    +0.006 C 
ATOM     15  C   LIG A   1      -4.783  -0.585 128.696  0.00  0.00    +0.031 C 
ATOM     16  C   LIG A   1      -4.660  -0.008 130.097  0.00  0.00    -0.026 C 
ATOM     17  C   LIG A   1      -5.502  -0.294 131.119  0.00  0.00    -0.063 C 
ATOM     18  C   LIG A   1      -5.765   0.676 132.299  0.00  0.00    +0.024 C 
ATOM     19  C   LIG A   1      -7.230   1.249 132.158  0.00  0.00    -0.025 C 
ATOM     20  C   LIG A   1      -8.210   0.047 132.223  0.00  0.00    +0.008 C 
ATOM     21  C   LIG A   1      -7.947  -1.052 131.193  0.00  0.00    +0.012 C 
ATOM     22  C   LIG A   1      -7.472   2.026 130.836  0.00  0.00    +0.012 C 
ATOM     23  C   LIG A   1      -7.620   2.198 133.322  0.00  0.00    +0.007 C 
ATOM     24  C   LIG A   1      -6.545   3.216 133.682  0.00  0.00    +0.004 C 
ATOM     25  C   LIG A   1      -5.199   2.549 133.977  0.00  0.00    -0.011 C 
ATOM     26  C   LIG A   1      -5.266   1.696 135.252  0.00  0.00    +0.008 C 
ATOM     27  C   LIG A   1      -4.699   1.745 132.739  0.00  0.00    -0.004 C 
ATOM     28  C   LIG A   1      -4.200   2.738 131.675  0.00  0.00    +0.008 C 
ATOM     29  C   LIG A   1      -7.957  -4.413 125.019  0.00  0.00    +0.015 C 
ATOM     30  C   LIG A   1      -9.813  -2.962 125.758  0.00  0.00    +0.015 C 
ENDROOT
BRANCH   9  31
ATOM     31  O   LIG A   1      -8.507  -0.707 124.453  0.00  0.00    -0.458 OA
BRANCH  31  32
ATOM     32  C   LIG A   1      -9.079  -0.240 123.330  0.00  0.00    +0.332 C 
ATOM     33  O   LIG A   1     -10.132  -0.625 122.831  0.00  0.00    -0.246 OA
BRANCH  32  34
ATOM     34  C   LIG A   1      -8.283   0.859 122.745  0.00  0.00    +0.092 C 
ATOM     35  C   LIG A   1      -7.385   1.578 123.442  0.00  0.00    +0.015 C 
BRANCH  35  36
ATOM     36  C   LIG A   1      -6.527   2.619 122.857  0.00  0.00    -0.025 A 
ATOM     37  C   LIG A   1      -5.984   3.600 123.701  0.00  0.00    +0.008 A 
ATOM     38  C   LIG A   1      -5.165   4.609 123.188  0.00  0.00    +0.001 A 
ATOM     39  C   LIG A   1      -4.887   4.655 121.824  0.00  0.00    +0.000 A 
ATOM     40  C   LIG A   1      -5.433   3.698 120.973  0.00  0.00    +0.001 A 
ATOM     41  C   LIG A   1      -6.255   2.690 121.485  0.00  0.00    +0.008 A 
ENDBRANCH  35  36
ENDBRANCH  32  34
ENDBRANCH  31  32
ENDBRANCH   9  31
TORSDOF 4
ENDMDL
MODEL 3
REMARK VINA RESULT:     -10.7      3.850      9.421
REMARK  Name = NuBBE_438
REMARK  12 active torsions:
REMARK  status: ('A' for Active; 'I' for Inactive)
REMARK    1  A    between atoms: C_1  and  C_2
REMARK    2  A    between atoms: C_3  and  C_4
REMARK    3  A    between atoms: C_8  and  C_44
REMARK    4  A    between atoms: C_8  and  C_45
REMARK    5  A    between atoms: C_9  and  O_10
REMARK    6  A    between atoms: O_10  and  C_11
REMARK    7  A    between atoms: C_11  and  C_12
REMARK    8  A    between atoms: C_13  and  C_14
REMARK    9  A    between atoms: C_23  and  C_24
REMARK   10  A    between atoms: C_30  and  C_33
REMARK   11  A    between atoms: C_36  and  C_38
REMARK   12  A    between atoms: C_39  and  C_41
REMARK                            x       y       z     vdW  Elec       q    Type
REMARK                         _______ _______ _______ _____ _____    ______ ____
ROOT
ATOM      1  C   LIG A   1      -3.481   5.025 127.932  0.00  0.00    +0.016 C 
ATOM      2  C   LIG A   1      -4.553   3.995 128.370  0.00  0.00    -0.005 C 
ATOM      3  C   LIG A   1      -5.299   3.374 127.049  0.00  0.00    -0.019 C 
ATOM      4  C   LIG A   1      -5.656   4.519 126.041  0.00  0.00    +0.012 C 
ATOM      5  C   LIG A   1      -4.397   2.402 126.227  0.00  0.00    +0.008 C 
ATOM      6  C   LIG A   1      -4.845   0.952 126.093  0.00  0.00    +0.005 C 
ATOM      7  C   LIG A   1      -6.359   0.801 125.879  0.00  0.00    +0.004 C 
ATOM      8  C   LIG A   1      -6.806  -0.657 125.385  0.00  0.00    +0.005 C 
ATOM      9  C   LIG A   1      -8.280  -1.034 125.801  0.00  0.00    +0.183 C 
ATOM     10  C   LIG A   1      -9.170   0.207 125.888  0.00  0.00    +0.046 C 
ATOM     11  C   LIG A   1      -8.638   1.345 126.777  0.00  0.00    +0.011 C 
ATOM     12  C   LIG A   1      -7.126   1.319 127.118  0.00  0.00    -0.025 C 
ATOM     13  C   LIG A   1      -6.874   0.380 128.350  0.00  0.00    +0.012 C 
ATOM     14  C   LIG A   1      -6.604   2.724 127.626  0.00  0.00    +0.006 C 
ATOM     15  C   LIG A   1      -7.595   3.834 128.028  0.00  0.00    +0.031 C 
ATOM     16  C   LIG A   1      -6.914   4.735 129.046  0.00  0.00    -0.026 C 
ATOM     17  C   LIG A   1      -5.591   4.701 129.334  0.00  0.00    -0.063 C 
ATOM     18  C   LIG A   1      -5.009   5.134 130.704  0.00  0.00    +0.024 C 
ATOM     19  C   LIG A   1      -4.508   3.843 131.464  0.00  0.00    -0.025 C 
ATOM     20  C   LIG A   1      -3.402   3.188 130.593  0.00  0.00    +0.008 C 
ATOM     21  C   LIG A   1      -3.825   2.855 129.163  0.00  0.00    +0.012 C 
ATOM     22  C   LIG A   1      -5.627   2.800 131.727  0.00  0.00    +0.012 C 
ATOM     23  C   LIG A   1      -3.856   4.167 132.834  0.00  0.00    +0.007 C 
ATOM     24  C   LIG A   1      -4.639   5.165 133.676  0.00  0.00    +0.004 C 
ATOM     25  C   LIG A   1      -4.924   6.461 132.911  0.00  0.00    -0.011 C 
ATOM     26  C   LIG A   1      -3.630   7.236 132.624  0.00  0.00    +0.008 C 
ATOM     27  C   LIG A   1      -5.751   6.171 131.623  0.00  0.00    -0.004 C 
ATOM     28  C   LIG A   1      -7.202   5.856 132.030  0.00  0.00    +0.008 C 
ATOM     29  C   LIG A   1      -6.789  -0.633 123.828  0.00  0.00    +0.015 C 
ATOM     30  C   LIG A   1      -5.807  -1.766 125.788  0.00  0.00    +0.015 C 
ENDROOT
BRANCH   9  31
ATOM     31  O   LIG A   1      -8.413  -1.673 127.088  0.00  0.00    -0.458 OA
BRANCH  31  32
ATOM     32  C   LIG A   1      -8.704  -2.983 127.176  0.00  0.00    +0.332 C 
ATOM     33  O   LIG A   1      -9.264  -3.666 126.324  0.00  0.00    -0.246 OA
BRANCH  32  34
ATOM     34  C   LIG A   1      -8.231  -3.549 128.456  0.00  0.00    +0.092 C 
ATOM     35  C   LIG A   1      -7.106  -3.148 129.074  0.00  0.00    +0.015 C 
BRANCH  35  36
ATOM     36  C   LIG A   1      -6.664  -3.641 130.388  0.00  0.00    -0.025 A 
ATOM     37  C   LIG A   1      -7.181  -3.038 131.544  0.00  0.00    +0.008 A 
ATOM     38  C   LIG A   1      -6.787  -3.473 132.813  0.00  0.00    +0.001 A 
ATOM     39  C   LIG A   1      -5.864  -4.508 132.939  0.00  0.00    +0.000 A 
ATOM     40  C   LIG A   1      -5.331  -5.104 131.799  0.00  0.00    +0.001 A 
ATOM     41  C   LIG A   1      -5.722  -4.668 130.530  0.00  0.00    +0.008 A 
ENDBRANCH  35  36
ENDBRANCH  32  34
ENDBRANCH  31  32
ENDBRANCH   9  31
TORSDOF 4
ENDMDL
MODEL 4
REMARK VINA RESULT:     -10.5      3.475      6.040
REMARK  Name = NuBBE_438
REMARK  12 active torsions:
REMARK  status: ('A' for Active; 'I' for Inactive)
REMARK    1  A    between atoms: C_1  and  C_2
REMARK    2  A    between atoms: C_3  and  C_4
REMARK    3  A    between atoms: C_8  and  C_44
REMARK    4  A    between atoms: C_8  and  C_45
REMARK    5  A    between atoms: C_9  and  O_10
REMARK    6  A    between atoms: O_10  and  C_11
REMARK    7  A    between atoms: C_11  and  C_12
REMARK    8  A    between atoms: C_13  and  C_14
REMARK    9  A    between atoms: C_23  and  C_24
REMARK   10  A    between atoms: C_30  and  C_33
REMARK   11  A    between atoms: C_36  and  C_38
REMARK   12  A    between atoms: C_39  and  C_41
REMARK                            x       y       z     vdW  Elec       q    Type
REMARK                         _______ _______ _______ _____ _____    ______ ____
ROOT
ATOM      1  C   LIG A   1      -7.605  -2.262 129.604  0.00  0.00    +0.016 C 
ATOM      2  C   LIG A   1      -7.062  -0.924 129.040  0.00  0.00    -0.005 C 
ATOM      3  C   LIG A   1      -7.237   0.261 130.159  0.00  0.00    -0.019 C 
ATOM      4  C   LIG A   1      -8.661   0.187 130.806  0.00  0.00    +0.012 C 
ATOM      5  C   LIG A   1      -6.256   0.126 131.363  0.00  0.00    +0.008 C 
ATOM      6  C   LIG A   1      -5.250   1.247 131.595  0.00  0.00    +0.005 C 
ATOM      7  C   LIG A   1      -5.838   2.648 131.365  0.00  0.00    +0.004 C 
ATOM      8  C   LIG A   1      -4.929   3.839 131.936  0.00  0.00    +0.005 C 
ATOM      9  C   LIG A   1      -5.123   5.200 131.163  0.00  0.00    +0.183 C 
ATOM     10  C   LIG A   1      -6.542   5.328 130.606  0.00  0.00    +0.046 C 
ATOM     11  C   LIG A   1      -7.026   4.150 129.744  0.00  0.00    +0.011 C 
ATOM     12  C   LIG A   1      -6.252   2.814 129.883  0.00  0.00    -0.025 C 
ATOM     13  C   LIG A   1      -4.984   2.834 128.959  0.00  0.00    +0.012 C 
ATOM     14  C   LIG A   1      -7.079   1.583 129.331  0.00  0.00    +0.006 C 
ATOM     15  C   LIG A   1      -8.338   1.804 128.470  0.00  0.00    +0.031 C 
ATOM     16  C   LIG A   1      -8.518   0.592 127.570  0.00  0.00    -0.026 C 
ATOM     17  C   LIG A   1      -7.833  -0.570 127.704  0.00  0.00    -0.063 C 
ATOM     18  C   LIG A   1      -7.554  -1.533 126.522  0.00  0.00    +0.024 C 
ATOM     19  C   LIG A   1      -6.015  -1.463 126.175  0.00  0.00    -0.025 C 
ATOM     20  C   LIG A   1      -5.231  -1.918 127.435  0.00  0.00    +0.008 C 
ATOM     21  C   LIG A   1      -5.544  -1.129 128.705  0.00  0.00    +0.012 C 
ATOM     22  C   LIG A   1      -5.531  -0.047 125.764  0.00  0.00    +0.012 C 
ATOM     23  C   LIG A   1      -5.612  -2.432 125.031  0.00  0.00    +0.007 C 
ATOM     24  C   LIG A   1      -6.559  -2.415 123.839  0.00  0.00    +0.004 C 
ATOM     25  C   LIG A   1      -8.010  -2.670 124.255  0.00  0.00    -0.011 C 
ATOM     26  C   LIG A   1      -8.196  -4.099 124.786  0.00  0.00    +0.008 C 
ATOM     27  C   LIG A   1      -8.493  -1.584 125.263  0.00  0.00    -0.004 C 
ATOM     28  C   LIG A   1      -8.733  -0.271 124.495  0.00  0.00    +0.008 C 
ATOM     29  C   LIG A   1      -5.394   4.102 133.399  0.00  0.00    +0.015 C 
ATOM     30  C   LIG A   1      -3.433   3.462 132.043  0.00  0.00    +0.015 C 
ENDROOT
BRANCH   9  31
ATOM     31  O   LIG A   1      -4.261   5.389 130.021  0.00  0.00    -0.458 OA
BRANCH  31  32
ATOM     32  C   LIG A   1      -3.906   6.625 129.627  0.00  0.00    +0.332 C 
ATOM     33  O   LIG A   1      -4.076   7.115 128.515  0.00  0.00    -0.246 OA
BRANCH  32  34
ATOM     34  C   LIG A   1      -3.285   7.378 130.736  0.00  0.00    +0.092 C 
ATOM     35  C   LIG A   1      -2.217   6.940 131.426  0.00  0.00    +0.015 C 
BRANCH  35  36
ATOM     36  C   LIG A   1      -1.537   7.713 132.476  0.00  0.00    -0.025 A 
ATOM     37  C   LIG A   1      -0.377   7.182 133.061  0.00  0.00    +0.008 A 
ATOM     38  C   LIG A   1       0.301   7.881 134.064  0.00  0.00    +0.001 A 
ATOM     39  C   LIG A   1      -0.180   9.113 134.500  0.00  0.00    +0.000 A 
ATOM     40  C   LIG A   1      -1.338   9.643 133.940  0.00  0.00    +0.001 A 
ATOM     41  C   LIG A   1      -2.019   8.943 132.939  0.00  0.00    +0.008 A 
ENDBRANCH  35  36
ENDBRANCH  32  34
ENDBRANCH  31  32
ENDBRANCH   9  31
TORSDOF 4
ENDMDL
MODEL 5
REMARK VINA RESULT:     -10.5      1.658      2.548
REMARK  Name = NuBBE_438
REMARK  12 active torsions:
REMARK  status: ('A' for Active; 'I' for Inactive)
REMARK    1  A    between atoms: C_1  and  C_2
REMARK    2  A    between atoms: C_3  and  C_4
REMARK    3  A    between atoms: C_8  and  C_44
REMARK    4  A    between atoms: C_8  and  C_45
REMARK    5  A    between atoms: C_9  and  O_10
REMARK    6  A    between atoms: O_10  and  C_11
REMARK    7  A    between atoms: C_11  and  C_12
REMARK    8  A    between atoms: C_13  and  C_14
REMARK    9  A    between atoms: C_23  and  C_24
REMARK   10  A    between atoms: C_30  and  C_33
REMARK   11  A    between atoms: C_36  and  C_38
REMARK   12  A    between atoms: C_39  and  C_41
REMARK                            x       y       z     vdW  Elec       q    Type
REMARK                         _______ _______ _______ _____ _____    ______ ____
ROOT
ATOM      1  C   LIG A   1      -4.174   1.598 126.218  0.00  0.00    +0.016 C 
ATOM      2  C   LIG A   1      -5.496   1.886 126.976  0.00  0.00    -0.005 C 
ATOM      3  C   LIG A   1      -5.163   2.356 128.510  0.00  0.00    -0.019 C 
ATOM      4  C   LIG A   1      -4.070   1.426 129.137  0.00  0.00    +0.012 C 
ATOM      5  C   LIG A   1      -4.553   3.788 128.602  0.00  0.00    +0.008 C 
ATOM      6  C   LIG A   1      -5.334   4.851 129.365  0.00  0.00    +0.005 C 
ATOM      7  C   LIG A   1      -5.986   4.320 130.650  0.00  0.00    +0.004 C 
ATOM      8  C   LIG A   1      -6.503   5.468 131.642  0.00  0.00    +0.005 C 
ATOM      9  C   LIG A   1      -7.709   5.012 132.553  0.00  0.00    +0.183 C 
ATOM     10  C   LIG A   1      -7.646   3.515 132.853  0.00  0.00    +0.046 C 
ATOM     11  C   LIG A   1      -7.526   2.595 131.625  0.00  0.00    +0.011 C 
ATOM     12  C   LIG A   1      -7.049   3.249 130.304  0.00  0.00    -0.025 C 
ATOM     13  C   LIG A   1      -8.267   3.905 129.564  0.00  0.00    +0.012 C 
ATOM     14  C   LIG A   1      -6.529   2.178 129.260  0.00  0.00    +0.006 C 
ATOM     15  C   LIG A   1      -6.810   0.677 129.467  0.00  0.00    +0.031 C 
ATOM     16  C   LIG A   1      -6.820   0.002 128.105  0.00  0.00    -0.026 C 
ATOM     17  C   LIG A   1      -6.400   0.587 126.957  0.00  0.00    -0.063 C 
ATOM     18  C   LIG A   1      -6.934   0.191 125.557  0.00  0.00    +0.024 C 
ATOM     19  C   LIG A   1      -7.840   1.367 125.018  0.00  0.00    -0.025 C 
ATOM     20  C   LIG A   1      -6.947   2.634 124.914  0.00  0.00    +0.008 C 
ATOM     21  C   LIG A   1      -6.245   3.032 126.212  0.00  0.00    +0.012 C 
ATOM     22  C   LIG A   1      -9.059   1.682 125.924  0.00  0.00    +0.012 C 
ATOM     23  C   LIG A   1      -8.389   1.098 123.592  0.00  0.00    +0.007 C 
ATOM     24  C   LIG A   1      -8.944  -0.307 123.394  0.00  0.00    +0.004 C 
ATOM     25  C   LIG A   1      -7.926  -1.385 123.777  0.00  0.00    -0.011 C 
ATOM     26  C   LIG A   1      -6.724  -1.383 122.821  0.00  0.00    +0.008 C 
ATOM     27  C   LIG A   1      -7.509  -1.243 125.271  0.00  0.00    -0.004 C 
ATOM     28  C   LIG A   1      -8.667  -1.739 126.156  0.00  0.00    +0.008 C 
ATOM     29  C   LIG A   1      -5.328   5.792 132.611  0.00  0.00    +0.015 C 
ATOM     30  C   LIG A   1      -6.817   6.798 130.919  0.00  0.00    +0.015 C 
ENDROOT
BRANCH   9  31
ATOM     31  O   LIG A   1      -9.021   5.220 131.988  0.00  0.00    -0.458 OA
BRANCH  31  32
ATOM     32  C   LIG A   1      -9.896   6.053 132.577  0.00  0.00    +0.332 C 
ATOM     33  O   LIG A   1      -9.828   6.497 133.719  0.00  0.00    -0.246 OA
BRANCH  32  34
ATOM     34  C   LIG A   1     -10.987   6.420 131.651  0.00  0.00    +0.092 C 
ATOM     35  C   LIG A   1     -10.818   7.218 130.582  0.00  0.00    +0.015 C 
BRANCH  35  36
ATOM     36  C   LIG A   1     -11.873   7.526 129.604  0.00  0.00    -0.025 A 
ATOM     37  C   LIG A   1     -12.484   6.467 128.915  0.00  0.00    +0.008 A 
ATOM     38  C   LIG A   1     -13.489   6.714 127.975  0.00  0.00    +0.001 A 
ATOM     39  C   LIG A   1     -13.887   8.021 127.708  0.00  0.00    +0.000 A 
ATOM     40  C   LIG A   1     -13.278   9.081 128.373  0.00  0.00    +0.001 A 
ATOM     41  C   LIG A   1     -12.270   8.836 129.310  0.00  0.00    +0.008 A 
ENDBRANCH  35  36
ENDBRANCH  32  34
ENDBRANCH  31  32
ENDBRANCH   9  31
TORSDOF 4
ENDMDL
MODEL 6
REMARK VINA RESULT:     -10.4      3.683      8.421
REMARK  Name = NuBBE_438
REMARK  12 active torsions:
REMARK  status: ('A' for Active; 'I' for Inactive)
REMARK    1  A    between atoms: C_1  and  C_2
REMARK    2  A    between atoms: C_3  and  C_4
REMARK    3  A    between atoms: C_8  and  C_44
REMARK    4  A    between atoms: C_8  and  C_45
REMARK    5  A    between atoms: C_9  and  O_10
REMARK    6  A    between atoms: O_10  and  C_11
REMARK    7  A    between atoms: C_11  and  C_12
REMARK    8  A    between atoms: C_13  and  C_14
REMARK    9  A    between atoms: C_23  and  C_24
REMARK   10  A    between atoms: C_30  and  C_33
REMARK   11  A    between atoms: C_36  and  C_38
REMARK   12  A    between atoms: C_39  and  C_41
REMARK                            x       y       z     vdW  Elec       q    Type
REMARK                         _______ _______ _______ _____ _____    ______ ____
ROOT
ATOM      1  C   LIG A   1      -5.445  -0.321 132.698  0.00  0.00    +0.016 C 
ATOM      2  C   LIG A   1      -6.029   0.541 131.550  0.00  0.00    -0.005 C 
ATOM      3  C   LIG A   1      -5.670  -0.143 130.104  0.00  0.00    -0.019 C 
ATOM      4  C   LIG A   1      -4.171  -0.598 130.078  0.00  0.00    +0.012 C 
ATOM      5  C   LIG A   1      -6.476  -1.447 129.818  0.00  0.00    +0.008 C 
ATOM      6  C   LIG A   1      -7.412  -1.461 128.615  0.00  0.00    +0.005 C 
ATOM      7  C   LIG A   1      -6.828  -0.752 127.384  0.00  0.00    +0.004 C 
ATOM      8  C   LIG A   1      -7.618  -1.054 126.022  0.00  0.00    +0.005 C 
ATOM      9  C   LIG A   1      -7.500   0.107 124.960  0.00  0.00    +0.183 C 
ATOM     10  C   LIG A   1      -6.171   0.851 125.091  0.00  0.00    +0.046 C 
ATOM     11  C   LIG A   1      -5.841   1.378 126.499  0.00  0.00    +0.011 C 
ATOM     12  C   LIG A   1      -6.621   0.752 127.683  0.00  0.00    -0.025 C 
ATOM     13  C   LIG A   1      -8.005   1.472 127.851  0.00  0.00    +0.012 C 
ATOM     14  C   LIG A   1      -5.910   1.013 129.073  0.00  0.00    +0.006 C 
ATOM     15  C   LIG A   1      -4.779   2.053 129.194  0.00  0.00    +0.031 C 
ATOM     16  C   LIG A   1      -4.756   2.567 130.625  0.00  0.00    -0.026 C 
ATOM     17  C   LIG A   1      -5.443   2.008 131.650  0.00  0.00    -0.063 C 
ATOM     18  C   LIG A   1      -5.909   2.806 132.895  0.00  0.00    +0.024 C 
ATOM     19  C   LIG A   1      -7.479   2.961 132.830  0.00  0.00    -0.025 C 
ATOM     20  C   LIG A   1      -8.091   1.534 132.847  0.00  0.00    +0.008 C 
ATOM     21  C   LIG A   1      -7.584   0.606 131.744  0.00  0.00    +0.012 C 
ATOM     22  C   LIG A   1      -7.981   3.709 131.566  0.00  0.00    +0.012 C 
ATOM     23  C   LIG A   1      -8.062   3.704 134.061  0.00  0.00    +0.007 C 
ATOM     24  C   LIG A   1      -7.291   4.957 134.454  0.00  0.00    +0.004 C 
ATOM     25  C   LIG A   1      -5.802   4.671 134.670  0.00  0.00    -0.011 C 
ATOM     26  C   LIG A   1      -5.579   3.767 135.891  0.00  0.00    +0.008 C 
ATOM     27  C   LIG A   1      -5.157   4.101 133.371  0.00  0.00    -0.004 C 
ATOM     28  C   LIG A   1      -4.994   5.248 132.357  0.00  0.00    +0.008 C 
ATOM     29  C   LIG A   1      -6.946  -2.301 125.375  0.00  0.00    +0.015 C 
ATOM     30  C   LIG A   1      -9.093  -1.456 126.254  0.00  0.00    +0.015 C 
ENDROOT
BRANCH   9  31
ATOM     31  O   LIG A   1      -8.509   1.135 125.056  0.00  0.00    -0.458 OA
BRANCH  31  32
ATOM     32  C   LIG A   1      -9.434   1.280 124.091  0.00  0.00    +0.332 C 
ATOM     33  O   LIG A   1     -10.621   0.979 124.165  0.00  0.00    -0.246 OA
BRANCH  32  34
ATOM     34  C   LIG A   1      -8.849   1.896 122.882  0.00  0.00    +0.092 C 
ATOM     35  C   LIG A   1      -8.050   2.977 122.911  0.00  0.00    +0.015 C 
BRANCH  35  36
ATOM     36  C   LIG A   1      -7.394   3.553 121.727  0.00  0.00    -0.025 A 
ATOM     37  C   LIG A   1      -6.032   3.881 121.803  0.00  0.00    +0.008 A 
ATOM     38  C   LIG A   1      -5.369   4.433 120.704  0.00  0.00    +0.001 A 
ATOM     39  C   LIG A   1      -6.062   4.672 119.520  0.00  0.00    +0.000 A 
ATOM     40  C   LIG A   1      -7.417   4.366 119.437  0.00  0.00    +0.001 A 
ATOM     41  C   LIG A   1      -8.083   3.817 120.537  0.00  0.00    +0.008 A 
ENDBRANCH  35  36
ENDBRANCH  32  34
ENDBRANCH  31  32
ENDBRANCH   9  31
TORSDOF 4
ENDMDL
MODEL 7
REMARK VINA RESULT:     -10.4      5.170     10.176
REMARK  Name = NuBBE_438
REMARK  12 active torsions:
REMARK  status: ('A' for Active; 'I' for Inactive)
REMARK    1  A    between atoms: C_1  and  C_2
REMARK    2  A    between atoms: C_3  and  C_4
REMARK    3  A    between atoms: C_8  and  C_44
REMARK    4  A    between atoms: C_8  and  C_45
REMARK    5  A    between atoms: C_9  and  O_10
REMARK    6  A    between atoms: O_10  and  C_11
REMARK    7  A    between atoms: C_11  and  C_12
REMARK    8  A    between atoms: C_13  and  C_14
REMARK    9  A    between atoms: C_23  and  C_24
REMARK   10  A    between atoms: C_30  and  C_33
REMARK   11  A    between atoms: C_36  and  C_38
REMARK   12  A    between atoms: C_39  and  C_41
REMARK                            x       y       z     vdW  Elec       q    Type
REMARK                         _______ _______ _______ _____ _____    ______ ____
ROOT
ATOM      1  C   LIG A   1       0.350   7.410 133.430  0.00  0.00    +0.016 C 
ATOM      2  C   LIG A   1      -1.198   7.404 133.512  0.00  0.00    -0.005 C 
ATOM      3  C   LIG A   1      -1.807   6.342 132.422  0.00  0.00    -0.019 C 
ATOM      4  C   LIG A   1      -1.081   6.506 131.043  0.00  0.00    +0.012 C 
ATOM      5  C   LIG A   1      -1.569   4.850 132.809  0.00  0.00    +0.008 C 
ATOM      6  C   LIG A   1      -2.790   3.971 133.052  0.00  0.00    +0.005 C 
ATOM      7  C   LIG A   1      -3.932   4.230 132.058  0.00  0.00    +0.004 C 
ATOM      8  C   LIG A   1      -5.068   3.099 132.059  0.00  0.00    +0.005 C 
ATOM      9  C   LIG A   1      -6.484   3.632 131.613  0.00  0.00    +0.183 C 
ATOM     10  C   LIG A   1      -6.357   4.788 130.620  0.00  0.00    +0.046 C 
ATOM     11  C   LIG A   1      -5.463   5.956 131.072  0.00  0.00    +0.011 C 
ATOM     12  C   LIG A   1      -4.467   5.672 132.225  0.00  0.00    -0.025 C 
ATOM     13  C   LIG A   1      -5.194   5.830 133.607  0.00  0.00    +0.012 C 
ATOM     14  C   LIG A   1      -3.315   6.754 132.300  0.00  0.00    +0.006 C 
ATOM     15  C   LIG A   1      -3.424   8.076 131.515  0.00  0.00    +0.031 C 
ATOM     16  C   LIG A   1      -2.606   9.131 132.243  0.00  0.00    -0.026 C 
ATOM     17  C   LIG A   1      -1.739   8.867 133.250  0.00  0.00    -0.063 C 
ATOM     18  C   LIG A   1      -1.381   9.896 134.353  0.00  0.00    +0.024 C 
ATOM     19  C   LIG A   1      -2.035   9.419 135.710  0.00  0.00    -0.025 C 
ATOM     20  C   LIG A   1      -1.434   8.030 136.055  0.00  0.00    +0.008 C 
ATOM     21  C   LIG A   1      -1.597   6.971 134.965  0.00  0.00    +0.012 C 
ATOM     22  C   LIG A   1      -3.581   9.299 135.651  0.00  0.00    +0.012 C 
ATOM     23  C   LIG A   1      -1.696  10.354 136.902  0.00  0.00    +0.007 C 
ATOM     24  C   LIG A   1      -1.835  11.838 136.588  0.00  0.00    +0.004 C 
ATOM     25  C   LIG A   1      -1.020  12.242 135.356  0.00  0.00    -0.011 C 
ATOM     26  C   LIG A   1       0.487  12.114 135.616  0.00  0.00    +0.008 C 
ATOM     27  C   LIG A   1      -1.486  11.444 134.101  0.00  0.00    -0.004 C 
ATOM     28  C   LIG A   1      -2.842  12.003 133.636  0.00  0.00    +0.008 C 
ATOM     29  C   LIG A   1      -4.652   2.037 130.998  0.00  0.00    +0.015 C 
ATOM     30  C   LIG A   1      -5.154   2.328 133.398  0.00  0.00    +0.015 C 
ENDROOT
BRANCH   9  31
ATOM     31  O   LIG A   1      -7.311   4.149 132.676  0.00  0.00    -0.458 OA
BRANCH  31  32
ATOM     32  C   LIG A   1      -8.540   3.648 132.893  0.00  0.00    +0.332 C 
ATOM     33  O   LIG A   1      -8.823   2.686 133.600  0.00  0.00    -0.246 OA
BRANCH  32  34
ATOM     34  C   LIG A   1      -9.568   4.434 132.180  0.00  0.00    +0.092 C 
ATOM     35  C   LIG A   1      -9.529   5.772 132.058  0.00  0.00    +0.015 C 
BRANCH  35  36
ATOM     36  C   LIG A   1     -10.498   6.561 131.282  0.00  0.00    -0.025 A 
ATOM     37  C   LIG A   1     -11.826   6.629 131.731  0.00  0.00    +0.008 A 
ATOM     38  C   LIG A   1     -12.781   7.365 131.024  0.00  0.00    +0.001 A 
ATOM     39  C   LIG A   1     -12.422   8.032 129.856  0.00  0.00    +0.000 A 
ATOM     40  C   LIG A   1     -11.112   7.959 129.391  0.00  0.00    +0.001 A 
ATOM     41  C   LIG A   1     -10.156   7.221 130.095  0.00  0.00    +0.008 A 
ENDBRANCH  35  36
ENDBRANCH  32  34
ENDBRANCH  31  32
ENDBRANCH   9  31
TORSDOF 4
ENDMDL
MODEL 8
REMARK VINA RESULT:     -10.3      4.734      8.337
REMARK  Name = NuBBE_438
REMARK  12 active torsions:
REMARK  status: ('A' for Active; 'I' for Inactive)
REMARK    1  A    between atoms: C_1  and  C_2
REMARK    2  A    between atoms: C_3  and  C_4
REMARK    3  A    between atoms: C_8  and  C_44
REMARK    4  A    between atoms: C_8  and  C_45
REMARK    5  A    between atoms: C_9  and  O_10
REMARK    6  A    between atoms: O_10  and  C_11
REMARK    7  A    between atoms: C_11  and  C_12
REMARK    8  A    between atoms: C_13  and  C_14
REMARK    9  A    between atoms: C_23  and  C_24
REMARK   10  A    between atoms: C_30  and  C_33
REMARK   11  A    between atoms: C_36  and  C_38
REMARK   12  A    between atoms: C_39  and  C_41
REMARK                            x       y       z     vdW  Elec       q    Type
REMARK                         _______ _______ _______ _____ _____    ______ ____
ROOT
ATOM      1  C   LIG A   1      -6.623  -3.621 132.558  0.00  0.00    +0.016 C 
ATOM      2  C   LIG A   1      -6.425  -2.486 131.521  0.00  0.00    -0.005 C 
ATOM      3  C   LIG A   1      -6.393  -3.117 130.008  0.00  0.00    -0.019 C 
ATOM      4  C   LIG A   1      -5.489  -4.396 129.974  0.00  0.00    +0.012 C 
ATOM      5  C   LIG A   1      -7.786  -3.613 129.514  0.00  0.00    +0.008 C 
ATOM      6  C   LIG A   1      -8.391  -2.941 128.287  0.00  0.00    +0.005 C 
ATOM      7  C   LIG A   1      -7.359  -2.641 127.188  0.00  0.00    +0.004 C 
ATOM      8  C   LIG A   1      -8.006  -2.269 125.770  0.00  0.00    +0.005 C 
ATOM      9  C   LIG A   1      -7.086  -1.342 124.885  0.00  0.00    +0.183 C 
ATOM     10  C   LIG A   1      -5.605  -1.593 125.168  0.00  0.00    +0.046 C 
ATOM     11  C   LIG A   1      -5.187  -1.508 126.647  0.00  0.00    +0.011 C 
ATOM     12  C   LIG A   1      -6.317  -1.619 127.702  0.00  0.00    -0.025 C 
ATOM     13  C   LIG A   1      -6.985  -0.216 127.917  0.00  0.00    +0.012 C 
ATOM     14  C   LIG A   1      -5.759  -1.975 129.140  0.00  0.00    +0.006 C 
ATOM     15  C   LIG A   1      -4.252  -1.872 129.447  0.00  0.00    +0.031 C 
ATOM     16  C   LIG A   1      -4.087  -1.609 130.935  0.00  0.00    -0.026 C 
ATOM     17  C   LIG A   1      -5.084  -1.710 131.847  0.00  0.00    -0.063 C 
ATOM     18  C   LIG A   1      -5.108  -0.908 133.172  0.00  0.00    +0.024 C 
ATOM     19  C   LIG A   1      -6.240   0.189 133.071  0.00  0.00    -0.025 C 
ATOM     20  C   LIG A   1      -7.590  -0.550 132.867  0.00  0.00    +0.008 C 
ATOM     21  C   LIG A   1      -7.629  -1.492 131.664  0.00  0.00    +0.012 C 
ATOM     22  C   LIG A   1      -6.033   1.194 131.907  0.00  0.00    +0.012 C 
ATOM     23  C   LIG A   1      -6.387   1.023 134.372  0.00  0.00    +0.007 C 
ATOM     24  C   LIG A   1      -5.065   1.492 134.964  0.00  0.00    +0.004 C 
ATOM     25  C   LIG A   1      -4.095   0.329 135.193  0.00  0.00    -0.011 C 
ATOM     26  C   LIG A   1      -4.609  -0.621 136.283  0.00  0.00    +0.008 C 
ATOM     27  C   LIG A   1      -3.784  -0.402 133.852  0.00  0.00    -0.004 C 
ATOM     28  C   LIG A   1      -2.843   0.482 133.015  0.00  0.00    +0.008 C 
ATOM     29  C   LIG A   1      -8.163  -3.602 124.980  0.00  0.00    +0.015 C 
ATOM     30  C   LIG A   1      -9.436  -1.692 125.888  0.00  0.00    +0.015 C 
ENDROOT
BRANCH   9  31
ATOM     31  O   LIG A   1      -7.264   0.076 125.086  0.00  0.00    -0.458 OA
BRANCH  31  32
ATOM     32  C   LIG A   1      -6.875   0.956 124.147  0.00  0.00    +0.332 C 
ATOM     33  O   LIG A   1      -7.138   0.910 122.949  0.00  0.00    -0.246 OA
BRANCH  32  34
ATOM     34  C   LIG A   1      -6.083   2.052 124.741  0.00  0.00    +0.092 C 
ATOM     35  C   LIG A   1      -5.360   1.921 125.867  0.00  0.00    +0.015 C 
BRANCH  35  36
ATOM     36  C   LIG A   1      -4.501   2.976 126.427  0.00  0.00    -0.025 A 
ATOM     37  C   LIG A   1      -3.134   2.712 126.602  0.00  0.00    +0.008 A 
ATOM     38  C   LIG A   1      -2.282   3.684 127.132  0.00  0.00    +0.001 A 
ATOM     39  C   LIG A   1      -2.788   4.927 127.502  0.00  0.00    +0.000 A 
ATOM     40  C   LIG A   1      -4.145   5.197 127.349  0.00  0.00    +0.001 A 
ATOM     41  C   LIG A   1      -4.999   4.224 126.822  0.00  0.00    +0.008 A 
ENDBRANCH  35  36
ENDBRANCH  32  34
ENDBRANCH  31  32
ENDBRANCH   9  31
TORSDOF 4
ENDMDL
MODEL 9
REMARK VINA RESULT:     -10.3      3.156      6.791
REMARK  Name = NuBBE_438
REMARK  12 active torsions:
REMARK  status: ('A' for Active; 'I' for Inactive)
REMARK    1  A    between atoms: C_1  and  C_2
REMARK    2  A    between atoms: C_3  and  C_4
REMARK    3  A    between atoms: C_8  and  C_44
REMARK    4  A    between atoms: C_8  and  C_45
REMARK    5  A    between atoms: C_9  and  O_10
REMARK    6  A    between atoms: O_10  and  C_11
REMARK    7  A    between atoms: C_11  and  C_12
REMARK    8  A    between atoms: C_13  and  C_14
REMARK    9  A    between atoms: C_23  and  C_24
REMARK   10  A    between atoms: C_30  and  C_33
REMARK   11  A    between atoms: C_36  and  C_38
REMARK   12  A    between atoms: C_39  and  C_41
REMARK                            x       y       z     vdW  Elec       q    Type
REMARK                         _______ _______ _______ _____ _____    ______ ____
ROOT
ATOM      1  C   LIG A   1      -7.743   2.374 124.838  0.00  0.00    +0.016 C 
ATOM      2  C   LIG A   1      -7.501   1.587 126.152  0.00  0.00    -0.005 C 
ATOM      3  C   LIG A   1      -6.849   2.580 127.281  0.00  0.00    -0.019 C 
ATOM      4  C   LIG A   1      -5.708   3.445 126.647  0.00  0.00    +0.012 C 
ATOM      5  C   LIG A   1      -7.860   3.625 127.846  0.00  0.00    +0.008 C 
ATOM      6  C   LIG A   1      -8.189   3.571 129.333  0.00  0.00    +0.005 C 
ATOM      7  C   LIG A   1      -6.965   3.280 130.215  0.00  0.00    +0.004 C 
ATOM      8  C   LIG A   1      -7.202   3.566 131.774  0.00  0.00    +0.005 C 
ATOM      9  C   LIG A   1      -6.295   2.685 132.718  0.00  0.00    +0.183 C 
ATOM     10  C   LIG A   1      -4.962   2.345 132.051  0.00  0.00    +0.046 C 
ATOM     11  C   LIG A   1      -5.062   1.706 130.655  0.00  0.00    +0.011 C 
ATOM     12  C   LIG A   1      -6.406   1.871 129.902  0.00  0.00    -0.025 C 
ATOM     13  C   LIG A   1      -7.417   0.765 130.367  0.00  0.00    +0.012 C 
ATOM     14  C   LIG A   1      -6.261   1.595 128.350  0.00  0.00    +0.006 C 
ATOM     15  C   LIG A   1      -4.995   0.921 127.786  0.00  0.00    +0.031 C 
ATOM     16  C   LIG A   1      -5.371   0.201 126.501  0.00  0.00    -0.026 C 
ATOM     17  C   LIG A   1      -6.552   0.357 125.854  0.00  0.00    -0.063 C 
ATOM     18  C   LIG A   1      -7.178  -0.740 124.954  0.00  0.00    +0.024 C 
ATOM     19  C   LIG A   1      -8.444  -1.328 125.693  0.00  0.00    -0.025 C 
ATOM     20  C   LIG A   1      -9.449  -0.162 125.897  0.00  0.00    +0.008 C 
ATOM     21  C   LIG A   1      -8.887   1.045 126.646  0.00  0.00    +0.012 C 
ATOM     22  C   LIG A   1      -8.124  -1.965 127.071  0.00  0.00    +0.012 C 
ATOM     23  C   LIG A   1      -9.183  -2.405 124.854  0.00  0.00    +0.007 C 
ATOM     24  C   LIG A   1      -8.261  -3.430 124.207  0.00  0.00    +0.004 C 
ATOM     25  C   LIG A   1      -7.169  -2.767 123.363  0.00  0.00    -0.011 C 
ATOM     26  C   LIG A   1      -7.762  -2.057 122.138  0.00  0.00    +0.008 C 
ATOM     27  C   LIG A   1      -6.291  -1.824 124.241  0.00  0.00    -0.004 C 
ATOM     28  C   LIG A   1      -5.369  -2.687 125.121  0.00  0.00    +0.008 C 
ATOM     29  C   LIG A   1      -6.787   5.045 132.032  0.00  0.00    +0.015 C 
ATOM     30  C   LIG A   1      -8.691   3.481 132.187  0.00  0.00    +0.015 C 
ENDROOT
BRANCH   9  31
ATOM     31  O   LIG A   1      -6.854   1.409 133.096  0.00  0.00    -0.458 OA
BRANCH  31  32
ATOM     32  C   LIG A   1      -6.212   0.611 133.966  0.00  0.00    +0.332 C 
ATOM     33  O   LIG A   1      -5.997   0.844 135.151  0.00  0.00    -0.246 OA
BRANCH  32  34
ATOM     34  C   LIG A   1      -5.796  -0.652 133.322  0.00  0.00    +0.092 C 
ATOM     35  C   LIG A   1      -6.647  -1.653 133.031  0.00  0.00    +0.015 C 
BRANCH  35  36
ATOM     36  C   LIG A   1      -6.266  -2.881 132.317  0.00  0.00    -0.025 A 
ATOM     37  C   LIG A   1      -6.468  -2.945 130.930  0.00  0.00    +0.008 A 
ATOM     38  C   LIG A   1      -6.123  -4.093 130.211  0.00  0.00    +0.001 A 
ATOM     39  C   LIG A   1      -5.581  -5.193 130.872  0.00  0.00    +0.000 A 
ATOM     40  C   LIG A   1      -5.391  -5.148 132.251  0.00  0.00    +0.001 A 
ATOM     41  C   LIG A   1      -5.739  -4.001 132.971  0.00  0.00    +0.008 A 
ENDBRANCH  35  36
ENDBRANCH  32  34
ENDBRANCH  31  32
ENDBRANCH   9  31
TORSDOF 4
ENDMDL
