MODEL 1
REMARK VINA RESULT:      -5.6      0.000      0.000
REMARK  Name = NuBBE_1539
REMARK  6 active torsions:
REMARK  status: ('A' for Active; 'I' for Inactive)
REMARK    1  A    between atoms: C_1  and  C_3
REMARK    2  A    between atoms: C_1  and  C_4
REMARK    3  A    between atoms: C_6  and  C_7
REMARK    4  A    between atoms: C_6  and  C_9
REMARK    5  A    between atoms: C_12  and  C_15
REMARK    6  A    between atoms: C_15  and  C_17
REMARK                            x       y       z     vdW  Elec       q    Type
REMARK                         _______ _______ _______ _____ _____    ______ ____
ROOT
ATOM      1  C   LIG A   1      -6.738  -1.993 125.691  0.00  0.00    +0.024 C 
ATOM      2  C   LIG A   1      -6.566  -2.764 124.322  0.00  0.00    -0.008 C 
ATOM      3  C   LIG A   1      -7.132  -4.200 124.410  0.00  0.00    +0.016 C 
ATOM      4  C   LIG A   1      -7.293  -1.999 123.189  0.00  0.00    +0.012 C 
ATOM      5  C   LIG A   1      -6.806  -0.559 123.029  0.00  0.00    +0.009 C 
ATOM      6  C   LIG A   1      -6.891   0.289 124.316  0.00  0.00    +0.015 C 
ATOM      7  C   LIG A   1      -6.360  -0.492 125.550  0.00  0.00    +0.016 C 
ENDROOT
BRANCH   1   8
ATOM      8  C   LIG A   1      -8.039  -2.221 126.487  0.00  0.00    -0.076 C 
ATOM      9  C   LIG A   1      -9.279  -2.063 126.011  0.00  0.00    +0.007 C 
ATOM     10  C   LIG A   1      -7.876  -2.687 127.920  0.00  0.00    +0.038 C 
ENDBRANCH   1   8
BRANCH   6  11
ATOM     11  C   LIG A   1      -8.197   1.061 124.549  0.00  0.00    -0.077 C 
ATOM     12  C   LIG A   1      -9.091   1.383 123.596  0.00  0.00    +0.007 C 
ATOM     13  C   LIG A   1      -8.411   1.596 125.947  0.00  0.00    +0.038 C 
ENDBRANCH   6  11
BRANCH   2  14
ATOM     14  C   LIG A   1      -5.063  -2.881 123.989  0.00  0.00    -0.027 C 
ATOM     15  C   LIG A   1      -4.425  -3.982 123.560  0.00  0.00    +0.004 C 
ENDBRANCH   2  14
TORSDOF 3
ENDMDL
MODEL 2
REMARK VINA RESULT:      -5.5      1.477      4.189
REMARK  Name = NuBBE_1539
REMARK  6 active torsions:
REMARK  status: ('A' for Active; 'I' for Inactive)
REMARK    1  A    between atoms: C_1  and  C_3
REMARK    2  A    between atoms: C_1  and  C_4
REMARK    3  A    between atoms: C_6  and  C_7
REMARK    4  A    between atoms: C_6  and  C_9
REMARK    5  A    between atoms: C_12  and  C_15
REMARK    6  A    between atoms: C_15  and  C_17
REMARK                            x       y       z     vdW  Elec       q    Type
REMARK                         _______ _______ _______ _____ _____    ______ ____
ROOT
ATOM      1  C   LIG A   1      -6.177  -1.265 126.474  0.00  0.00    +0.024 C 
ATOM      2  C   LIG A   1      -7.449  -1.590 127.354  0.00  0.00    -0.008 C 
ATOM      3  C   LIG A   1      -7.882  -0.364 128.189  0.00  0.00    +0.016 C 
ATOM      4  C   LIG A   1      -8.623  -2.028 126.445  0.00  0.00    +0.012 C 
ATOM      5  C   LIG A   1      -8.286  -3.234 125.569  0.00  0.00    +0.009 C 
ATOM      6  C   LIG A   1      -7.034  -3.050 124.685  0.00  0.00    +0.015 C 
ATOM      7  C   LIG A   1      -5.859  -2.422 125.484  0.00  0.00    +0.016 C 
ENDROOT
BRANCH   1   8
ATOM      8  C   LIG A   1      -6.085   0.132 125.828  0.00  0.00    -0.076 C 
ATOM      9  C   LIG A   1      -6.937   0.626 124.922  0.00  0.00    +0.007 C 
ATOM     10  C   LIG A   1      -4.940   1.011 126.290  0.00  0.00    +0.038 C 
ENDBRANCH   1   8
BRANCH   6  11
ATOM     11  C   LIG A   1      -7.257  -2.461 123.285  0.00  0.00    -0.077 C 
ATOM     12  C   LIG A   1      -6.292  -1.963 122.489  0.00  0.00    +0.007 C 
ATOM     13  C   LIG A   1      -8.696  -2.331 122.842  0.00  0.00    +0.038 C 
ENDBRANCH   6  11
BRANCH   2  14
ATOM     14  C   LIG A   1      -7.107  -2.724 128.343  0.00  0.00    -0.027 C 
ATOM     15  C   LIG A   1      -7.935  -3.266 129.252  0.00  0.00    +0.004 C 
ENDBRANCH   2  14
TORSDOF 3
ENDMDL
MODEL 3
REMARK VINA RESULT:      -5.5      1.619      4.147
REMARK  Name = NuBBE_1539
REMARK  6 active torsions:
REMARK  status: ('A' for Active; 'I' for Inactive)
REMARK    1  A    between atoms: C_1  and  C_3
REMARK    2  A    between atoms: C_1  and  C_4
REMARK    3  A    between atoms: C_6  and  C_7
REMARK    4  A    between atoms: C_6  and  C_9
REMARK    5  A    between atoms: C_12  and  C_15
REMARK    6  A    between atoms: C_15  and  C_17
REMARK                            x       y       z     vdW  Elec       q    Type
REMARK                         _______ _______ _______ _____ _____    ______ ____
ROOT
ATOM      1  C   LIG A   1      -7.669  -0.883 124.809  0.00  0.00    +0.024 C 
ATOM      2  C   LIG A   1      -7.947  -1.793 123.547  0.00  0.00    -0.008 C 
ATOM      3  C   LIG A   1      -6.744  -1.790 122.576  0.00  0.00    +0.016 C 
ATOM      4  C   LIG A   1      -8.237  -3.246 123.996  0.00  0.00    +0.012 C 
ATOM      5  C   LIG A   1      -9.411  -3.350 124.970  0.00  0.00    +0.009 C 
ATOM      6  C   LIG A   1      -9.270  -2.474 126.233  0.00  0.00    +0.015 C 
ATOM      7  C   LIG A   1      -8.784  -1.041 125.882  0.00  0.00    +0.016 C 
ENDROOT
BRANCH   1   8
ATOM      8  C   LIG A   1      -6.246  -0.892 125.404  0.00  0.00    -0.076 C 
ATOM      9  C   LIG A   1      -5.557   0.190 125.784  0.00  0.00    +0.007 C 
ATOM     10  C   LIG A   1      -5.604  -2.252 125.590  0.00  0.00    +0.038 C 
ENDBRANCH   1   8
BRANCH   6  11
ATOM     11  C   LIG A   1      -8.582  -3.115 127.445  0.00  0.00    -0.077 C 
ATOM     12  C   LIG A   1      -8.640  -4.419 127.773  0.00  0.00    +0.007 C 
ATOM     13  C   LIG A   1      -7.892  -2.163 128.396  0.00  0.00    +0.038 C 
ENDBRANCH   6  11
BRANCH   2  14
ATOM     14  C   LIG A   1      -9.163  -1.235 122.776  0.00  0.00    -0.027 C 
ATOM     15  C   LIG A   1      -9.517   0.057 122.675  0.00  0.00    +0.004 C 
ENDBRANCH   2  14
TORSDOF 3
ENDMDL
MODEL 4
REMARK VINA RESULT:      -5.5      1.278      4.201
REMARK  Name = NuBBE_1539
REMARK  6 active torsions:
REMARK  status: ('A' for Active; 'I' for Inactive)
REMARK    1  A    between atoms: C_1  and  C_3
REMARK    2  A    between atoms: C_1  and  C_4
REMARK    3  A    between atoms: C_6  and  C_7
REMARK    4  A    between atoms: C_6  and  C_9
REMARK    5  A    between atoms: C_12  and  C_15
REMARK    6  A    between atoms: C_15  and  C_17
REMARK                            x       y       z     vdW  Elec       q    Type
REMARK                         _______ _______ _______ _____ _____    ______ ____
ROOT
ATOM      1  C   LIG A   1      -6.159  -1.716 125.057  0.00  0.00    +0.024 C 
ATOM      2  C   LIG A   1      -7.200  -0.644 124.541  0.00  0.00    -0.008 C 
ATOM      3  C   LIG A   1      -7.496  -0.828 123.035  0.00  0.00    +0.016 C 
ATOM      4  C   LIG A   1      -8.521  -0.764 125.338  0.00  0.00    +0.012 C 
ATOM      5  C   LIG A   1      -8.328  -0.605 126.846  0.00  0.00    +0.009 C 
ATOM      6  C   LIG A   1      -7.302  -1.579 127.464  0.00  0.00    +0.015 C 
ATOM      7  C   LIG A   1      -6.011  -1.668 126.604  0.00  0.00    +0.016 C 
ENDROOT
BRANCH   1   8
ATOM      8  C   LIG A   1      -6.265  -3.150 124.500  0.00  0.00    -0.076 C 
ATOM      9  C   LIG A   1      -7.376  -3.896 124.483  0.00  0.00    +0.007 C 
ATOM     10  C   LIG A   1      -5.001  -3.735 123.903  0.00  0.00    +0.038 C 
ENDBRANCH   1   8
BRANCH   6  11
ATOM     11  C   LIG A   1      -7.842  -2.925 127.966  0.00  0.00    -0.077 C 
ATOM     12  C   LIG A   1      -8.917  -3.566 127.470  0.00  0.00    +0.007 C 
ATOM     13  C   LIG A   1      -7.169  -3.493 129.195  0.00  0.00    +0.038 C 
ENDBRANCH   6  11
BRANCH   2  14
ATOM     14  C   LIG A   1      -6.607   0.769 124.725  0.00  0.00    -0.027 C 
ATOM     15  C   LIG A   1      -6.918   1.863 124.010  0.00  0.00    +0.004 C 
ENDBRANCH   2  14
TORSDOF 3
ENDMDL
MODEL 5
REMARK VINA RESULT:      -5.4      1.602      3.978
REMARK  Name = NuBBE_1539
REMARK  6 active torsions:
REMARK  status: ('A' for Active; 'I' for Inactive)
REMARK    1  A    between atoms: C_1  and  C_3
REMARK    2  A    between atoms: C_1  and  C_4
REMARK    3  A    between atoms: C_6  and  C_7
REMARK    4  A    between atoms: C_6  and  C_9
REMARK    5  A    between atoms: C_12  and  C_15
REMARK    6  A    between atoms: C_15  and  C_17
REMARK                            x       y       z     vdW  Elec       q    Type
REMARK                         _______ _______ _______ _____ _____    ______ ____
ROOT
ATOM      1  C   LIG A   1      -7.019  -3.361 125.544  0.00  0.00    +0.024 C 
ATOM      2  C   LIG A   1      -7.339  -2.538 126.854  0.00  0.00    -0.008 C 
ATOM      3  C   LIG A   1      -6.046  -2.181 127.623  0.00  0.00    +0.016 C 
ATOM      4  C   LIG A   1      -8.091  -1.235 126.489  0.00  0.00    +0.012 C 
ATOM      5  C   LIG A   1      -9.385  -1.486 125.715  0.00  0.00    +0.009 C 
ATOM      6  C   LIG A   1      -9.205  -2.316 124.426  0.00  0.00    +0.015 C 
ATOM      7  C   LIG A   1      -8.287  -3.547 124.664  0.00  0.00    +0.016 C 
ENDROOT
BRANCH   1   8
ATOM      8  C   LIG A   1      -5.768  -2.968 124.732  0.00  0.00    -0.076 C 
ATOM      9  C   LIG A   1      -4.919  -3.823 124.150  0.00  0.00    +0.007 C 
ATOM     10  C   LIG A   1      -5.510  -1.483 124.573  0.00  0.00    +0.038 C 
ENDBRANCH   1   8
BRANCH   6  11
ATOM     11  C   LIG A   1      -8.923  -1.536 123.135  0.00  0.00    -0.077 C 
ATOM     12  C   LIG A   1      -8.182  -1.982 122.103  0.00  0.00    +0.007 C 
ATOM     13  C   LIG A   1      -9.429  -0.112 123.097  0.00  0.00    +0.038 C 
ENDBRANCH   6  11
BRANCH   2  14
ATOM     14  C   LIG A   1      -8.212  -3.396 127.794  0.00  0.00    -0.027 C 
ATOM     15  C   LIG A   1      -8.354  -3.234 129.120  0.00  0.00    +0.004 C 
ENDBRANCH   2  14
TORSDOF 3
ENDMDL
MODEL 6
REMARK VINA RESULT:      -5.3      1.413      2.832
REMARK  Name = NuBBE_1539
REMARK  6 active torsions:
REMARK  status: ('A' for Active; 'I' for Inactive)
REMARK    1  A    between atoms: C_1  and  C_3
REMARK    2  A    between atoms: C_1  and  C_4
REMARK    3  A    between atoms: C_6  and  C_7
REMARK    4  A    between atoms: C_6  and  C_9
REMARK    5  A    between atoms: C_12  and  C_15
REMARK    6  A    between atoms: C_15  and  C_17
REMARK                            x       y       z     vdW  Elec       q    Type
REMARK                         _______ _______ _______ _____ _____    ______ ____
ROOT
ATOM      1  C   LIG A   1      -8.285  -1.958 125.109  0.00  0.00    +0.024 C 
ATOM      2  C   LIG A   1      -6.742  -1.875 125.438  0.00  0.00    -0.008 C 
ATOM      3  C   LIG A   1      -5.946  -2.963 124.681  0.00  0.00    +0.016 C 
ATOM      4  C   LIG A   1      -6.193  -0.480 125.051  0.00  0.00    +0.012 C 
ATOM      5  C   LIG A   1      -6.926   0.667 125.746  0.00  0.00    +0.009 C 
ATOM      6  C   LIG A   1      -8.454   0.672 125.527  0.00  0.00    +0.015 C 
ATOM      7  C   LIG A   1      -9.060  -0.748 125.703  0.00  0.00    +0.016 C 
ENDROOT
BRANCH   1   8
ATOM      8  C   LIG A   1      -8.696  -2.293 123.661  0.00  0.00    -0.076 C 
ATOM      9  C   LIG A   1      -8.272  -1.652 122.566  0.00  0.00    +0.007 C 
ATOM     10  C   LIG A   1      -9.640  -3.465 123.485  0.00  0.00    +0.038 C 
ENDBRANCH   1   8
BRANCH   6  11
ATOM     11  C   LIG A   1      -8.976   1.456 124.315  0.00  0.00    -0.077 C 
ATOM     12  C   LIG A   1     -10.214   1.352 123.796  0.00  0.00    +0.007 C 
ATOM     13  C   LIG A   1      -7.962   2.314 123.593  0.00  0.00    +0.038 C 
ENDBRANCH   6  11
BRANCH   2  14
ATOM     14  C   LIG A   1      -6.530  -2.116 126.948  0.00  0.00    -0.027 C 
ATOM     15  C   LIG A   1      -5.351  -2.166 127.590  0.00  0.00    +0.004 C 
ENDBRANCH   2  14
TORSDOF 3
ENDMDL
MODEL 7
REMARK VINA RESULT:      -5.2      7.261      8.973
REMARK  Name = NuBBE_1539
REMARK  6 active torsions:
REMARK  status: ('A' for Active; 'I' for Inactive)
REMARK    1  A    between atoms: C_1  and  C_3
REMARK    2  A    between atoms: C_1  and  C_4
REMARK    3  A    between atoms: C_6  and  C_7
REMARK    4  A    between atoms: C_6  and  C_9
REMARK    5  A    between atoms: C_12  and  C_15
REMARK    6  A    between atoms: C_15  and  C_17
REMARK                            x       y       z     vdW  Elec       q    Type
REMARK                         _______ _______ _______ _____ _____    ______ ____
ROOT
ATOM      1  C   LIG A   1      -3.636   4.128 129.548  0.00  0.00    +0.024 C 
ATOM      2  C   LIG A   1      -3.485   4.363 127.993  0.00  0.00    -0.008 C 
ATOM      3  C   LIG A   1      -4.616   3.662 127.206  0.00  0.00    +0.016 C 
ATOM      4  C   LIG A   1      -3.510   5.879 127.681  0.00  0.00    +0.012 C 
ATOM      5  C   LIG A   1      -2.428   6.662 128.424  0.00  0.00    +0.009 C 
ATOM      6  C   LIG A   1      -2.452   6.484 129.957  0.00  0.00    +0.015 C 
ATOM      7  C   LIG A   1      -2.627   4.992 130.355  0.00  0.00    +0.016 C 
ENDROOT
BRANCH   1   8
ATOM      8  C   LIG A   1      -5.059   4.139 130.144  0.00  0.00    -0.076 C 
ATOM      9  C   LIG A   1      -5.901   5.178 130.122  0.00  0.00    +0.007 C 
ATOM     10  C   LIG A   1      -5.531   2.847 130.779  0.00  0.00    +0.038 C 
ENDBRANCH   1   8
BRANCH   6  11
ATOM     11  C   LIG A   1      -3.310   7.474 130.756  0.00  0.00    -0.077 C 
ATOM     12  C   LIG A   1      -3.563   7.396 132.076  0.00  0.00    +0.007 C 
ATOM     13  C   LIG A   1      -4.013   8.543 129.950  0.00  0.00    +0.038 C 
ENDBRANCH   6  11
BRANCH   2  14
ATOM     14  C   LIG A   1      -2.148   3.757 127.515  0.00  0.00    -0.027 C 
ATOM     15  C   LIG A   1      -1.952   3.042 126.395  0.00  0.00    +0.004 C 
ENDBRANCH   2  14
TORSDOF 3
ENDMDL
MODEL 8
REMARK VINA RESULT:      -5.2      1.585      3.775
REMARK  Name = NuBBE_1539
REMARK  6 active torsions:
REMARK  status: ('A' for Active; 'I' for Inactive)
REMARK    1  A    between atoms: C_1  and  C_3
REMARK    2  A    between atoms: C_1  and  C_4
REMARK    3  A    between atoms: C_6  and  C_7
REMARK    4  A    between atoms: C_6  and  C_9
REMARK    5  A    between atoms: C_12  and  C_15
REMARK    6  A    between atoms: C_15  and  C_17
REMARK                            x       y       z     vdW  Elec       q    Type
REMARK                         _______ _______ _______ _____ _____    ______ ____
ROOT
ATOM      1  C   LIG A   1      -8.471  -0.772 124.431  0.00  0.00    +0.024 C 
ATOM      2  C   LIG A   1      -7.514  -1.975 124.065  0.00  0.00    -0.008 C 
ATOM      3  C   LIG A   1      -6.835  -1.756 122.694  0.00  0.00    +0.016 C 
ATOM      4  C   LIG A   1      -6.425  -2.134 125.154  0.00  0.00    +0.012 C 
ATOM      5  C   LIG A   1      -7.002  -2.347 126.553  0.00  0.00    +0.009 C 
ATOM      6  C   LIG A   1      -7.985  -1.248 127.011  0.00  0.00    +0.015 C 
ATOM      7  C   LIG A   1      -8.997  -0.886 125.889  0.00  0.00    +0.016 C 
ENDROOT
BRANCH   1   8
ATOM      8  C   LIG A   1      -8.013   0.653 124.058  0.00  0.00    -0.076 C 
ATOM      9  C   LIG A   1      -6.870   1.227 124.450  0.00  0.00    +0.007 C 
ATOM     10  C   LIG A   1      -8.937   1.441 123.152  0.00  0.00    +0.038 C 
ENDBRANCH   1   8
BRANCH   6  11
ATOM     11  C   LIG A   1      -7.383  -0.049 127.756  0.00  0.00    -0.077 C 
ATOM     12  C   LIG A   1      -8.028   1.101 128.029  0.00  0.00    +0.007 C 
ATOM     13  C   LIG A   1      -5.912  -0.146 128.090  0.00  0.00    +0.038 C 
ENDBRANCH   6  11
BRANCH   2  14
ATOM     14  C   LIG A   1      -8.344  -3.273 123.967  0.00  0.00    -0.027 C 
ATOM     15  C   LIG A   1      -9.566  -3.399 123.422  0.00  0.00    +0.004 C 
ENDBRANCH   2  14
TORSDOF 3
ENDMDL
MODEL 9
REMARK VINA RESULT:      -5.2      1.881      3.690
REMARK  Name = NuBBE_1539
REMARK  6 active torsions:
REMARK  status: ('A' for Active; 'I' for Inactive)
REMARK    1  A    between atoms: C_1  and  C_3
REMARK    2  A    between atoms: C_1  and  C_4
REMARK    3  A    between atoms: C_6  and  C_7
REMARK    4  A    between atoms: C_6  and  C_9
REMARK    5  A    between atoms: C_12  and  C_15
REMARK    6  A    between atoms: C_15  and  C_17
REMARK                            x       y       z     vdW  Elec       q    Type
REMARK                         _______ _______ _______ _____ _____    ______ ____
ROOT
ATOM      1  C   LIG A   1      -8.818  -1.484 125.083  0.00  0.00    +0.024 C 
ATOM      2  C   LIG A   1      -8.212  -2.776 125.763  0.00  0.00    -0.008 C 
ATOM      3  C   LIG A   1      -8.080  -3.935 124.749  0.00  0.00    +0.016 C 
ATOM      4  C   LIG A   1      -6.818  -2.457 126.357  0.00  0.00    +0.012 C 
ATOM      5  C   LIG A   1      -6.845  -1.312 127.369  0.00  0.00    +0.009 C 
ATOM      6  C   LIG A   1      -7.452   0.001 126.830  0.00  0.00    +0.015 C 
ATOM      7  C   LIG A   1      -8.764  -0.259 126.040  0.00  0.00    +0.016 C 
ENDROOT
BRANCH   1   8
ATOM      8  C   LIG A   1      -8.375  -1.152 123.644  0.00  0.00    -0.076 C 
ATOM      9  C   LIG A   1      -7.114  -0.950 123.247  0.00  0.00    +0.007 C 
ATOM     10  C   LIG A   1      -9.475  -1.077 122.603  0.00  0.00    +0.038 C 
ENDBRANCH   1   8
BRANCH   6  11
ATOM     11  C   LIG A   1      -6.482   0.991 126.170  0.00  0.00    -0.077 C 
ATOM     12  C   LIG A   1      -5.141   0.951 126.272  0.00  0.00    +0.007 C 
ATOM     13  C   LIG A   1      -7.115   2.164 125.456  0.00  0.00    +0.038 C 
ENDBRANCH   6  11
BRANCH   2  14
ATOM     14  C   LIG A   1      -9.159  -3.251 126.886  0.00  0.00    -0.027 C 
ATOM     15  C   LIG A   1      -8.838  -4.060 127.909  0.00  0.00    +0.004 C 
ENDBRANCH   2  14
TORSDOF 3
ENDMDL
