MODEL 1
REMARK VINA RESULT:      -5.7      0.000      0.000
REMARK  Name = NuBBE_1744
REMARK  8 active torsions:
REMARK  status: ('A' for Active; 'I' for Inactive)
REMARK    1  A    between atoms: O_1  and  C_2
REMARK    2  A    between atoms: O_1  and  C_3
REMARK    3  A    between atoms: C_4  and  O_5
REMARK    4  A    between atoms: O_5  and  C_6
REMARK    5  A    between atoms: C_8  and  C_13
REMARK    6  A    between atoms: C_10  and  O_11
REMARK    7  A    between atoms: O_11  and  C_12
REMARK    8  A    between atoms: C_13  and  C_14
REMARK                            x       y       z     vdW  Elec       q    Type
REMARK                         _______ _______ _______ _____ _____    ______ ____
ROOT
ATOM      1  C   LIG A   1      -8.854  -0.666 124.133  0.00  0.00    +0.203 A 
ATOM      2  C   LIG A   1      -7.812   0.012 123.446  0.00  0.00    +0.165 A 
ATOM      3  C   LIG A   1      -6.677  -0.694 123.025  0.00  0.00    +0.053 A 
ATOM      4  C   LIG A   1      -6.505  -2.042 123.321  0.00  0.00    -0.036 A 
ATOM      5  C   LIG A   1      -7.516  -2.686 124.022  0.00  0.00    +0.053 A 
ATOM      6  C   LIG A   1      -8.689  -2.035 124.439  0.00  0.00    +0.165 A 
ENDROOT
BRANCH   1   7
ATOM      7  O   LIG A   1      -9.863   0.116 124.656  0.00  0.00    -0.488 OA
ATOM      8  C   LIG A   1      -9.656   0.674 125.951  0.00  0.00    +0.277 C 
ENDBRANCH   1   7
BRANCH   2   9
ATOM      9  O   LIG A   1      -7.950   1.356 123.171  0.00  0.00    -0.491 OA
ATOM     10  C   LIG A   1      -6.911   2.211 123.658  0.00  0.00    +0.277 C 
ENDBRANCH   2   9
BRANCH   6  11
ATOM     11  O   LIG A   1      -9.645  -2.715 125.160  0.00  0.00    -0.491 OA
ATOM     12  C   LIG A   1      -9.182  -3.235 126.414  0.00  0.00    +0.277 C 
ENDBRANCH   6  11
BRANCH   4  13
ATOM     13  C   LIG A   1      -5.247  -2.769 122.947  0.00  0.00    +0.061 C 
BRANCH  13  14
ATOM     14  C   LIG A   1      -4.929  -3.931 123.869  0.00  0.00    -0.030 C 
ATOM     15  C   LIG A   1      -4.260  -5.014 123.545  0.00  0.00    +0.004 C 
ENDBRANCH  13  14
ENDBRANCH   4  13
TORSDOF 5
ENDMDL
MODEL 2
REMARK VINA RESULT:      -5.3      7.914     10.849
REMARK  Name = NuBBE_1744
REMARK  8 active torsions:
REMARK  status: ('A' for Active; 'I' for Inactive)
REMARK    1  A    between atoms: O_1  and  C_2
REMARK    2  A    between atoms: O_1  and  C_3
REMARK    3  A    between atoms: C_4  and  O_5
REMARK    4  A    between atoms: O_5  and  C_6
REMARK    5  A    between atoms: C_8  and  C_13
REMARK    6  A    between atoms: C_10  and  O_11
REMARK    7  A    between atoms: O_11  and  C_12
REMARK    8  A    between atoms: C_13  and  C_14
REMARK                            x       y       z     vdW  Elec       q    Type
REMARK                         _______ _______ _______ _____ _____    ______ ____
ROOT
ATOM      1  C   LIG A   1     -10.888   6.034 129.936  0.00  0.00    +0.203 A 
ATOM      2  C   LIG A   1     -11.367   6.254 131.255  0.00  0.00    +0.165 A 
ATOM      3  C   LIG A   1     -10.483   6.195 132.340  0.00  0.00    +0.053 A 
ATOM      4  C   LIG A   1      -9.145   5.857 132.172  0.00  0.00    -0.036 A 
ATOM      5  C   LIG A   1      -8.694   5.611 130.882  0.00  0.00    +0.053 A 
ATOM      6  C   LIG A   1      -9.530   5.689 129.755  0.00  0.00    +0.165 A 
ENDROOT
BRANCH   1   7
ATOM      7  O   LIG A   1     -11.835   5.950 128.938  0.00  0.00    -0.488 OA
ATOM      8  C   LIG A   1     -12.026   7.099 128.117  0.00  0.00    +0.277 C 
ENDBRANCH   1   7
BRANCH   2   9
ATOM      9  O   LIG A   1     -12.698   6.560 131.444  0.00  0.00    -0.491 OA
ATOM     10  C   LIG A   1     -13.015   7.949 131.576  0.00  0.00    +0.277 C 
ENDBRANCH   2   9
BRANCH   6  11
ATOM     11  O   LIG A   1      -9.038   5.404 128.501  0.00  0.00    -0.491 OA
ATOM     12  C   LIG A   1      -8.063   4.352 128.472  0.00  0.00    +0.277 C 
ENDBRANCH   6  11
BRANCH   4  13
ATOM     13  C   LIG A   1      -8.224   5.705 133.347  0.00  0.00    +0.061 C 
BRANCH  13  14
ATOM     14  C   LIG A   1      -8.495   4.456 134.165  0.00  0.00    -0.030 C 
ATOM     15  C   LIG A   1      -8.682   3.247 133.689  0.00  0.00    +0.004 C 
ENDBRANCH  13  14
ENDBRANCH   4  13
TORSDOF 5
ENDMDL
MODEL 3
REMARK VINA RESULT:      -5.2      1.426      3.282
REMARK  Name = NuBBE_1744
REMARK  8 active torsions:
REMARK  status: ('A' for Active; 'I' for Inactive)
REMARK    1  A    between atoms: O_1  and  C_2
REMARK    2  A    between atoms: O_1  and  C_3
REMARK    3  A    between atoms: C_4  and  O_5
REMARK    4  A    between atoms: O_5  and  C_6
REMARK    5  A    between atoms: C_8  and  C_13
REMARK    6  A    between atoms: C_10  and  O_11
REMARK    7  A    between atoms: O_11  and  C_12
REMARK    8  A    between atoms: C_13  and  C_14
REMARK                            x       y       z     vdW  Elec       q    Type
REMARK                         _______ _______ _______ _____ _____    ______ ____
ROOT
ATOM      1  C   LIG A   1      -8.678  -0.278 124.240  0.00  0.00    +0.203 A 
ATOM      2  C   LIG A   1      -8.634  -1.612 123.755  0.00  0.00    +0.165 A 
ATOM      3  C   LIG A   1      -7.424  -2.320 123.761  0.00  0.00    +0.053 A 
ATOM      4  C   LIG A   1      -6.235  -1.726 124.170  0.00  0.00    -0.036 A 
ATOM      5  C   LIG A   1      -6.284  -0.411 124.611  0.00  0.00    +0.053 A 
ATOM      6  C   LIG A   1      -7.475   0.333 124.658  0.00  0.00    +0.165 A 
ENDROOT
BRANCH   1   7
ATOM      7  O   LIG A   1      -9.860   0.409 124.059  0.00  0.00    -0.488 OA
ATOM      8  C   LIG A   1     -10.055   1.059 122.806  0.00  0.00    +0.277 C 
ENDBRANCH   1   7
BRANCH   2   9
ATOM      9  O   LIG A   1      -9.798  -2.207 123.316  0.00  0.00    -0.491 OA
ATOM     10  C   LIG A   1      -9.846  -3.635 123.393  0.00  0.00    +0.277 C 
ENDBRANCH   2   9
BRANCH   6  11
ATOM     11  O   LIG A   1      -7.461   1.646 125.074  0.00  0.00    -0.491 OA
ATOM     12  C   LIG A   1      -6.841   2.553 124.152  0.00  0.00    +0.277 C 
ENDBRANCH   6  11
BRANCH   4  13
ATOM     13  C   LIG A   1      -4.928  -2.459 124.087  0.00  0.00    +0.061 C 
BRANCH  13  14
ATOM     14  C   LIG A   1      -5.091  -3.957 123.902  0.00  0.00    -0.030 C 
ATOM     15  C   LIG A   1      -4.167  -4.787 123.475  0.00  0.00    +0.004 C 
ENDBRANCH  13  14
ENDBRANCH   4  13
TORSDOF 5
ENDMDL
MODEL 4
REMARK VINA RESULT:      -5.2      1.509      1.554
REMARK  Name = NuBBE_1744
REMARK  8 active torsions:
REMARK  status: ('A' for Active; 'I' for Inactive)
REMARK    1  A    between atoms: O_1  and  C_2
REMARK    2  A    between atoms: O_1  and  C_3
REMARK    3  A    between atoms: C_4  and  O_5
REMARK    4  A    between atoms: O_5  and  C_6
REMARK    5  A    between atoms: C_8  and  C_13
REMARK    6  A    between atoms: C_10  and  O_11
REMARK    7  A    between atoms: O_11  and  C_12
REMARK    8  A    between atoms: C_13  and  C_14
REMARK                            x       y       z     vdW  Elec       q    Type
REMARK                         _______ _______ _______ _____ _____    ______ ____
ROOT
ATOM      1  C   LIG A   1      -8.596  -0.282 124.429  0.00  0.00    +0.203 A 
ATOM      2  C   LIG A   1      -7.368   0.214 124.945  0.00  0.00    +0.165 A 
ATOM      3  C   LIG A   1      -6.176  -0.484 124.709  0.00  0.00    +0.053 A 
ATOM      4  C   LIG A   1      -6.165  -1.699 124.034  0.00  0.00    -0.036 A 
ATOM      5  C   LIG A   1      -7.374  -2.191 123.563  0.00  0.00    +0.053 A 
ATOM      6  C   LIG A   1      -8.593  -1.516 123.742  0.00  0.00    +0.165 A 
ENDROOT
BRANCH   1   7
ATOM      7  O   LIG A   1      -9.744   0.366 124.831  0.00  0.00    -0.488 OA
ATOM      8  C   LIG A   1     -10.262   1.377 123.971  0.00  0.00    +0.277 C 
ENDBRANCH   1   7
BRANCH   2   9
ATOM      9  O   LIG A   1      -7.365   1.402 125.645  0.00  0.00    -0.491 OA
ATOM     10  C   LIG A   1      -6.784   2.527 124.977  0.00  0.00    +0.277 C 
ENDBRANCH   2   9
BRANCH   6  11
ATOM     11  O   LIG A   1      -9.769  -2.066 123.282  0.00  0.00    -0.491 OA
ATOM     12  C   LIG A   1      -9.806  -3.500 123.316  0.00  0.00    +0.277 C 
ENDBRANCH   6  11
BRANCH   4  13
ATOM     13  C   LIG A   1      -4.898  -2.486 123.865  0.00  0.00    +0.061 C 
BRANCH  13  14
ATOM     14  C   LIG A   1      -5.108  -3.986 123.950  0.00  0.00    -0.030 C 
ATOM     15  C   LIG A   1      -4.301  -4.907 123.476  0.00  0.00    +0.004 C 
ENDBRANCH  13  14
ENDBRANCH   4  13
TORSDOF 5
ENDMDL
MODEL 5
REMARK VINA RESULT:      -5.2      4.557      5.974
REMARK  Name = NuBBE_1744
REMARK  8 active torsions:
REMARK  status: ('A' for Active; 'I' for Inactive)
REMARK    1  A    between atoms: O_1  and  C_2
REMARK    2  A    between atoms: O_1  and  C_3
REMARK    3  A    between atoms: C_4  and  O_5
REMARK    4  A    between atoms: O_5  and  C_6
REMARK    5  A    between atoms: C_8  and  C_13
REMARK    6  A    between atoms: C_10  and  O_11
REMARK    7  A    between atoms: O_11  and  C_12
REMARK    8  A    between atoms: C_13  and  C_14
REMARK                            x       y       z     vdW  Elec       q    Type
REMARK                         _______ _______ _______ _____ _____    ______ ____
ROOT
ATOM      1  C   LIG A   1      -7.754   3.938 125.359  0.00  0.00    +0.203 A 
ATOM      2  C   LIG A   1      -6.500   4.528 125.044  0.00  0.00    +0.165 A 
ATOM      3  C   LIG A   1      -5.935   4.338 123.776  0.00  0.00    +0.053 A 
ATOM      4  C   LIG A   1      -6.539   3.524 122.825  0.00  0.00    -0.036 A 
ATOM      5  C   LIG A   1      -7.747   2.925 123.154  0.00  0.00    +0.053 A 
ATOM      6  C   LIG A   1      -8.374   3.109 124.398  0.00  0.00    +0.165 A 
ENDROOT
BRANCH   1   7
ATOM      7  O   LIG A   1      -8.173   4.034 126.669  0.00  0.00    -0.488 OA
ATOM      8  C   LIG A   1      -7.805   2.980 127.554  0.00  0.00    +0.277 C 
ENDBRANCH   1   7
BRANCH   2   9
ATOM      9  O   LIG A   1      -5.872   5.314 125.987  0.00  0.00    -0.491 OA
ATOM     10  C   LIG A   1      -4.694   4.763 126.585  0.00  0.00    +0.277 C 
ENDBRANCH   2   9
BRANCH   6  11
ATOM     11  O   LIG A   1      -9.557   2.465 124.685  0.00  0.00    -0.491 OA
ATOM     12  C   LIG A   1      -9.792   1.282 123.907  0.00  0.00    +0.277 C 
ENDBRANCH   6  11
BRANCH   4  13
ATOM     13  C   LIG A   1      -5.883   3.251 121.503  0.00  0.00    +0.061 C 
BRANCH  13  14
ATOM     14  C   LIG A   1      -5.108   4.437 120.961  0.00  0.00    -0.030 C 
ATOM     15  C   LIG A   1      -5.399   5.122 119.879  0.00  0.00    +0.004 C 
ENDBRANCH  13  14
ENDBRANCH   4  13
TORSDOF 5
ENDMDL
MODEL 6
REMARK VINA RESULT:      -5.0      1.982      2.793
REMARK  Name = NuBBE_1744
REMARK  8 active torsions:
REMARK  status: ('A' for Active; 'I' for Inactive)
REMARK    1  A    between atoms: O_1  and  C_2
REMARK    2  A    between atoms: O_1  and  C_3
REMARK    3  A    between atoms: C_4  and  O_5
REMARK    4  A    between atoms: O_5  and  C_6
REMARK    5  A    between atoms: C_8  and  C_13
REMARK    6  A    between atoms: C_10  and  O_11
REMARK    7  A    between atoms: O_11  and  C_12
REMARK    8  A    between atoms: C_13  and  C_14
REMARK                            x       y       z     vdW  Elec       q    Type
REMARK                         _______ _______ _______ _____ _____    ______ ____
ROOT
ATOM      1  C   LIG A   1      -7.973   0.161 125.302  0.00  0.00    +0.203 A 
ATOM      2  C   LIG A   1      -8.510  -0.510 124.171  0.00  0.00    +0.165 A 
ATOM      3  C   LIG A   1      -7.738  -1.460 123.488  0.00  0.00    +0.053 A 
ATOM      4  C   LIG A   1      -6.421  -1.722 123.847  0.00  0.00    -0.036 A 
ATOM      5  C   LIG A   1      -5.895  -1.037 124.934  0.00  0.00    +0.053 A 
ATOM      6  C   LIG A   1      -6.635  -0.099 125.674  0.00  0.00    +0.165 A 
ENDROOT
BRANCH   1   7
ATOM      7  O   LIG A   1      -8.724   1.191 125.826  0.00  0.00    -0.488 OA
ATOM      8  C   LIG A   1      -8.476   2.503 125.327  0.00  0.00    +0.277 C 
ENDBRANCH   1   7
BRANCH   2   9
ATOM      9  O   LIG A   1      -9.805  -0.239 123.780  0.00  0.00    -0.491 OA
ATOM     10  C   LIG A   1      -9.958   0.464 122.543  0.00  0.00    +0.277 C 
ENDBRANCH   2   9
BRANCH   6  11
ATOM     11  O   LIG A   1      -6.054   0.576 126.724  0.00  0.00    -0.491 OA
ATOM     12  C   LIG A   1      -4.989   1.459 126.343  0.00  0.00    +0.277 C 
ENDBRANCH   6  11
BRANCH   4  13
ATOM     13  C   LIG A   1      -5.571  -2.673 123.056  0.00  0.00    +0.061 C 
BRANCH  13  14
ATOM     14  C   LIG A   1      -4.881  -3.717 123.914  0.00  0.00    -0.030 C 
ATOM     15  C   LIG A   1      -4.233  -4.772 123.476  0.00  0.00    +0.004 C 
ENDBRANCH  13  14
ENDBRANCH   4  13
TORSDOF 5
ENDMDL
MODEL 7
REMARK VINA RESULT:      -5.0      2.636      4.915
REMARK  Name = NuBBE_1744
REMARK  8 active torsions:
REMARK  status: ('A' for Active; 'I' for Inactive)
REMARK    1  A    between atoms: O_1  and  C_2
REMARK    2  A    between atoms: O_1  and  C_3
REMARK    3  A    between atoms: C_4  and  O_5
REMARK    4  A    between atoms: O_5  and  C_6
REMARK    5  A    between atoms: C_8  and  C_13
REMARK    6  A    between atoms: C_10  and  O_11
REMARK    7  A    between atoms: O_11  and  C_12
REMARK    8  A    between atoms: C_13  and  C_14
REMARK                            x       y       z     vdW  Elec       q    Type
REMARK                         _______ _______ _______ _____ _____    ______ ____
ROOT
ATOM      1  C   LIG A   1      -7.440  -1.448 124.925  0.00  0.00    +0.203 A 
ATOM      2  C   LIG A   1      -8.677  -2.136 125.044  0.00  0.00    +0.165 A 
ATOM      3  C   LIG A   1      -9.020  -2.758 126.252  0.00  0.00    +0.053 A 
ATOM      4  C   LIG A   1      -8.146  -2.780 127.333  0.00  0.00    -0.036 A 
ATOM      5  C   LIG A   1      -6.926  -2.133 127.196  0.00  0.00    +0.053 A 
ATOM      6  C   LIG A   1      -6.546  -1.466 126.019  0.00  0.00    +0.165 A 
ENDROOT
BRANCH   1   7
ATOM      7  O   LIG A   1      -7.099  -0.999 123.668  0.00  0.00    -0.488 OA
ATOM      8  C   LIG A   1      -6.321  -1.868 122.849  0.00  0.00    +0.277 C 
ENDBRANCH   1   7
BRANCH   2   9
ATOM      9  O   LIG A   1      -9.544  -2.151 123.971  0.00  0.00    -0.491 OA
ATOM     10  C   LIG A   1      -9.698  -3.407 123.301  0.00  0.00    +0.277 C 
ENDBRANCH   2   9
BRANCH   6  11
ATOM     11  O   LIG A   1      -5.309  -0.868 125.925  0.00  0.00    -0.491 OA
ATOM     12  C   LIG A   1      -5.297   0.526 126.263  0.00  0.00    +0.277 C 
ENDBRANCH   6  11
BRANCH   4  13
ATOM     13  C   LIG A   1      -8.481  -3.526 128.592  0.00  0.00    +0.061 C 
BRANCH  13  14
ATOM     14  C   LIG A   1      -7.371  -3.489 129.625  0.00  0.00    -0.030 C 
ATOM     15  C   LIG A   1      -7.449  -2.964 130.826  0.00  0.00    +0.004 C 
ENDBRANCH  13  14
ENDBRANCH   4  13
TORSDOF 5
ENDMDL
MODEL 8
REMARK VINA RESULT:      -4.9      1.960      2.650
REMARK  Name = NuBBE_1744
REMARK  8 active torsions:
REMARK  status: ('A' for Active; 'I' for Inactive)
REMARK    1  A    between atoms: O_1  and  C_2
REMARK    2  A    between atoms: O_1  and  C_3
REMARK    3  A    between atoms: C_4  and  O_5
REMARK    4  A    between atoms: O_5  and  C_6
REMARK    5  A    between atoms: C_8  and  C_13
REMARK    6  A    between atoms: C_10  and  O_11
REMARK    7  A    between atoms: O_11  and  C_12
REMARK    8  A    between atoms: C_13  and  C_14
REMARK                            x       y       z     vdW  Elec       q    Type
REMARK                         _______ _______ _______ _____ _____    ______ ____
ROOT
ATOM      1  C   LIG A   1      -7.759   0.704 124.820  0.00  0.00    +0.203 A 
ATOM      2  C   LIG A   1      -6.442   0.321 125.189  0.00  0.00    +0.165 A 
ATOM      3  C   LIG A   1      -5.985  -0.974 124.910  0.00  0.00    +0.053 A 
ATOM      4  C   LIG A   1      -6.814  -1.931 124.336  0.00  0.00    -0.036 A 
ATOM      5  C   LIG A   1      -8.110  -1.556 124.010  0.00  0.00    +0.053 A 
ATOM      6  C   LIG A   1      -8.609  -0.262 124.237  0.00  0.00    +0.165 A 
ENDROOT
BRANCH   1   7
ATOM      7  O   LIG A   1      -8.194   1.934 125.264  0.00  0.00    -0.488 OA
ATOM      8  C   LIG A   1      -8.210   3.004 124.322  0.00  0.00    +0.277 C 
ENDBRANCH   1   7
BRANCH   2   9
ATOM      9  O   LIG A   1      -5.615   1.248 125.788  0.00  0.00    -0.491 OA
ATOM     10  C   LIG A   1      -5.322   1.032 127.172  0.00  0.00    +0.277 C 
ENDBRANCH   2   9
BRANCH   6  11
ATOM     11  O   LIG A   1      -9.914   0.048 123.923  0.00  0.00    -0.491 OA
ATOM     12  C   LIG A   1     -10.134   0.356 122.540  0.00  0.00    +0.277 C 
ENDBRANCH   6  11
BRANCH   4  13
ATOM     13  C   LIG A   1      -6.348  -3.342 124.125  0.00  0.00    +0.061 C 
BRANCH  13  14
ATOM     14  C   LIG A   1      -4.915  -3.433 123.635  0.00  0.00    -0.030 C 
ATOM     15  C   LIG A   1      -4.194  -4.528 123.557  0.00  0.00    +0.004 C 
ENDBRANCH  13  14
ENDBRANCH   4  13
TORSDOF 5
ENDMDL
MODEL 9
REMARK VINA RESULT:      -4.9      7.843     10.757
REMARK  Name = NuBBE_1744
REMARK  8 active torsions:
REMARK  status: ('A' for Active; 'I' for Inactive)
REMARK    1  A    between atoms: O_1  and  C_2
REMARK    2  A    between atoms: O_1  and  C_3
REMARK    3  A    between atoms: C_4  and  O_5
REMARK    4  A    between atoms: O_5  and  C_6
REMARK    5  A    between atoms: C_8  and  C_13
REMARK    6  A    between atoms: C_10  and  O_11
REMARK    7  A    between atoms: O_11  and  C_12
REMARK    8  A    between atoms: C_13  and  C_14
REMARK                            x       y       z     vdW  Elec       q    Type
REMARK                         _______ _______ _______ _____ _____    ______ ____
ROOT
ATOM      1  C   LIG A   1     -10.902   6.163 129.533  0.00  0.00    +0.203 A 
ATOM      2  C   LIG A   1      -9.555   5.710 129.559  0.00  0.00    +0.165 A 
ATOM      3  C   LIG A   1      -8.904   5.518 130.785  0.00  0.00    +0.053 A 
ATOM      4  C   LIG A   1      -9.520   5.826 131.993  0.00  0.00    -0.036 A 
ATOM      5  C   LIG A   1     -10.825   6.300 131.954  0.00  0.00    +0.053 A 
ATOM      6  C   LIG A   1     -11.535   6.479 130.755  0.00  0.00    +0.165 A 
ENDROOT
BRANCH   1   7
ATOM      7  O   LIG A   1     -11.425   6.480 128.298  0.00  0.00    -0.488 OA
ATOM      8  C   LIG A   1     -11.149   7.780 127.782  0.00  0.00    +0.277 C 
ENDBRANCH   1   7
BRANCH   2   9
ATOM      9  O   LIG A   1      -8.917   5.429 128.369  0.00  0.00    -0.491 OA
ATOM     10  C   LIG A   1      -8.010   4.322 128.384  0.00  0.00    +0.277 C 
ENDBRANCH   2   9
BRANCH   6  11
ATOM     11  O   LIG A   1     -12.817   6.983 130.773  0.00  0.00    -0.491 OA
ATOM     12  C   LIG A   1     -12.893   8.400 130.982  0.00  0.00    +0.277 C 
ENDBRANCH   6  11
BRANCH   4  13
ATOM     13  C   LIG A   1      -8.786   5.706 133.296  0.00  0.00    +0.061 C 
BRANCH  13  14
ATOM     14  C   LIG A   1      -8.917   4.336 133.934  0.00  0.00    -0.030 C 
ATOM     15  C   LIG A   1      -8.049   3.355 133.842  0.00  0.00    +0.004 C 
ENDBRANCH  13  14
ENDBRANCH   4  13
TORSDOF 5
ENDMDL
