MODEL 1
REMARK VINA RESULT:      -9.2      0.000      0.000
REMARK  Name = NuBBE_439
REMARK  11 active torsions:
REMARK  status: ('A' for Active; 'I' for Inactive)
REMARK    1  A    between atoms: C_1  and  C_2
REMARK    2  A    between atoms: C_2  and  O_3
REMARK    3  A    between atoms: O_3  and  C_4
REMARK    4  A    between atoms: C_7  and  C_8
REMARK    5  A    between atoms: C_13  and  C_14
REMARK    6  A    between atoms: C_19  and  C_20
REMARK    7  A    between atoms: C_23  and  C_24
REMARK    8  A    between atoms: C_26  and  C_28
REMARK    9  A    between atoms: C_28  and  C_29
REMARK   10  A    between atoms: C_36  and  C_37
REMARK   11  A    between atoms: C_36  and  C_38
REMARK                            x       y       z     vdW  Elec       q    Type
REMARK                         _______ _______ _______ _____ _____    ______ ____
ROOT
ATOM      1  C   LIG A   1      -9.920   5.868 130.592  0.00  0.00    +0.182 C 
ATOM      2  C   LIG A   1     -10.828   4.640 130.661  0.00  0.00    +0.046 C 
ATOM      3  C   LIG A   1     -10.060   3.319 130.525  0.00  0.00    +0.011 C 
ATOM      4  C   LIG A   1      -8.896   3.148 131.551  0.00  0.00    -0.025 C 
ATOM      5  C   LIG A   1      -9.540   3.010 132.952  0.00  0.00    +0.012 C 
ATOM      6  C   LIG A   1      -7.969   4.412 131.391  0.00  0.00    +0.004 C 
ATOM      7  C   LIG A   1      -6.676   4.279 132.221  0.00  0.00    +0.005 C 
ATOM      8  C   LIG A   1      -5.861   3.062 131.794  0.00  0.00    +0.008 C 
ATOM      9  C   LIG A   1      -6.623   1.715 131.909  0.00  0.00    -0.023 C 
ATOM     10  C   LIG A   1      -6.814   1.433 133.431  0.00  0.00    +0.012 C 
ATOM     11  C   LIG A   1      -8.020   1.863 131.170  0.00  0.00    +0.002 C 
ATOM     12  C   LIG A   1      -8.789   0.523 131.181  0.00  0.00    +0.005 C 
ATOM     13  C   LIG A   1      -7.973  -0.607 130.547  0.00  0.00    +0.005 C 
ATOM     14  C   LIG A   1      -6.615  -0.811 131.228  0.00  0.00    -0.000 C 
ATOM     15  C   LIG A   1      -5.758   0.505 131.227  0.00  0.00    -0.023 C 
ATOM     16  C   LIG A   1      -5.338   0.893 129.780  0.00  0.00    +0.012 C 
ATOM     17  C   LIG A   1      -4.444   0.239 132.020  0.00  0.00    +0.008 C 
ATOM     18  C   LIG A   1      -3.689  -1.003 131.563  0.00  0.00    +0.007 C 
ATOM     19  C   LIG A   1      -4.533  -2.295 131.631  0.00  0.00    -0.028 C 
ATOM     20  C   LIG A   1      -4.764  -2.702 133.100  0.00  0.00    +0.011 C 
ATOM     21  C   LIG A   1      -5.894  -2.153 130.869  0.00  0.00    +0.006 C 
ATOM     22  C   LIG A   1      -5.539  -2.603 129.421  0.00  0.00    +0.018 C 
ATOM     23  C   LIG A   1      -4.632  -3.820 129.718  0.00  0.00    +0.009 C 
ATOM     24  C   LIG A   1      -3.762  -3.415 130.898  0.00  0.00    +0.007 C 
ATOM     25  C   LIG A   1      -8.678   5.807 131.541  0.00  0.00    +0.005 C 
ATOM     26  C   LIG A   1      -7.720   6.935 131.062  0.00  0.00    +0.015 C 
ATOM     27  C   LIG A   1      -9.040   6.141 133.004  0.00  0.00    +0.015 C 
ENDROOT
BRANCH  22  28
ATOM     28  C   LIG A   1      -6.664  -2.923 128.441  0.00  0.00    -0.076 C 
ATOM     29  C   LIG A   1      -7.813  -3.758 128.944  0.00  0.00    +0.038 C 
ATOM     30  C   LIG A   1      -6.779  -2.414 127.200  0.00  0.00    +0.007 C 
ENDBRANCH  22  28
BRANCH   1  31
ATOM     31  O   LIG A   1     -10.690   7.054 130.908  0.00  0.00    -0.461 OA
BRANCH  31  33
ATOM     32  C   LIG A   1     -10.445   8.006 128.776  0.00  0.00    +0.136 C 
ATOM     33  C   LIG A   1     -11.384   7.630 129.885  0.00  0.00    +0.304 C 
ATOM     34  O   LIG A   1     -12.587   7.808 129.855  0.00  0.00    -0.251 OA
ENDBRANCH  31  33
ENDBRANCH   1  31
TORSDOF 3
ENDMDL
MODEL 2
REMARK VINA RESULT:      -9.1      5.380      8.562
REMARK  Name = NuBBE_439
REMARK  11 active torsions:
REMARK  status: ('A' for Active; 'I' for Inactive)
REMARK    1  A    between atoms: C_1  and  C_2
REMARK    2  A    between atoms: C_2  and  O_3
REMARK    3  A    between atoms: O_3  and  C_4
REMARK    4  A    between atoms: C_7  and  C_8
REMARK    5  A    between atoms: C_13  and  C_14
REMARK    6  A    between atoms: C_19  and  C_20
REMARK    7  A    between atoms: C_23  and  C_24
REMARK    8  A    between atoms: C_26  and  C_28
REMARK    9  A    between atoms: C_28  and  C_29
REMARK   10  A    between atoms: C_36  and  C_37
REMARK   11  A    between atoms: C_36  and  C_38
REMARK                            x       y       z     vdW  Elec       q    Type
REMARK                         _______ _______ _______ _____ _____    ______ ____
ROOT
ATOM      1  C   LIG A   1      -6.047  -4.397 133.549  0.00  0.00    +0.182 C 
ATOM      2  C   LIG A   1      -4.731  -4.432 132.774  0.00  0.00    +0.046 C 
ATOM      3  C   LIG A   1      -4.889  -4.019 131.305  0.00  0.00    +0.011 C 
ATOM      4  C   LIG A   1      -5.561  -2.624 131.102  0.00  0.00    -0.025 C 
ATOM      5  C   LIG A   1      -4.573  -1.560 131.637  0.00  0.00    +0.012 C 
ATOM      6  C   LIG A   1      -6.934  -2.673 131.875  0.00  0.00    +0.004 C 
ATOM      7  C   LIG A   1      -7.785  -1.417 131.602  0.00  0.00    +0.005 C 
ATOM      8  C   LIG A   1      -8.105  -1.271 130.118  0.00  0.00    +0.008 C 
ATOM      9  C   LIG A   1      -6.854  -1.187 129.204  0.00  0.00    -0.023 C 
ATOM     10  C   LIG A   1      -6.168   0.182 129.501  0.00  0.00    +0.012 C 
ATOM     11  C   LIG A   1      -5.894  -2.402 129.553  0.00  0.00    +0.002 C 
ATOM     12  C   LIG A   1      -4.667  -2.415 128.614  0.00  0.00    +0.005 C 
ATOM     13  C   LIG A   1      -5.079  -2.474 127.140  0.00  0.00    +0.005 C 
ATOM     14  C   LIG A   1      -5.997  -1.316 126.734  0.00  0.00    -0.000 C 
ATOM     15  C   LIG A   1      -7.288  -1.256 127.627  0.00  0.00    -0.023 C 
ATOM     16  C   LIG A   1      -8.198  -2.492 127.373  0.00  0.00    +0.012 C 
ATOM     17  C   LIG A   1      -8.114   0.000 127.217  0.00  0.00    +0.008 C 
ATOM     18  C   LIG A   1      -8.378   0.102 125.719  0.00  0.00    +0.007 C 
ATOM     19  C   LIG A   1      -7.091   0.102 124.867  0.00  0.00    -0.028 C 
ATOM     20  C   LIG A   1      -6.332   1.432 125.049  0.00  0.00    +0.011 C 
ATOM     21  C   LIG A   1      -6.165  -1.119 125.192  0.00  0.00    +0.006 C 
ATOM     22  C   LIG A   1      -6.672  -2.219 124.212  0.00  0.00    +0.018 C 
ATOM     23  C   LIG A   1      -6.880  -1.380 122.929  0.00  0.00    +0.009 C 
ATOM     24  C   LIG A   1      -7.493  -0.065 123.384  0.00  0.00    +0.007 C 
ATOM     25  C   LIG A   1      -6.853  -3.066 133.395  0.00  0.00    +0.005 C 
ATOM     26  C   LIG A   1      -8.282  -3.367 133.934  0.00  0.00    +0.015 C 
ATOM     27  C   LIG A   1      -6.289  -1.932 134.278  0.00  0.00    +0.015 C 
ENDROOT
BRANCH  22  28
ATOM     28  C   LIG A   1      -5.819  -3.462 123.979  0.00  0.00    -0.076 C 
ATOM     29  C   LIG A   1      -4.432  -3.266 123.424  0.00  0.00    +0.038 C 
ATOM     30  C   LIG A   1      -6.154  -4.713 124.349  0.00  0.00    +0.007 C 
ENDBRANCH  22  28
BRANCH   1  31
ATOM     31  O   LIG A   1      -5.784  -4.622 134.956  0.00  0.00    -0.461 OA
BRANCH  31  33
ATOM     32  C   LIG A   1      -7.196  -6.301 135.792  0.00  0.00    +0.136 C 
ATOM     33  C   LIG A   1      -5.802  -5.915 135.389  0.00  0.00    +0.304 C 
ATOM     34  O   LIG A   1      -4.844  -6.662 135.436  0.00  0.00    -0.251 OA
ENDBRANCH  31  33
ENDBRANCH   1  31
TORSDOF 3
ENDMDL
MODEL 3
REMARK VINA RESULT:      -8.9      4.661      8.269
REMARK  Name = NuBBE_439
REMARK  11 active torsions:
REMARK  status: ('A' for Active; 'I' for Inactive)
REMARK    1  A    between atoms: C_1  and  C_2
REMARK    2  A    between atoms: C_2  and  O_3
REMARK    3  A    between atoms: O_3  and  C_4
REMARK    4  A    between atoms: C_7  and  C_8
REMARK    5  A    between atoms: C_13  and  C_14
REMARK    6  A    between atoms: C_19  and  C_20
REMARK    7  A    between atoms: C_23  and  C_24
REMARK    8  A    between atoms: C_26  and  C_28
REMARK    9  A    between atoms: C_28  and  C_29
REMARK   10  A    between atoms: C_36  and  C_37
REMARK   11  A    between atoms: C_36  and  C_38
REMARK                            x       y       z     vdW  Elec       q    Type
REMARK                         _______ _______ _______ _____ _____    ______ ____
ROOT
ATOM      1  C   LIG A   1      -8.062  -0.598 125.763  0.00  0.00    +0.182 C 
ATOM      2  C   LIG A   1      -9.098   0.385 126.308  0.00  0.00    +0.046 C 
ATOM      3  C   LIG A   1      -8.511   1.372 127.325  0.00  0.00    +0.011 C 
ATOM      4  C   LIG A   1      -7.278   2.173 126.798  0.00  0.00    -0.025 C 
ATOM      5  C   LIG A   1      -7.790   3.116 125.683  0.00  0.00    +0.012 C 
ATOM      6  C   LIG A   1      -6.228   1.106 126.306  0.00  0.00    +0.004 C 
ATOM      7  C   LIG A   1      -4.884   1.762 125.930  0.00  0.00    +0.005 C 
ATOM      8  C   LIG A   1      -4.266   2.491 127.119  0.00  0.00    +0.008 C 
ATOM      9  C   LIG A   1      -5.168   3.601 127.722  0.00  0.00    -0.023 C 
ATOM     10  C   LIG A   1      -5.238   4.748 126.667  0.00  0.00    +0.012 C 
ATOM     11  C   LIG A   1      -6.604   2.986 128.002  0.00  0.00    +0.002 C 
ATOM     12  C   LIG A   1      -7.522   4.027 128.680  0.00  0.00    +0.005 C 
ATOM     13  C   LIG A   1      -6.913   4.561 129.981  0.00  0.00    +0.005 C 
ATOM     14  C   LIG A   1      -5.528   5.184 129.775  0.00  0.00    -0.000 C 
ATOM     15  C   LIG A   1      -4.525   4.170 129.115  0.00  0.00    -0.023 C 
ATOM     16  C   LIG A   1      -4.208   2.994 130.082  0.00  0.00    +0.012 C 
ATOM     17  C   LIG A   1      -3.179   4.909 128.851  0.00  0.00    +0.008 C 
ATOM     18  C   LIG A   1      -2.627   5.638 130.070  0.00  0.00    +0.007 C 
ATOM     19  C   LIG A   1      -3.608   6.673 130.663  0.00  0.00    -0.028 C 
ATOM     20  C   LIG A   1      -3.738   7.885 129.719  0.00  0.00    +0.011 C 
ATOM     21  C   LIG A   1      -5.011   6.050 130.970  0.00  0.00    +0.006 C 
ATOM     22  C   LIG A   1      -4.859   5.533 132.432  0.00  0.00    +0.018 C 
ATOM     23  C   LIG A   1      -4.078   6.708 133.066  0.00  0.00    +0.009 C 
ATOM     24  C   LIG A   1      -3.053   7.137 132.029  0.00  0.00    +0.007 C 
ATOM     25  C   LIG A   1      -6.748   0.071 125.244  0.00  0.00    +0.005 C 
ATOM     26  C   LIG A   1      -5.715  -1.082 125.088  0.00  0.00    +0.015 C 
ATOM     27  C   LIG A   1      -6.919   0.689 123.839  0.00  0.00    +0.015 C 
ENDROOT
BRANCH  22  28
ATOM     28  C   LIG A   1      -6.106   5.150 133.223  0.00  0.00    -0.076 C 
ATOM     29  C   LIG A   1      -6.039   3.915 134.083  0.00  0.00    +0.038 C 
ATOM     30  C   LIG A   1      -7.223   5.897 133.316  0.00  0.00    +0.007 C 
ENDBRANCH  22  28
BRANCH   1  31
ATOM     31  O   LIG A   1      -8.650  -1.369 124.687  0.00  0.00    -0.461 OA
BRANCH  31  33
ATOM     32  C   LIG A   1      -8.235  -3.650 124.315  0.00  0.00    +0.136 C 
ATOM     33  C   LIG A   1      -9.093  -2.621 124.994  0.00  0.00    +0.304 C 
ATOM     34  O   LIG A   1     -10.032  -2.885 125.721  0.00  0.00    -0.251 OA
ENDBRANCH  31  33
ENDBRANCH   1  31
TORSDOF 3
ENDMDL
MODEL 4
REMARK VINA RESULT:      -8.9      3.606      8.158
REMARK  Name = NuBBE_439
REMARK  11 active torsions:
REMARK  status: ('A' for Active; 'I' for Inactive)
REMARK    1  A    between atoms: C_1  and  C_2
REMARK    2  A    between atoms: C_2  and  O_3
REMARK    3  A    between atoms: O_3  and  C_4
REMARK    4  A    between atoms: C_7  and  C_8
REMARK    5  A    between atoms: C_13  and  C_14
REMARK    6  A    between atoms: C_19  and  C_20
REMARK    7  A    between atoms: C_23  and  C_24
REMARK    8  A    between atoms: C_26  and  C_28
REMARK    9  A    between atoms: C_28  and  C_29
REMARK   10  A    between atoms: C_36  and  C_37
REMARK   11  A    between atoms: C_36  and  C_38
REMARK                            x       y       z     vdW  Elec       q    Type
REMARK                         _______ _______ _______ _____ _____    ______ ____
ROOT
ATOM      1  C   LIG A   1      -8.656  -1.898 125.709  0.00  0.00    +0.182 C 
ATOM      2  C   LIG A   1      -8.320  -0.499 125.193  0.00  0.00    +0.046 C 
ATOM      3  C   LIG A   1      -8.423   0.581 126.278  0.00  0.00    +0.011 C 
ATOM      4  C   LIG A   1      -7.568   0.289 127.553  0.00  0.00    -0.025 C 
ATOM      5  C   LIG A   1      -6.081   0.386 127.135  0.00  0.00    +0.012 C 
ATOM      6  C   LIG A   1      -8.002  -1.136 128.066  0.00  0.00    +0.004 C 
ATOM      7  C   LIG A   1      -7.363  -1.469 129.429  0.00  0.00    +0.005 C 
ATOM      8  C   LIG A   1      -7.770  -0.459 130.498  0.00  0.00    +0.008 C 
ATOM      9  C   LIG A   1      -7.397   1.009 130.160  0.00  0.00    -0.023 C 
ATOM     10  C   LIG A   1      -5.842   1.107 130.228  0.00  0.00    +0.012 C 
ATOM     11  C   LIG A   1      -7.933   1.341 128.703  0.00  0.00    +0.002 C 
ATOM     12  C   LIG A   1      -7.661   2.820 128.345  0.00  0.00    +0.005 C 
ATOM     13  C   LIG A   1      -8.282   3.777 129.367  0.00  0.00    +0.005 C 
ATOM     14  C   LIG A   1      -7.792   3.517 130.796  0.00  0.00    -0.000 C 
ATOM     15  C   LIG A   1      -8.063   2.036 131.245  0.00  0.00    -0.023 C 
ATOM     16  C   LIG A   1      -9.590   1.767 131.375  0.00  0.00    +0.012 C 
ATOM     17  C   LIG A   1      -7.450   1.831 132.663  0.00  0.00    +0.008 C 
ATOM     18  C   LIG A   1      -7.875   2.885 133.678  0.00  0.00    +0.007 C 
ATOM     19  C   LIG A   1      -7.542   4.328 133.240  0.00  0.00    -0.028 C 
ATOM     20  C   LIG A   1      -6.019   4.563 133.299  0.00  0.00    +0.011 C 
ATOM     21  C   LIG A   1      -8.104   4.660 131.816  0.00  0.00    +0.006 C 
ATOM     22  C   LIG A   1      -9.531   5.207 132.118  0.00  0.00    +0.018 C 
ATOM     23  C   LIG A   1      -9.240   6.088 133.356  0.00  0.00    +0.009 C 
ATOM     24  C   LIG A   1      -8.254   5.302 134.205  0.00  0.00    +0.007 C 
ATOM     25  C   LIG A   1      -7.901  -2.303 127.017  0.00  0.00    +0.005 C 
ATOM     26  C   LIG A   1      -8.637  -3.561 127.563  0.00  0.00    +0.015 C 
ATOM     27  C   LIG A   1      -6.446  -2.740 126.744  0.00  0.00    +0.015 C 
ENDROOT
BRANCH  22  28
ATOM     28  C   LIG A   1     -10.292   5.950 131.023  0.00  0.00    -0.076 C 
ATOM     29  C   LIG A   1      -9.598   7.103 130.347  0.00  0.00    +0.038 C 
ATOM     30  C   LIG A   1     -11.486   5.580 130.522  0.00  0.00    +0.007 C 
ENDBRANCH  22  28
BRANCH   1  31
ATOM     31  O   LIG A   1      -8.362  -2.874 124.679  0.00  0.00    -0.461 OA
BRANCH  31  33
ATOM     32  C   LIG A   1      -7.994  -2.163 122.472  0.00  0.00    +0.136 C 
ATOM     33  C   LIG A   1      -8.974  -2.704 123.473  0.00  0.00    +0.304 C 
ATOM     34  O   LIG A   1     -10.137  -2.960 123.224  0.00  0.00    -0.251 OA
ENDBRANCH  31  33
ENDBRANCH   1  31
TORSDOF 3
ENDMDL
MODEL 5
REMARK VINA RESULT:      -8.9      4.883      7.783
REMARK  Name = NuBBE_439
REMARK  11 active torsions:
REMARK  status: ('A' for Active; 'I' for Inactive)
REMARK    1  A    between atoms: C_1  and  C_2
REMARK    2  A    between atoms: C_2  and  O_3
REMARK    3  A    between atoms: O_3  and  C_4
REMARK    4  A    between atoms: C_7  and  C_8
REMARK    5  A    between atoms: C_13  and  C_14
REMARK    6  A    between atoms: C_19  and  C_20
REMARK    7  A    between atoms: C_23  and  C_24
REMARK    8  A    between atoms: C_26  and  C_28
REMARK    9  A    between atoms: C_28  and  C_29
REMARK   10  A    between atoms: C_36  and  C_37
REMARK   11  A    between atoms: C_36  and  C_38
REMARK                            x       y       z     vdW  Elec       q    Type
REMARK                         _______ _______ _______ _____ _____    ______ ____
ROOT
ATOM      1  C   LIG A   1      -6.973   3.228 123.002  0.00  0.00    +0.182 C 
ATOM      2  C   LIG A   1      -5.643   3.600 123.658  0.00  0.00    +0.046 C 
ATOM      3  C   LIG A   1      -5.756   3.790 125.176  0.00  0.00    +0.011 C 
ATOM      4  C   LIG A   1      -6.369   2.567 125.929  0.00  0.00    -0.025 C 
ATOM      5  C   LIG A   1      -5.351   1.407 125.818  0.00  0.00    +0.012 C 
ATOM      6  C   LIG A   1      -7.758   2.271 125.245  0.00  0.00    +0.004 C 
ATOM      7  C   LIG A   1      -8.554   1.198 126.015  0.00  0.00    +0.005 C 
ATOM      8  C   LIG A   1      -8.839   1.636 127.448  0.00  0.00    +0.008 C 
ATOM      9  C   LIG A   1      -7.568   1.950 128.280  0.00  0.00    -0.023 C 
ATOM     10  C   LIG A   1      -6.835   0.593 128.517  0.00  0.00    +0.012 C 
ATOM     11  C   LIG A   1      -6.662   2.958 127.453  0.00  0.00    +0.002 C 
ATOM     12  C   LIG A   1      -5.418   3.372 128.271  0.00  0.00    +0.005 C 
ATOM     13  C   LIG A   1      -5.802   3.991 129.618  0.00  0.00    +0.005 C 
ATOM     14  C   LIG A   1      -6.667   3.059 130.473  0.00  0.00    -0.000 C 
ATOM     15  C   LIG A   1      -7.972   2.618 129.718  0.00  0.00    -0.023 C 
ATOM     16  C   LIG A   1      -8.924   3.829 129.501  0.00  0.00    +0.012 C 
ATOM     17  C   LIG A   1      -8.740   1.600 130.614  0.00  0.00    +0.008 C 
ATOM     18  C   LIG A   1      -8.970   2.084 132.040  0.00  0.00    +0.007 C 
ATOM     19  C   LIG A   1      -7.667   2.453 132.782  0.00  0.00    -0.028 C 
ATOM     20  C   LIG A   1      -6.861   1.179 133.107  0.00  0.00    +0.011 C 
ATOM     21  C   LIG A   1      -6.796   3.475 131.976  0.00  0.00    +0.006 C 
ATOM     22  C   LIG A   1      -7.326   4.856 132.465  0.00  0.00    +0.018 C 
ATOM     23  C   LIG A   1      -7.476   4.580 133.980  0.00  0.00    +0.009 C 
ATOM     24  C   LIG A   1      -8.046   3.175 134.094  0.00  0.00    +0.007 C 
ATOM     25  C   LIG A   1      -7.723   2.041 123.691  0.00  0.00    +0.005 C 
ATOM     26  C   LIG A   1      -9.172   2.067 123.125  0.00  0.00    +0.015 C 
ATOM     27  C   LIG A   1      -7.133   0.668 123.301  0.00  0.00    +0.015 C 
ENDROOT
BRANCH  22  28
ATOM     28  C   LIG A   1      -6.517   6.115 132.166  0.00  0.00    -0.076 C 
ATOM     29  C   LIG A   1      -5.199   6.286 132.877  0.00  0.00    +0.038 C 
ATOM     30  C   LIG A   1      -6.821   7.025 131.221  0.00  0.00    +0.007 C 
ENDBRANCH  22  28
BRANCH   1  31
ATOM     31  O   LIG A   1      -6.746   2.893 121.611  0.00  0.00    -0.461 OA
BRANCH  31  33
ATOM     32  C   LIG A   1      -5.813   4.526 120.205  0.00  0.00    +0.136 C 
ATOM     33  C   LIG A   1      -7.061   3.844 120.687  0.00  0.00    +0.304 C 
ATOM     34  O   LIG A   1      -8.181   4.105 120.290  0.00  0.00    -0.251 OA
ENDBRANCH  31  33
ENDBRANCH   1  31
TORSDOF 3
ENDMDL
MODEL 6
REMARK VINA RESULT:      -8.5      3.603      5.577
REMARK  Name = NuBBE_439
REMARK  11 active torsions:
REMARK  status: ('A' for Active; 'I' for Inactive)
REMARK    1  A    between atoms: C_1  and  C_2
REMARK    2  A    between atoms: C_2  and  O_3
REMARK    3  A    between atoms: O_3  and  C_4
REMARK    4  A    between atoms: C_7  and  C_8
REMARK    5  A    between atoms: C_13  and  C_14
REMARK    6  A    between atoms: C_19  and  C_20
REMARK    7  A    between atoms: C_23  and  C_24
REMARK    8  A    between atoms: C_26  and  C_28
REMARK    9  A    between atoms: C_28  and  C_29
REMARK   10  A    between atoms: C_36  and  C_37
REMARK   11  A    between atoms: C_36  and  C_38
REMARK                            x       y       z     vdW  Elec       q    Type
REMARK                         _______ _______ _______ _____ _____    ______ ____
ROOT
ATOM      1  C   LIG A   1      -3.884   5.696 131.751  0.00  0.00    +0.182 C 
ATOM      2  C   LIG A   1      -2.954   4.484 131.803  0.00  0.00    +0.046 C 
ATOM      3  C   LIG A   1      -3.626   3.192 131.321  0.00  0.00    +0.011 C 
ATOM      4  C   LIG A   1      -4.253   3.291 129.894  0.00  0.00    -0.025 C 
ATOM      5  C   LIG A   1      -3.083   3.445 128.893  0.00  0.00    +0.012 C 
ATOM      6  C   LIG A   1      -5.240   4.519 129.923  0.00  0.00    +0.004 C 
ATOM      7  C   LIG A   1      -6.065   4.616 128.625  0.00  0.00    +0.005 C 
ATOM      8  C   LIG A   1      -6.907   3.363 128.403  0.00  0.00    +0.008 C 
ATOM      9  C   LIG A   1      -6.083   2.050 128.328  0.00  0.00    -0.023 C 
ATOM     10  C   LIG A   1      -5.266   2.105 127.000  0.00  0.00    +0.012 C 
ATOM     11  C   LIG A   1      -5.126   1.984 129.593  0.00  0.00    +0.002 C 
ATOM     12  C   LIG A   1      -4.339   0.655 129.613  0.00  0.00    +0.005 C 
ATOM     13  C   LIG A   1      -5.272  -0.560 129.593  0.00  0.00    +0.005 C 
ATOM     14  C   LIG A   1      -6.214  -0.563 128.384  0.00  0.00    -0.000 C 
ATOM     15  C   LIG A   1      -7.075   0.749 128.312  0.00  0.00    -0.023 C 
ATOM     16  C   LIG A   1      -8.077   0.822 129.501  0.00  0.00    +0.012 C 
ATOM     17  C   LIG A   1      -7.928   0.709 127.009  0.00  0.00    +0.008 C 
ATOM     18  C   LIG A   1      -8.726  -0.578 126.833  0.00  0.00    +0.007 C 
ATOM     19  C   LIG A   1      -7.849  -1.849 126.846  0.00  0.00    -0.028 C 
ATOM     20  C   LIG A   1      -7.010  -1.930 125.555  0.00  0.00    +0.011 C 
ATOM     21  C   LIG A   1      -6.934  -1.925 128.114  0.00  0.00    +0.006 C 
ATOM     22  C   LIG A   1      -7.825  -2.672 129.151  0.00  0.00    +0.018 C 
ATOM     23  C   LIG A   1      -8.452  -3.762 128.251  0.00  0.00    +0.009 C 
ATOM     24  C   LIG A   1      -8.783  -3.078 126.934  0.00  0.00    +0.007 C 
ATOM     25  C   LIG A   1      -4.619   5.888 130.384  0.00  0.00    +0.005 C 
ATOM     26  C   LIG A   1      -5.758   6.914 130.652  0.00  0.00    +0.015 C 
ATOM     27  C   LIG A   1      -3.709   6.525 129.312  0.00  0.00    +0.015 C 
ENDROOT
BRANCH  22  28
ATOM     28  C   LIG A   1      -7.185  -3.239 130.415  0.00  0.00    -0.076 C 
ATOM     29  C   LIG A   1      -6.092  -4.262 130.248  0.00  0.00    +0.038 C 
ATOM     30  C   LIG A   1      -7.427  -2.805 131.667  0.00  0.00    +0.007 C 
ENDBRANCH  22  28
BRANCH   1  31
ATOM     31  O   LIG A   1      -3.128   6.896 132.046  0.00  0.00    -0.461 OA
BRANCH  31  33
ATOM     32  C   LIG A   1      -2.317   8.581 133.466  0.00  0.00    +0.136 C 
ATOM     33  C   LIG A   1      -3.171   7.354 133.329  0.00  0.00    +0.304 C 
ATOM     34  O   LIG A   1      -3.812   6.861 134.238  0.00  0.00    -0.251 OA
ENDBRANCH  31  33
ENDBRANCH   1  31
TORSDOF 3
ENDMDL
MODEL 7
REMARK VINA RESULT:      -8.5      4.329      7.281
REMARK  Name = NuBBE_439
REMARK  11 active torsions:
REMARK  status: ('A' for Active; 'I' for Inactive)
REMARK    1  A    between atoms: C_1  and  C_2
REMARK    2  A    between atoms: C_2  and  O_3
REMARK    3  A    between atoms: O_3  and  C_4
REMARK    4  A    between atoms: C_7  and  C_8
REMARK    5  A    between atoms: C_13  and  C_14
REMARK    6  A    between atoms: C_19  and  C_20
REMARK    7  A    between atoms: C_23  and  C_24
REMARK    8  A    between atoms: C_26  and  C_28
REMARK    9  A    between atoms: C_28  and  C_29
REMARK   10  A    between atoms: C_36  and  C_37
REMARK   11  A    between atoms: C_36  and  C_38
REMARK                            x       y       z     vdW  Elec       q    Type
REMARK                         _______ _______ _______ _____ _____    ______ ____
ROOT
ATOM      1  C   LIG A   1      -8.069  -0.758 125.165  0.00  0.00    +0.182 C 
ATOM      2  C   LIG A   1      -6.734  -0.088 125.489  0.00  0.00    +0.046 C 
ATOM      3  C   LIG A   1      -6.433  -0.048 126.993  0.00  0.00    +0.011 C 
ATOM      4  C   LIG A   1      -6.484  -1.443 127.692  0.00  0.00    -0.025 C 
ATOM      5  C   LIG A   1      -5.297  -2.271 127.142  0.00  0.00    +0.012 C 
ATOM      6  C   LIG A   1      -7.899  -2.055 127.368  0.00  0.00    +0.004 C 
ATOM      7  C   LIG A   1      -8.150  -3.358 128.154  0.00  0.00    +0.005 C 
ATOM      8  C   LIG A   1      -8.092  -3.121 129.660  0.00  0.00    +0.008 C 
ATOM      9  C   LIG A   1      -6.745  -2.534 130.159  0.00  0.00    -0.023 C 
ATOM     10  C   LIG A   1      -5.672  -3.653 129.987  0.00  0.00    +0.012 C 
ATOM     11  C   LIG A   1      -6.396  -1.259 129.279  0.00  0.00    +0.002 C 
ATOM     12  C   LIG A   1      -5.102  -0.583 129.787  0.00  0.00    +0.005 C 
ATOM     13  C   LIG A   1      -5.206  -0.193 131.264  0.00  0.00    +0.005 C 
ATOM     14  C   LIG A   1      -5.527  -1.386 132.171  0.00  0.00    -0.000 C 
ATOM     15  C   LIG A   1      -6.852  -2.109 131.736  0.00  0.00    -0.023 C 
ATOM     16  C   LIG A   1      -8.087  -1.190 131.963  0.00  0.00    +0.012 C 
ATOM     17  C   LIG A   1      -7.052  -3.360 132.642  0.00  0.00    +0.008 C 
ATOM     18  C   LIG A   1      -6.958  -3.063 134.134  0.00  0.00    +0.007 C 
ATOM     19  C   LIG A   1      -5.621  -2.409 134.546  0.00  0.00    -0.028 C 
ATOM     20  C   LIG A   1      -4.475  -3.435 134.451  0.00  0.00    +0.011 C 
ATOM     21  C   LIG A   1      -5.301  -1.132 133.698  0.00  0.00    +0.006 C 
ATOM     22  C   LIG A   1      -5.976   0.013 134.511  0.00  0.00    +0.018 C 
ATOM     23  C   LIG A   1      -5.598  -0.404 135.952  0.00  0.00    +0.009 C 
ATOM     24  C   LIG A   1      -5.755  -1.915 136.005  0.00  0.00    +0.007 C 
ATOM     25  C   LIG A   1      -8.273  -2.152 125.844  0.00  0.00    +0.005 C 
ATOM     26  C   LIG A   1      -9.787  -2.481 125.697  0.00  0.00    +0.015 C 
ATOM     27  C   LIG A   1      -7.514  -3.280 125.111  0.00  0.00    +0.015 C 
ENDROOT
BRANCH  22  28
ATOM     28  C   LIG A   1      -5.619   1.463 134.197  0.00  0.00    -0.076 C 
ATOM     29  C   LIG A   1      -6.743   2.400 133.839  0.00  0.00    +0.038 C 
ATOM     30  C   LIG A   1      -4.395   2.007 134.338  0.00  0.00    +0.007 C 
ENDBRANCH  22  28
BRANCH   1  31
ATOM     31  O   LIG A   1      -8.192  -0.916 123.730  0.00  0.00    -0.461 OA
BRANCH  31  33
ATOM     32  C   LIG A   1      -9.081   1.206 123.266  0.00  0.00    +0.136 C 
ATOM     33  C   LIG A   1      -9.235  -0.281 123.126  0.00  0.00    +0.304 C 
ATOM     34  O   LIG A   1     -10.156  -0.823 122.543  0.00  0.00    -0.251 OA
ENDBRANCH  31  33
ENDBRANCH   1  31
TORSDOF 3
ENDMDL
MODEL 8
REMARK VINA RESULT:      -8.4      4.792      8.221
REMARK  Name = NuBBE_439
REMARK  11 active torsions:
REMARK  status: ('A' for Active; 'I' for Inactive)
REMARK    1  A    between atoms: C_1  and  C_2
REMARK    2  A    between atoms: C_2  and  O_3
REMARK    3  A    between atoms: O_3  and  C_4
REMARK    4  A    between atoms: C_7  and  C_8
REMARK    5  A    between atoms: C_13  and  C_14
REMARK    6  A    between atoms: C_19  and  C_20
REMARK    7  A    between atoms: C_23  and  C_24
REMARK    8  A    between atoms: C_26  and  C_28
REMARK    9  A    between atoms: C_28  and  C_29
REMARK   10  A    between atoms: C_36  and  C_37
REMARK   11  A    between atoms: C_36  and  C_38
REMARK                            x       y       z     vdW  Elec       q    Type
REMARK                         _______ _______ _______ _____ _____    ______ ____
ROOT
ATOM      1  C   LIG A   1      -8.356  -0.921 124.875  0.00  0.00    +0.182 C 
ATOM      2  C   LIG A   1      -9.102  -0.497 126.139  0.00  0.00    +0.046 C 
ATOM      3  C   LIG A   1      -8.240   0.342 127.091  0.00  0.00    +0.011 C 
ATOM      4  C   LIG A   1      -7.603   1.605 126.430  0.00  0.00    -0.025 C 
ATOM      5  C   LIG A   1      -8.760   2.576 126.094  0.00  0.00    +0.012 C 
ATOM      6  C   LIG A   1      -6.804   1.096 125.170  0.00  0.00    +0.004 C 
ATOM      7  C   LIG A   1      -5.972   2.225 124.530  0.00  0.00    +0.005 C 
ATOM      8  C   LIG A   1      -4.954   2.794 125.512  0.00  0.00    +0.008 C 
ATOM      9  C   LIG A   1      -5.577   3.364 126.814  0.00  0.00    -0.023 C 
ATOM     10  C   LIG A   1      -6.364   4.650 126.413  0.00  0.00    +0.012 C 
ATOM     11  C   LIG A   1      -6.543   2.266 127.431  0.00  0.00    +0.002 C 
ATOM     12  C   LIG A   1      -7.130   2.749 128.777  0.00  0.00    +0.005 C 
ATOM     13  C   LIG A   1      -6.031   3.110 129.781  0.00  0.00    +0.005 C 
ATOM     14  C   LIG A   1      -5.072   4.180 129.249  0.00  0.00    -0.000 C 
ATOM     15  C   LIG A   1      -4.408   3.746 127.893  0.00  0.00    -0.023 C 
ATOM     16  C   LIG A   1      -3.454   2.535 128.104  0.00  0.00    +0.012 C 
ATOM     17  C   LIG A   1      -3.529   4.923 127.375  0.00  0.00    +0.008 C 
ATOM     18  C   LIG A   1      -2.550   5.465 128.410  0.00  0.00    +0.007 C 
ATOM     19  C   LIG A   1      -3.234   5.942 129.710  0.00  0.00    -0.028 C 
ATOM     20  C   LIG A   1      -4.024   7.240 129.450  0.00  0.00    +0.011 C 
ATOM     21  C   LIG A   1      -4.157   4.841 130.332  0.00  0.00    +0.006 C 
ATOM     22  C   LIG A   1      -3.191   4.055 131.268  0.00  0.00    +0.018 C 
ATOM     23  C   LIG A   1      -2.393   5.223 131.894  0.00  0.00    +0.009 C 
ATOM     24  C   LIG A   1      -2.135   6.207 130.764  0.00  0.00    +0.007 C 
ATOM     25  C   LIG A   1      -7.626   0.247 124.134  0.00  0.00    +0.005 C 
ATOM     26  C   LIG A   1      -6.654  -0.431 123.125  0.00  0.00    +0.015 C 
ATOM     27  C   LIG A   1      -8.594   1.104 123.290  0.00  0.00    +0.015 C 
ENDROOT
BRANCH  22  28
ATOM     28  C   LIG A   1      -3.771   3.103 132.311  0.00  0.00    -0.076 C 
ATOM     29  C   LIG A   1      -4.594   3.700 133.423  0.00  0.00    +0.038 C 
ATOM     30  C   LIG A   1      -3.716   1.759 132.248  0.00  0.00    +0.007 C 
ENDBRANCH  22  28
BRANCH   1  31
ATOM     31  O   LIG A   1      -9.285  -1.548 123.956  0.00  0.00    -0.461 OA
BRANCH  31  33
ATOM     32  C   LIG A   1      -8.046  -3.436 124.599  0.00  0.00    +0.136 C 
ATOM     33  C   LIG A   1      -9.255  -2.909 123.880  0.00  0.00    +0.304 C 
ATOM     34  O   LIG A   1     -10.083  -3.608 123.328  0.00  0.00    -0.251 OA
ENDBRANCH  31  33
ENDBRANCH   1  31
TORSDOF 3
ENDMDL
MODEL 9
REMARK VINA RESULT:      -8.1      4.853      7.910
REMARK  Name = NuBBE_439
REMARK  11 active torsions:
REMARK  status: ('A' for Active; 'I' for Inactive)
REMARK    1  A    between atoms: C_1  and  C_2
REMARK    2  A    between atoms: C_2  and  O_3
REMARK    3  A    between atoms: O_3  and  C_4
REMARK    4  A    between atoms: C_7  and  C_8
REMARK    5  A    between atoms: C_13  and  C_14
REMARK    6  A    between atoms: C_19  and  C_20
REMARK    7  A    between atoms: C_23  and  C_24
REMARK    8  A    between atoms: C_26  and  C_28
REMARK    9  A    between atoms: C_28  and  C_29
REMARK   10  A    between atoms: C_36  and  C_37
REMARK   11  A    between atoms: C_36  and  C_38
REMARK                            x       y       z     vdW  Elec       q    Type
REMARK                         _______ _______ _______ _____ _____    ______ ____
ROOT
ATOM      1  C   LIG A   1      -6.996   3.263 123.611  0.00  0.00    +0.182 C 
ATOM      2  C   LIG A   1      -5.519   3.614 123.787  0.00  0.00    +0.046 C 
ATOM      3  C   LIG A   1      -5.171   4.044 125.219  0.00  0.00    +0.011 C 
ATOM      4  C   LIG A   1      -5.582   3.009 126.314  0.00  0.00    -0.025 C 
ATOM      5  C   LIG A   1      -4.687   1.762 126.120  0.00  0.00    +0.012 C 
ATOM      6  C   LIG A   1      -7.121   2.734 126.115  0.00  0.00    +0.004 C 
ATOM      7  C   LIG A   1      -7.695   1.865 127.252  0.00  0.00    +0.005 C 
ATOM      8  C   LIG A   1      -7.527   2.541 128.609  0.00  0.00    +0.008 C 
ATOM      9  C   LIG A   1      -6.056   2.868 128.978  0.00  0.00    -0.023 C 
ATOM     10  C   LIG A   1      -5.339   1.505 129.227  0.00  0.00    +0.012 C 
ATOM     11  C   LIG A   1      -5.397   3.655 127.767  0.00  0.00    +0.002 C 
ATOM     12  C   LIG A   1      -3.952   4.080 128.113  0.00  0.00    +0.005 C 
ATOM     13  C   LIG A   1      -3.898   4.929 129.386  0.00  0.00    +0.005 C 
ATOM     14  C   LIG A   1      -4.507   4.218 130.599  0.00  0.00    -0.000 C 
ATOM     15  C   LIG A   1      -5.993   3.781 130.334  0.00  0.00    -0.023 C 
ATOM     16  C   LIG A   1      -6.919   5.023 130.191  0.00  0.00    +0.012 C 
ATOM     17  C   LIG A   1      -6.501   2.984 131.573  0.00  0.00    +0.008 C 
ATOM     18  C   LIG A   1      -6.282   3.700 132.900  0.00  0.00    +0.007 C 
ATOM     19  C   LIG A   1      -4.805   4.064 133.165  0.00  0.00    -0.028 C 
ATOM     20  C   LIG A   1      -3.988   2.790 133.462  0.00  0.00    +0.011 C 
ATOM     21  C   LIG A   1      -4.172   4.870 131.981  0.00  0.00    +0.006 C 
ATOM     22  C   LIG A   1      -4.480   6.351 132.355  0.00  0.00    +0.018 C 
ATOM     23  C   LIG A   1      -4.187   6.325 133.874  0.00  0.00    +0.009 C 
ATOM     24  C   LIG A   1      -4.752   5.009 134.386  0.00  0.00    +0.007 C 
ATOM     25  C   LIG A   1      -7.554   2.265 124.678  0.00  0.00    +0.005 C 
ATOM     26  C   LIG A   1      -9.104   2.330 124.552  0.00  0.00    +0.015 C 
ATOM     27  C   LIG A   1      -7.158   0.803 124.380  0.00  0.00    +0.015 C 
ENDROOT
BRANCH  22  28
ATOM     28  C   LIG A   1      -3.748   7.473 131.626  0.00  0.00    -0.076 C 
ATOM     29  C   LIG A   1      -4.396   8.047 130.392  0.00  0.00    +0.038 C 
ATOM     30  C   LIG A   1      -2.631   8.083 132.066  0.00  0.00    +0.007 C 
ENDBRANCH  22  28
BRANCH   1  31
ATOM     31  O   LIG A   1      -7.202   2.699 122.292  0.00  0.00    -0.461 OA
BRANCH  31  33
ATOM     32  C   LIG A   1      -6.656   3.968 120.394  0.00  0.00    +0.136 C 
ATOM     33  C   LIG A   1      -7.730   3.523 121.344  0.00  0.00    +0.304 C 
ATOM     34  O   LIG A   1      -8.899   3.850 121.257  0.00  0.00    -0.251 OA
ENDBRANCH  31  33
ENDBRANCH   1  31
TORSDOF 3
ENDMDL
