MODEL 1
REMARK VINA RESULT:      -8.5      0.000      0.000
REMARK  Name = NuBBE_580
REMARK  10 active torsions:
REMARK  status: ('A' for Active; 'I' for Inactive)
REMARK    1  A    between atoms: C_7  and  C_9
REMARK    2  A    between atoms: C_9  and  C_10
REMARK    3  A    between atoms: C_13  and  C_28
REMARK    4  A    between atoms: C_15  and  O_17
REMARK    5  A    between atoms: O_17  and  C_18
REMARK    6  A    between atoms: C_18  and  C_19
REMARK    7  A    between atoms: C_21  and  O_23
REMARK    8  A    between atoms: O_23  and  C_24
REMARK    9  A    between atoms: C_24  and  C_25
REMARK   10  A    between atoms: C_29  and  C_30
REMARK                            x       y       z     vdW  Elec       q    Type
REMARK                         _______ _______ _______ _____ _____    ______ ____
ROOT
ATOM      1  C   LIG A   1      -6.766   2.433 126.372  0.00  0.00    +0.126 C 
ATOM      2  O   LIG A   1      -6.763   2.834 124.995  0.00  0.00    -0.365 OA
ATOM      3  C   LIG A   1      -6.779   1.771 124.030  0.00  0.00    +0.186 C 
ATOM      4  C   LIG A   1      -7.871   0.703 124.304  0.00  0.00    +0.249 C 
ATOM      5  C   LIG A   1      -8.070   0.404 125.804  0.00  0.00    +0.222 C 
ATOM      6  C   LIG A   1      -8.065   1.669 126.634  0.00  0.00    +0.080 C 
ENDROOT
BRANCH   3   7
ATOM      7  C   LIG A   1      -6.964   2.478 122.706  0.00  0.00    +0.009 C 
ATOM      8  C   LIG A   1      -6.001   3.157 122.058  0.00  0.00    +0.006 C 
BRANCH   8   9
ATOM      9  C   LIG A   1      -6.221   3.925 120.822  0.00  0.00    -0.025 A 
ATOM     10  C   LIG A   1      -5.250   4.846 120.408  0.00  0.00    +0.008 A 
ATOM     11  C   LIG A   1      -5.430   5.599 119.244  0.00  0.00    +0.001 A 
ATOM     12  C   LIG A   1      -6.591   5.450 118.488  0.00  0.00    +0.000 A 
ATOM     13  C   LIG A   1      -7.581   4.565 118.907  0.00  0.00    +0.001 A 
ATOM     14  C   LIG A   1      -7.402   3.815 120.073  0.00  0.00    +0.008 A 
ENDBRANCH   8   9
ENDBRANCH   3   7
BRANCH   1  15
ATOM     15  C   LIG A   1      -5.438   1.724 126.729  0.00  0.00    +0.076 C 
BRANCH  15  22
ATOM     16  O   LIG A   1      -4.692   5.987 128.435  0.00  0.00    -0.246 OA
ATOM     17  C   LIG A   1      -4.221   4.958 127.986  0.00  0.00    +0.332 C 
ATOM     18  C   LIG A   1      -2.768   4.816 127.792  0.00  0.00    +0.087 C 
ATOM     19  C   LIG A   1      -2.239   3.781 127.127  0.00  0.00    -0.016 C 
ATOM     20  C   LIG A   1      -3.104   2.679 126.610  0.00  0.00    +0.072 C 
ATOM     21  O   LIG A   1      -4.994   3.916 127.596  0.00  0.00    -0.458 OA
ATOM     22  C   LIG A   1      -4.402   2.612 127.424  0.00  0.00    +0.183 C 
ENDBRANCH  15  22
ENDBRANCH   1  15
BRANCH   4  23
ATOM     23  O   LIG A   1      -7.622  -0.540 123.573  0.00  0.00    -0.455 OA
BRANCH  23  24
ATOM     24  C   LIG A   1      -8.664  -1.121 122.912  0.00  0.00    +0.304 C 
ATOM     25  C   LIG A   1      -8.370  -2.528 122.551  0.00  0.00    +0.136 C 
ATOM     26  O   LIG A   1      -9.740  -0.590 122.657  0.00  0.00    -0.251 OA
ENDBRANCH  23  24
ENDBRANCH   4  23
BRANCH   5  27
ATOM     27  O   LIG A   1      -9.303  -0.329 125.967  0.00  0.00    -0.458 OA
BRANCH  27  28
ATOM     28  C   LIG A   1      -9.161  -1.671 126.190  0.00  0.00    +0.304 C 
ATOM     29  C   LIG A   1      -7.966  -1.932 127.060  0.00  0.00    +0.136 C 
ATOM     30  O   LIG A   1      -9.903  -2.554 125.783  0.00  0.00    -0.251 OA
ENDBRANCH  27  28
ENDBRANCH   5  27
TORSDOF 8
ENDMDL
MODEL 2
REMARK VINA RESULT:      -8.3      2.668      3.782
REMARK  Name = NuBBE_580
REMARK  10 active torsions:
REMARK  status: ('A' for Active; 'I' for Inactive)
REMARK    1  A    between atoms: C_7  and  C_9
REMARK    2  A    between atoms: C_9  and  C_10
REMARK    3  A    between atoms: C_13  and  C_28
REMARK    4  A    between atoms: C_15  and  O_17
REMARK    5  A    between atoms: O_17  and  C_18
REMARK    6  A    between atoms: C_18  and  C_19
REMARK    7  A    between atoms: C_21  and  O_23
REMARK    8  A    between atoms: O_23  and  C_24
REMARK    9  A    between atoms: C_24  and  C_25
REMARK   10  A    between atoms: C_29  and  C_30
REMARK                            x       y       z     vdW  Elec       q    Type
REMARK                         _______ _______ _______ _____ _____    ______ ____
ROOT
ATOM      1  C   LIG A   1      -8.485   1.559 126.582  0.00  0.00    +0.126 C 
ATOM      2  O   LIG A   1      -7.766   2.309 125.593  0.00  0.00    -0.365 OA
ATOM      3  C   LIG A   1      -6.898   1.550 124.737  0.00  0.00    +0.186 C 
ATOM      4  C   LIG A   1      -7.580   0.303 124.114  0.00  0.00    +0.249 C 
ATOM      5  C   LIG A   1      -8.547  -0.410 125.080  0.00  0.00    +0.222 C 
ATOM      6  C   LIG A   1      -9.400   0.576 125.849  0.00  0.00    +0.080 C 
ENDROOT
BRANCH   3   7
ATOM      7  C   LIG A   1      -6.436   2.551 123.701  0.00  0.00    +0.009 C 
ATOM      8  C   LIG A   1      -6.991   2.709 122.486  0.00  0.00    +0.006 C 
BRANCH   8   9
ATOM      9  C   LIG A   1      -6.467   3.615 121.452  0.00  0.00    -0.025 A 
ATOM     10  C   LIG A   1      -5.258   4.286 121.680  0.00  0.00    +0.008 A 
ATOM     11  C   LIG A   1      -4.735   5.160 120.722  0.00  0.00    +0.001 A 
ATOM     12  C   LIG A   1      -5.421   5.384 119.531  0.00  0.00    +0.000 A 
ATOM     13  C   LIG A   1      -6.642   4.751 119.306  0.00  0.00    +0.001 A 
ATOM     14  C   LIG A   1      -7.166   3.881 120.265  0.00  0.00    +0.008 A 
ENDBRANCH   8   9
ENDBRANCH   3   7
BRANCH   1  15
ATOM     15  C   LIG A   1      -7.510   0.979 127.633  0.00  0.00    +0.076 C 
BRANCH  15  22
ATOM     16  O   LIG A   1      -8.631  -0.470 131.909  0.00  0.00    -0.246 OA
ATOM     17  C   LIG A   1      -8.600   0.442 131.104  0.00  0.00    +0.332 C 
ATOM     18  C   LIG A   1      -9.148   1.766 131.443  0.00  0.00    +0.087 C 
ATOM     19  C   LIG A   1      -9.304   2.726 130.523  0.00  0.00    -0.016 C 
ATOM     20  C   LIG A   1      -8.857   2.518 129.114  0.00  0.00    +0.072 C 
ATOM     21  O   LIG A   1      -8.114   0.286 129.849  0.00  0.00    -0.458 OA
ATOM     22  C   LIG A   1      -7.761   1.447 129.069  0.00  0.00    +0.183 C 
ENDBRANCH  15  22
ENDBRANCH   1  15
BRANCH   4  23
ATOM     23  O   LIG A   1      -6.603  -0.652 123.587  0.00  0.00    -0.455 OA
BRANCH  23  24
ATOM     24  C   LIG A   1      -5.874  -1.386 124.474  0.00  0.00    +0.304 C 
ATOM     25  C   LIG A   1      -5.703  -2.787 124.021  0.00  0.00    +0.136 C 
ATOM     26  O   LIG A   1      -5.375  -0.969 125.515  0.00  0.00    -0.251 OA
ENDBRANCH  23  24
ENDBRANCH   4  23
BRANCH   5  27
ATOM     27  O   LIG A   1      -9.361  -1.328 124.319  0.00  0.00    -0.458 OA
BRANCH  27  28
ATOM     28  C   LIG A   1      -9.292  -2.636 124.713  0.00  0.00    +0.304 C 
ATOM     29  C   LIG A   1      -9.516  -3.547 123.542  0.00  0.00    +0.136 C 
ATOM     30  O   LIG A   1      -9.052  -3.040 125.842  0.00  0.00    -0.251 OA
ENDBRANCH  27  28
ENDBRANCH   5  27
TORSDOF 8
ENDMDL
MODEL 3
REMARK VINA RESULT:      -8.3      1.808      5.738
REMARK  Name = NuBBE_580
REMARK  10 active torsions:
REMARK  status: ('A' for Active; 'I' for Inactive)
REMARK    1  A    between atoms: C_7  and  C_9
REMARK    2  A    between atoms: C_9  and  C_10
REMARK    3  A    between atoms: C_13  and  C_28
REMARK    4  A    between atoms: C_15  and  O_17
REMARK    5  A    between atoms: O_17  and  C_18
REMARK    6  A    between atoms: C_18  and  C_19
REMARK    7  A    between atoms: C_21  and  O_23
REMARK    8  A    between atoms: O_23  and  C_24
REMARK    9  A    between atoms: C_24  and  C_25
REMARK   10  A    between atoms: C_29  and  C_30
REMARK                            x       y       z     vdW  Elec       q    Type
REMARK                         _______ _______ _______ _____ _____    ______ ____
ROOT
ATOM      1  C   LIG A   1      -5.836   0.162 125.501  0.00  0.00    +0.126 C 
ATOM      2  O   LIG A   1      -6.191   0.844 124.290  0.00  0.00    -0.365 OA
ATOM      3  C   LIG A   1      -7.212   1.846 124.409  0.00  0.00    +0.186 C 
ATOM      4  C   LIG A   1      -6.964   2.847 125.568  0.00  0.00    +0.249 C 
ATOM      5  C   LIG A   1      -6.363   2.189 126.826  0.00  0.00    +0.222 C 
ATOM      6  C   LIG A   1      -5.273   1.200 126.474  0.00  0.00    +0.080 C 
ENDROOT
BRANCH   3   7
ATOM      7  C   LIG A   1      -7.236   2.510 123.049  0.00  0.00    +0.009 C 
ATOM      8  C   LIG A   1      -6.187   3.127 122.478  0.00  0.00    +0.006 C 
BRANCH   8   9
ATOM      9  C   LIG A   1      -6.253   3.857 121.202  0.00  0.00    -0.025 A 
ATOM     10  C   LIG A   1      -5.195   4.702 120.843  0.00  0.00    +0.008 A 
ATOM     11  C   LIG A   1      -5.228   5.416 119.641  0.00  0.00    +0.001 A 
ATOM     12  C   LIG A   1      -6.327   5.304 118.792  0.00  0.00    +0.000 A 
ATOM     13  C   LIG A   1      -7.402   4.496 119.153  0.00  0.00    +0.001 A 
ATOM     14  C   LIG A   1      -7.370   3.785 120.356  0.00  0.00    +0.008 A 
ENDBRANCH   8   9
ENDBRANCH   3   7
BRANCH   1  15
ATOM     15  C   LIG A   1      -7.014  -0.711 125.993  0.00  0.00    +0.076 C 
BRANCH  15  22
ATOM     16  O   LIG A   1     -10.131  -1.393 122.607  0.00  0.00    -0.246 OA
ATOM     17  C   LIG A   1      -9.402  -1.879 123.452  0.00  0.00    +0.332 C 
ATOM     18  C   LIG A   1      -9.373  -3.334 123.675  0.00  0.00    +0.087 C 
ATOM     19  C   LIG A   1      -8.733  -3.880 124.717  0.00  0.00    -0.016 C 
ATOM     20  C   LIG A   1      -7.952  -3.032 125.667  0.00  0.00    +0.072 C 
ATOM     21  O   LIG A   1      -8.622  -1.122 124.260  0.00  0.00    -0.458 OA
ATOM     22  C   LIG A   1      -7.527  -1.732 124.974  0.00  0.00    +0.183 C 
ENDBRANCH  15  22
ENDBRANCH   1  15
BRANCH   4  23
ATOM     23  O   LIG A   1      -8.175   3.591 125.921  0.00  0.00    -0.455 OA
BRANCH  23  24
ATOM     24  C   LIG A   1      -8.155   4.950 125.807  0.00  0.00    +0.304 C 
ATOM     25  C   LIG A   1      -6.869   5.436 125.254  0.00  0.00    +0.136 C 
ATOM     26  O   LIG A   1      -9.078   5.709 126.085  0.00  0.00    -0.251 OA
ENDBRANCH  23  24
ENDBRANCH   4  23
BRANCH   5  27
ATOM     27  O   LIG A   1      -5.870   3.228 127.697  0.00  0.00    -0.458 OA
BRANCH  27  28
ATOM     28  C   LIG A   1      -6.610   3.444 128.827  0.00  0.00    +0.304 C 
ATOM     29  C   LIG A   1      -7.368   2.204 129.200  0.00  0.00    +0.136 C 
ATOM     30  O   LIG A   1      -6.645   4.476 129.482  0.00  0.00    -0.251 OA
ENDBRANCH  27  28
ENDBRANCH   5  27
TORSDOF 8
ENDMDL
MODEL 4
REMARK VINA RESULT:      -8.2      7.166     11.430
REMARK  Name = NuBBE_580
REMARK  10 active torsions:
REMARK  status: ('A' for Active; 'I' for Inactive)
REMARK    1  A    between atoms: C_7  and  C_9
REMARK    2  A    between atoms: C_9  and  C_10
REMARK    3  A    between atoms: C_13  and  C_28
REMARK    4  A    between atoms: C_15  and  O_17
REMARK    5  A    between atoms: O_17  and  C_18
REMARK    6  A    between atoms: C_18  and  C_19
REMARK    7  A    between atoms: C_21  and  O_23
REMARK    8  A    between atoms: O_23  and  C_24
REMARK    9  A    between atoms: C_24  and  C_25
REMARK   10  A    between atoms: C_29  and  C_30
REMARK                            x       y       z     vdW  Elec       q    Type
REMARK                         _______ _______ _______ _____ _____    ______ ____
ROOT
ATOM      1  C   LIG A   1     -10.200   6.657 131.295  0.00  0.00    +0.126 C 
ATOM      2  O   LIG A   1      -9.749   6.267 132.600  0.00  0.00    -0.365 OA
ATOM      3  C   LIG A   1      -9.281   4.916 132.726  0.00  0.00    +0.186 C 
ATOM      4  C   LIG A   1      -8.258   4.511 131.632  0.00  0.00    +0.249 C 
ATOM      5  C   LIG A   1      -8.582   5.101 130.245  0.00  0.00    +0.222 C 
ATOM      6  C   LIG A   1      -9.011   6.549 130.338  0.00  0.00    +0.080 C 
ENDROOT
BRANCH   3   7
ATOM      7  C   LIG A   1      -8.706   4.855 134.124  0.00  0.00    +0.009 C 
ATOM      8  C   LIG A   1      -7.910   5.792 134.668  0.00  0.00    +0.006 C 
BRANCH   8   9
ATOM      9  C   LIG A   1      -7.276   5.670 135.991  0.00  0.00    -0.025 A 
ATOM     10  C   LIG A   1      -7.802   6.394 137.069  0.00  0.00    +0.008 A 
ATOM     11  C   LIG A   1      -7.220   6.308 138.338  0.00  0.00    +0.001 A 
ATOM     12  C   LIG A   1      -6.097   5.508 138.539  0.00  0.00    +0.000 A 
ATOM     13  C   LIG A   1      -5.543   4.811 137.468  0.00  0.00    +0.001 A 
ATOM     14  C   LIG A   1      -6.122   4.900 136.200  0.00  0.00    +0.008 A 
ENDBRANCH   8   9
ENDBRANCH   3   7
BRANCH   1  15
ATOM     15  C   LIG A   1     -11.489   5.889 130.919  0.00  0.00    +0.076 C 
BRANCH  15  22
ATOM     16  O   LIG A   1     -12.539   6.667 126.454  0.00  0.00    -0.246 OA
ATOM     17  C   LIG A   1     -12.584   7.054 127.608  0.00  0.00    +0.332 C 
ATOM     18  C   LIG A   1     -13.182   8.357 127.942  0.00  0.00    +0.087 C 
ATOM     19  C   LIG A   1     -13.076   8.893 129.165  0.00  0.00    -0.016 C 
ATOM     20  C   LIG A   1     -12.400   8.152 130.271  0.00  0.00    +0.072 C 
ATOM     21  O   LIG A   1     -12.051   6.345 128.632  0.00  0.00    -0.458 OA
ATOM     22  C   LIG A   1     -12.440   6.646 129.988  0.00  0.00    +0.183 C 
ENDBRANCH  15  22
ENDBRANCH   1  15
BRANCH   4  23
ATOM     23  O   LIG A   1      -8.103   3.058 131.535  0.00  0.00    -0.455 OA
BRANCH  23  24
ATOM     24  C   LIG A   1      -6.928   2.505 131.952  0.00  0.00    +0.304 C 
ATOM     25  C   LIG A   1      -7.111   1.677 133.167  0.00  0.00    +0.136 C 
ATOM     26  O   LIG A   1      -5.840   2.626 131.398  0.00  0.00    -0.251 OA
ENDBRANCH  23  24
ENDBRANCH   4  23
BRANCH   5  27
ATOM     27  O   LIG A   1      -7.422   4.948 129.399  0.00  0.00    -0.458 OA
BRANCH  27  28
ATOM     28  C   LIG A   1      -7.656   4.366 128.184  0.00  0.00    +0.304 C 
ATOM     29  C   LIG A   1      -6.931   3.056 128.085  0.00  0.00    +0.136 C 
ATOM     30  O   LIG A   1      -8.373   4.806 127.297  0.00  0.00    -0.251 OA
ENDBRANCH  27  28
ENDBRANCH   5  27
TORSDOF 8
ENDMDL
MODEL 5
REMARK VINA RESULT:      -7.9      1.445      2.029
REMARK  Name = NuBBE_580
REMARK  10 active torsions:
REMARK  status: ('A' for Active; 'I' for Inactive)
REMARK    1  A    between atoms: C_7  and  C_9
REMARK    2  A    between atoms: C_9  and  C_10
REMARK    3  A    between atoms: C_13  and  C_28
REMARK    4  A    between atoms: C_15  and  O_17
REMARK    5  A    between atoms: O_17  and  C_18
REMARK    6  A    between atoms: C_18  and  C_19
REMARK    7  A    between atoms: C_21  and  O_23
REMARK    8  A    between atoms: O_23  and  C_24
REMARK    9  A    between atoms: C_24  and  C_25
REMARK   10  A    between atoms: C_29  and  C_30
REMARK                            x       y       z     vdW  Elec       q    Type
REMARK                         _______ _______ _______ _____ _____    ______ ____
ROOT
ATOM      1  C   LIG A   1      -7.586   1.615 126.878  0.00  0.00    +0.126 C 
ATOM      2  O   LIG A   1      -7.330   2.013 125.524  0.00  0.00    -0.365 OA
ATOM      3  C   LIG A   1      -6.775   1.005 124.666  0.00  0.00    +0.186 C 
ATOM      4  C   LIG A   1      -7.539  -0.344 124.722  0.00  0.00    +0.249 C 
ATOM      5  C   LIG A   1      -8.036  -0.706 126.136  0.00  0.00    +0.222 C 
ATOM      6  C   LIG A   1      -8.626   0.493 126.847  0.00  0.00    +0.080 C 
ENDROOT
BRANCH   3   7
ATOM      7  C   LIG A   1      -6.796   1.639 123.293  0.00  0.00    +0.009 C 
ATOM      8  C   LIG A   1      -6.584   2.944 123.046  0.00  0.00    +0.006 C 
BRANCH   8   9
ATOM      9  C   LIG A   1      -6.708   3.563 121.717  0.00  0.00    -0.025 A 
ATOM     10  C   LIG A   1      -7.953   3.555 121.074  0.00  0.00    +0.008 A 
ATOM     11  C   LIG A   1      -8.105   4.128 119.807  0.00  0.00    +0.001 A 
ATOM     12  C   LIG A   1      -7.011   4.701 119.163  0.00  0.00    +0.000 A 
ATOM     13  C   LIG A   1      -5.760   4.684 119.775  0.00  0.00    +0.001 A 
ATOM     14  C   LIG A   1      -5.607   4.108 121.040  0.00  0.00    +0.008 A 
ENDBRANCH   8   9
ENDBRANCH   3   7
BRANCH   1  15
ATOM     15  C   LIG A   1      -6.256   1.335 127.617  0.00  0.00    +0.076 C 
BRANCH  15  22
ATOM     16  O   LIG A   1      -2.185   3.204 126.363  0.00  0.00    -0.246 OA
ATOM     17  C   LIG A   1      -3.089   3.150 127.177  0.00  0.00    +0.332 C 
ATOM     18  C   LIG A   1      -3.040   3.950 128.411  0.00  0.00    +0.087 C 
ATOM     19  C   LIG A   1      -3.916   3.771 129.408  0.00  0.00    -0.016 C 
ATOM     20  C   LIG A   1      -5.035   2.791 129.279  0.00  0.00    +0.072 C 
ATOM     21  O   LIG A   1      -4.155   2.328 127.024  0.00  0.00    -0.458 OA
ATOM     22  C   LIG A   1      -5.351   2.556 127.797  0.00  0.00    +0.183 C 
ENDBRANCH  15  22
ENDBRANCH   1  15
BRANCH   4  23
ATOM     23  O   LIG A   1      -6.750  -1.447 124.171  0.00  0.00    -0.455 OA
BRANCH  23  24
ATOM     24  C   LIG A   1      -6.979  -1.824 122.881  0.00  0.00    +0.304 C 
ATOM     25  C   LIG A   1      -8.428  -1.885 122.575  0.00  0.00    +0.136 C 
ATOM     26  O   LIG A   1      -6.120  -2.060 122.037  0.00  0.00    -0.251 OA
ENDBRANCH  23  24
ENDBRANCH   4  23
BRANCH   5  27
ATOM     27  O   LIG A   1      -8.997  -1.777 126.025  0.00  0.00    -0.458 OA
BRANCH  27  28
ATOM     28  C   LIG A   1      -8.526  -3.022 126.340  0.00  0.00    +0.304 C 
ATOM     29  C   LIG A   1      -8.527  -3.220 127.828  0.00  0.00    +0.136 C 
ATOM     30  O   LIG A   1      -8.177  -3.885 125.547  0.00  0.00    -0.251 OA
ENDBRANCH  27  28
ENDBRANCH   5  27
TORSDOF 8
ENDMDL
MODEL 6
REMARK VINA RESULT:      -7.9      2.681      7.322
REMARK  Name = NuBBE_580
REMARK  10 active torsions:
REMARK  status: ('A' for Active; 'I' for Inactive)
REMARK    1  A    between atoms: C_7  and  C_9
REMARK    2  A    between atoms: C_9  and  C_10
REMARK    3  A    between atoms: C_13  and  C_28
REMARK    4  A    between atoms: C_15  and  O_17
REMARK    5  A    between atoms: O_17  and  C_18
REMARK    6  A    between atoms: C_18  and  C_19
REMARK    7  A    between atoms: C_21  and  O_23
REMARK    8  A    between atoms: O_23  and  C_24
REMARK    9  A    between atoms: C_24  and  C_25
REMARK   10  A    between atoms: C_29  and  C_30
REMARK                            x       y       z     vdW  Elec       q    Type
REMARK                         _______ _______ _______ _____ _____    ______ ____
ROOT
ATOM      1  C   LIG A   1      -6.722   0.096 126.952  0.00  0.00    +0.126 C 
ATOM      2  O   LIG A   1      -5.667   0.993 127.326  0.00  0.00    -0.365 OA
ATOM      3  C   LIG A   1      -5.150   1.828 126.279  0.00  0.00    +0.186 C 
ATOM      4  C   LIG A   1      -6.253   2.561 125.470  0.00  0.00    +0.249 C 
ATOM      5  C   LIG A   1      -7.512   1.702 125.238  0.00  0.00    +0.222 C 
ATOM      6  C   LIG A   1      -7.909   0.940 126.485  0.00  0.00    +0.080 C 
ENDROOT
BRANCH   3   7
ATOM      7  C   LIG A   1      -4.212   2.776 126.992  0.00  0.00    +0.009 C 
ATOM      8  C   LIG A   1      -4.560   3.572 128.019  0.00  0.00    +0.006 C 
BRANCH   8   9
ATOM      9  C   LIG A   1      -3.663   4.562 128.636  0.00  0.00    -0.025 A 
ATOM     10  C   LIG A   1      -3.117   5.578 127.839  0.00  0.00    +0.008 A 
ATOM     11  C   LIG A   1      -2.255   6.531 128.390  0.00  0.00    +0.001 A 
ATOM     12  C   LIG A   1      -1.917   6.471 129.741  0.00  0.00    +0.000 A 
ATOM     13  C   LIG A   1      -2.425   5.446 130.536  0.00  0.00    +0.001 A 
ATOM     14  C   LIG A   1      -3.283   4.491 129.984  0.00  0.00    +0.008 A 
ENDBRANCH   8   9
ENDBRANCH   3   7
BRANCH   1  15
ATOM     15  C   LIG A   1      -6.191  -0.986 125.983  0.00  0.00    +0.076 C 
BRANCH  15  22
ATOM     16  O   LIG A   1      -9.701  -2.483 123.323  0.00  0.00    -0.246 OA
ATOM     17  C   LIG A   1      -9.105  -2.555 124.382  0.00  0.00    +0.332 C 
ATOM     18  C   LIG A   1      -9.575  -3.451 125.451  0.00  0.00    +0.087 C 
ATOM     19  C   LIG A   1      -9.061  -3.412 126.687  0.00  0.00    -0.016 C 
ATOM     20  C   LIG A   1      -7.928  -2.497 127.017  0.00  0.00    +0.072 C 
ATOM     21  O   LIG A   1      -8.021  -1.792 124.658  0.00  0.00    -0.458 OA
ATOM     22  C   LIG A   1      -7.145  -2.159 125.743  0.00  0.00    +0.183 C 
ENDBRANCH  15  22
ENDBRANCH   1  15
BRANCH   4  23
ATOM     23  O   LIG A   1      -5.753   3.071 124.193  0.00  0.00    -0.455 OA
BRANCH  23  24
ATOM     24  C   LIG A   1      -5.746   4.421 123.995  0.00  0.00    +0.304 C 
ATOM     25  C   LIG A   1      -6.253   5.153 125.179  0.00  0.00    +0.136 C 
ATOM     26  O   LIG A   1      -5.347   4.998 122.988  0.00  0.00    -0.251 OA
ENDBRANCH  23  24
ENDBRANCH   4  23
BRANCH   5  27
ATOM     27  O   LIG A   1      -8.579   2.563 124.786  0.00  0.00    -0.458 OA
BRANCH  27  28
ATOM     28  C   LIG A   1      -8.966   2.383 123.487  0.00  0.00    +0.304 C 
ATOM     29  C   LIG A   1      -9.726   1.096 123.342  0.00  0.00    +0.136 C 
ATOM     30  O   LIG A   1      -8.767   3.154 122.559  0.00  0.00    -0.251 OA
ENDBRANCH  27  28
ENDBRANCH   5  27
TORSDOF 8
ENDMDL
MODEL 7
REMARK VINA RESULT:      -7.8      1.911      2.833
REMARK  Name = NuBBE_580
REMARK  10 active torsions:
REMARK  status: ('A' for Active; 'I' for Inactive)
REMARK    1  A    between atoms: C_7  and  C_9
REMARK    2  A    between atoms: C_9  and  C_10
REMARK    3  A    between atoms: C_13  and  C_28
REMARK    4  A    between atoms: C_15  and  O_17
REMARK    5  A    between atoms: O_17  and  C_18
REMARK    6  A    between atoms: C_18  and  C_19
REMARK    7  A    between atoms: C_21  and  O_23
REMARK    8  A    between atoms: O_23  and  C_24
REMARK    9  A    between atoms: C_24  and  C_25
REMARK   10  A    between atoms: C_29  and  C_30
REMARK                            x       y       z     vdW  Elec       q    Type
REMARK                         _______ _______ _______ _____ _____    ______ ____
ROOT
ATOM      1  C   LIG A   1      -5.355   4.431 126.679  0.00  0.00    +0.126 C 
ATOM      2  O   LIG A   1      -5.587   4.354 125.265  0.00  0.00    -0.365 OA
ATOM      3  C   LIG A   1      -6.065   3.092 124.775  0.00  0.00    +0.186 C 
ATOM      4  C   LIG A   1      -7.270   2.533 125.576  0.00  0.00    +0.249 C 
ATOM      5  C   LIG A   1      -7.171   2.798 127.092  0.00  0.00    +0.222 C 
ATOM      6  C   LIG A   1      -6.692   4.203 127.385  0.00  0.00    +0.080 C 
ENDROOT
BRANCH   3   7
ATOM      7  C   LIG A   1      -6.394   3.362 123.323  0.00  0.00    +0.009 C 
ATOM      8  C   LIG A   1      -5.608   4.044 122.472  0.00  0.00    +0.006 C 
BRANCH   8   9
ATOM      9  C   LIG A   1      -5.988   4.386 121.092  0.00  0.00    -0.025 A 
ATOM     10  C   LIG A   1      -7.187   3.884 120.570  0.00  0.00    +0.008 A 
ATOM     11  C   LIG A   1      -7.575   4.182 119.260  0.00  0.00    +0.001 A 
ATOM     12  C   LIG A   1      -6.761   4.974 118.453  0.00  0.00    +0.000 A 
ATOM     13  C   LIG A   1      -5.549   5.451 118.947  0.00  0.00    +0.001 A 
ATOM     14  C   LIG A   1      -5.160   5.149 120.255  0.00  0.00    +0.008 A 
ENDBRANCH   8   9
ENDBRANCH   3   7
BRANCH   1  15
ATOM     15  C   LIG A   1      -4.171   3.520 127.081  0.00  0.00    +0.076 C 
BRANCH  15  22
ATOM     16  O   LIG A   1      -3.281   4.175 131.599  0.00  0.00    -0.246 OA
ATOM     17  C   LIG A   1      -3.119   4.547 130.451  0.00  0.00    +0.332 C 
ATOM     18  C   LIG A   1      -2.335   5.756 130.154  0.00  0.00    +0.087 C 
ATOM     19  C   LIG A   1      -2.299   6.296 128.929  0.00  0.00    -0.016 C 
ATOM     20  C   LIG A   1      -3.004   5.645 127.784  0.00  0.00    +0.072 C 
ATOM     21  O   LIG A   1      -3.683   3.910 129.397  0.00  0.00    -0.458 OA
ATOM     22  C   LIG A   1      -3.182   4.149 128.066  0.00  0.00    +0.183 C 
ENDBRANCH  15  22
ENDBRANCH   1  15
BRANCH   4  23
ATOM     23  O   LIG A   1      -7.481   1.105 125.329  0.00  0.00    -0.455 OA
BRANCH  23  24
ATOM     24  C   LIG A   1      -8.627   0.722 124.697  0.00  0.00    +0.304 C 
ATOM     25  C   LIG A   1      -8.343  -0.046 123.461  0.00  0.00    +0.136 C 
ATOM     26  O   LIG A   1      -9.770   0.936 125.087  0.00  0.00    -0.251 OA
ENDBRANCH  23  24
ENDBRANCH   4  23
BRANCH   5  27
ATOM     27  O   LIG A   1      -8.462   2.546 127.687  0.00  0.00    -0.458 OA
BRANCH  27  28
ATOM     28  C   LIG A   1      -8.437   1.868 128.874  0.00  0.00    +0.304 C 
ATOM     29  C   LIG A   1      -9.151   2.650 129.938  0.00  0.00    +0.136 C 
ATOM     30  O   LIG A   1      -7.943   0.767 129.068  0.00  0.00    -0.251 OA
ENDBRANCH  27  28
ENDBRANCH   5  27
TORSDOF 8
ENDMDL
MODEL 8
REMARK VINA RESULT:      -7.8      5.509      9.703
REMARK  Name = NuBBE_580
REMARK  10 active torsions:
REMARK  status: ('A' for Active; 'I' for Inactive)
REMARK    1  A    between atoms: C_7  and  C_9
REMARK    2  A    between atoms: C_9  and  C_10
REMARK    3  A    between atoms: C_13  and  C_28
REMARK    4  A    between atoms: C_15  and  O_17
REMARK    5  A    between atoms: O_17  and  C_18
REMARK    6  A    between atoms: C_18  and  C_19
REMARK    7  A    between atoms: C_21  and  O_23
REMARK    8  A    between atoms: O_23  and  C_24
REMARK    9  A    between atoms: C_24  and  C_25
REMARK   10  A    between atoms: C_29  and  C_30
REMARK                            x       y       z     vdW  Elec       q    Type
REMARK                         _______ _______ _______ _____ _____    ______ ____
ROOT
ATOM      1  C   LIG A   1      -4.357   6.634 130.275  0.00  0.00    +0.126 C 
ATOM      2  O   LIG A   1      -5.741   6.988 130.138  0.00  0.00    -0.365 OA
ATOM      3  C   LIG A   1      -6.657   6.285 130.991  0.00  0.00    +0.186 C 
ATOM      4  C   LIG A   1      -6.224   6.266 132.481  0.00  0.00    +0.249 C 
ATOM      5  C   LIG A   1      -4.702   6.115 132.673  0.00  0.00    +0.222 C 
ATOM      6  C   LIG A   1      -3.926   6.978 131.702  0.00  0.00    +0.080 C 
ENDROOT
BRANCH   3   7
ATOM      7  C   LIG A   1      -7.979   6.986 130.768  0.00  0.00    +0.009 C 
ATOM      8  C   LIG A   1      -9.116   6.377 130.391  0.00  0.00    +0.006 C 
BRANCH   8   9
ATOM      9  C   LIG A   1     -10.368   7.086 130.079  0.00  0.00    -0.025 A 
ATOM     10  C   LIG A   1     -10.411   7.939 128.969  0.00  0.00    +0.008 A 
ATOM     11  C   LIG A   1     -11.581   8.635 128.648  0.00  0.00    +0.001 A 
ATOM     12  C   LIG A   1     -12.717   8.496 129.443  0.00  0.00    +0.000 A 
ATOM     13  C   LIG A   1     -12.678   7.678 130.570  0.00  0.00    +0.001 A 
ATOM     14  C   LIG A   1     -11.507   6.986 130.892  0.00  0.00    +0.008 A 
ENDBRANCH   8   9
ENDBRANCH   3   7
BRANCH   1  15
ATOM     15  C   LIG A   1      -4.121   5.185 129.788  0.00  0.00    +0.076 C 
BRANCH  15  22
ATOM     16  O   LIG A   1      -6.230   5.212 125.641  0.00  0.00    -0.246 OA
ATOM     17  C   LIG A   1      -5.280   4.855 126.314  0.00  0.00    +0.332 C 
ATOM     18  C   LIG A   1      -4.218   4.016 125.733  0.00  0.00    +0.087 C 
ATOM     19  C   LIG A   1      -3.267   3.452 126.488  0.00  0.00    -0.016 C 
ATOM     20  C   LIG A   1      -3.200   3.711 127.957  0.00  0.00    +0.072 C 
ATOM     21  O   LIG A   1      -5.166   5.161 127.628  0.00  0.00    -0.458 OA
ATOM     22  C   LIG A   1      -3.885   5.044 128.282  0.00  0.00    +0.183 C 
ENDBRANCH  15  22
ENDBRANCH   1  15
BRANCH   4  23
ATOM     23  O   LIG A   1      -6.931   5.237 133.246  0.00  0.00    -0.455 OA
BRANCH  23  24
ATOM     24  C   LIG A   1      -7.859   5.637 134.162  0.00  0.00    +0.304 C 
ATOM     25  C   LIG A   1      -7.423   5.349 135.549  0.00  0.00    +0.136 C 
ATOM     26  O   LIG A   1      -8.921   6.198 133.912  0.00  0.00    -0.251 OA
ENDBRANCH  23  24
ENDBRANCH   4  23
BRANCH   5  27
ATOM     27  O   LIG A   1      -4.377   6.440 134.041  0.00  0.00    -0.458 OA
BRANCH  27  28
ATOM     28  C   LIG A   1      -3.319   5.753 134.571  0.00  0.00    +0.304 C 
ATOM     29  C   LIG A   1      -3.734   4.360 134.943  0.00  0.00    +0.136 C 
ATOM     30  O   LIG A   1      -2.179   6.174 134.705  0.00  0.00    -0.251 OA
ENDBRANCH  27  28
ENDBRANCH   5  27
TORSDOF 8
ENDMDL
MODEL 9
REMARK VINA RESULT:      -7.7      5.278      9.066
REMARK  Name = NuBBE_580
REMARK  10 active torsions:
REMARK  status: ('A' for Active; 'I' for Inactive)
REMARK    1  A    between atoms: C_7  and  C_9
REMARK    2  A    between atoms: C_9  and  C_10
REMARK    3  A    between atoms: C_13  and  C_28
REMARK    4  A    between atoms: C_15  and  O_17
REMARK    5  A    between atoms: O_17  and  C_18
REMARK    6  A    between atoms: C_18  and  C_19
REMARK    7  A    between atoms: C_21  and  O_23
REMARK    8  A    between atoms: O_23  and  C_24
REMARK    9  A    between atoms: C_24  and  C_25
REMARK   10  A    between atoms: C_29  and  C_30
REMARK                            x       y       z     vdW  Elec       q    Type
REMARK                         _______ _______ _______ _____ _____    ______ ____
ROOT
ATOM      1  C   LIG A   1      -9.421   5.018 130.171  0.00  0.00    +0.126 C 
ATOM      2  O   LIG A   1      -9.345   3.690 129.634  0.00  0.00    -0.365 OA
ATOM      3  C   LIG A   1      -8.225   3.420 128.779  0.00  0.00    +0.186 C 
ATOM      4  C   LIG A   1      -6.865   3.864 129.381  0.00  0.00    +0.249 C 
ATOM      5  C   LIG A   1      -6.949   5.187 130.169  0.00  0.00    +0.222 C 
ATOM      6  C   LIG A   1      -8.184   5.242 131.042  0.00  0.00    +0.080 C 
ENDROOT
BRANCH   3   7
ATOM      7  C   LIG A   1      -8.302   1.930 128.529  0.00  0.00    +0.009 C 
ATOM      8  C   LIG A   1      -7.843   0.986 129.369  0.00  0.00    +0.006 C 
BRANCH   8   9
ATOM      9  C   LIG A   1      -7.833  -0.454 129.067  0.00  0.00    -0.025 A 
ATOM     10  C   LIG A   1      -7.852  -1.373 130.123  0.00  0.00    +0.008 A 
ATOM     11  C   LIG A   1      -7.835  -2.749 129.873  0.00  0.00    +0.001 A 
ATOM     12  C   LIG A   1      -7.784  -3.221 128.563  0.00  0.00    +0.000 A 
ATOM     13  C   LIG A   1      -7.729  -2.317 127.504  0.00  0.00    +0.001 A 
ATOM     14  C   LIG A   1      -7.742  -0.942 127.755  0.00  0.00    +0.008 A 
ENDBRANCH   8   9
ENDBRANCH   3   7
BRANCH   1  15
ATOM     15  C   LIG A   1      -9.693   6.040 129.042  0.00  0.00    +0.076 C 
BRANCH  15  22
ATOM     16  O   LIG A   1     -13.309   7.371 131.647  0.00  0.00    -0.246 OA
ATOM     17  C   LIG A   1     -12.589   7.593 130.690  0.00  0.00    +0.332 C 
ATOM     18  C   LIG A   1     -12.831   8.754 129.818  0.00  0.00    +0.087 C 
ATOM     19  C   LIG A   1     -12.183   8.916 128.658  0.00  0.00    -0.016 C 
ATOM     20  C   LIG A   1     -11.124   7.955 128.230  0.00  0.00    +0.072 C 
ATOM     21  O   LIG A   1     -11.569   6.772 130.345  0.00  0.00    -0.458 OA
ATOM     22  C   LIG A   1     -10.537   7.248 129.457  0.00  0.00    +0.183 C 
ENDBRANCH  15  22
ENDBRANCH   1  15
BRANCH   4  23
ATOM     23  O   LIG A   1      -5.815   3.951 128.365  0.00  0.00    -0.455 OA
BRANCH  23  24
ATOM     24  C   LIG A   1      -4.742   3.116 128.471  0.00  0.00    +0.304 C 
ATOM     25  C   LIG A   1      -4.785   2.035 127.459  0.00  0.00    +0.136 C 
ATOM     26  O   LIG A   1      -3.818   3.230 129.270  0.00  0.00    -0.251 OA
ENDBRANCH  23  24
ENDBRANCH   4  23
BRANCH   5  27
ATOM     27  O   LIG A   1      -5.745   5.333 130.950  0.00  0.00    -0.458 OA
BRANCH  27  28
ATOM     28  C   LIG A   1      -5.250   6.605 131.030  0.00  0.00    +0.304 C 
ATOM     29  C   LIG A   1      -4.242   6.705 132.138  0.00  0.00    +0.136 C 
ATOM     30  O   LIG A   1      -5.540   7.542 130.300  0.00  0.00    -0.251 OA
ENDBRANCH  27  28
ENDBRANCH   5  27
TORSDOF 8
ENDMDL
