MODEL 1
REMARK VINA RESULT:      -7.2      0.000      0.000
REMARK  Name = NuBBE_533
REMARK  9 active torsions:
REMARK  status: ('A' for Active; 'I' for Inactive)
REMARK    1  A    between atoms: C_1  and  O_2
REMARK    2  A    between atoms: O_2  and  C_3
REMARK    3  A    between atoms: C_4  and  O_5
REMARK    4  A    between atoms: O_5  and  C_6
REMARK    5  A    between atoms: C_10  and  O_11
REMARK    6  A    between atoms: O_11  and  C_12
REMARK    7  A    between atoms: C_13  and  O_14
REMARK    8  A    between atoms: N_20  and  C_21
REMARK    9  A    between atoms: N_20  and  C_22
REMARK                            x       y       z     vdW  Elec       q    Type
REMARK                         _______ _______ _______ _____ _____    ______ ____
ROOT
ATOM      1  C   LIG A   1      -8.000  -2.449 125.080  0.00  0.00    +0.162 A 
ATOM      2  C   LIG A   1      -7.506  -1.295 124.450  0.00  0.00    +0.170 A 
ATOM      3  C   LIG A   1      -7.177  -0.153 125.232  0.00  0.00    +0.037 A 
ATOM      4  C   LIG A   1      -6.765   1.170 124.658  0.00  0.00    -0.007 A 
ATOM      5  C   LIG A   1      -7.209   1.638 123.401  0.00  0.00    +0.058 A 
ATOM      6  C   LIG A   1      -6.816   2.889 122.914  0.00  0.00    +0.162 A 
ATOM      7  C   LIG A   1      -6.016   3.708 123.697  0.00  0.00    +0.159 A 
ATOM      8  C   LIG A   1      -5.572   3.299 124.948  0.00  0.00    +0.053 A 
ATOM      9  C   LIG A   1      -5.967   2.044 125.429  0.00  0.00    -0.030 A 
ATOM     10  C   LIG A   1      -5.566   1.626 126.823  0.00  0.00    +0.095 C 
ATOM     11  C   LIG A   1      -7.213  -0.264 126.663  0.00  0.00    +0.015 A 
ATOM     12  C   LIG A   1      -6.778   0.945 127.489  0.00  0.00    +0.102 C 
ATOM     13  N   LIG A   1      -6.515   0.654 129.005  0.00  0.00    +0.245 N 
ATOM     14  C   LIG A   1      -5.174  -0.028 129.259  0.00  0.00    +0.193 C 
ATOM     15  C   LIG A   1      -6.545   1.964 129.802  0.00  0.00    +0.193 C 
ATOM     16  C   LIG A   1      -7.676  -0.221 129.507  0.00  0.00    +0.138 C 
ATOM     17  C   LIG A   1      -7.736  -1.564 128.779  0.00  0.00    +0.086 C 
ATOM     18  C   LIG A   1      -7.683  -1.435 127.275  0.00  0.00    -0.030 A 
ATOM     19  C   LIG A   1      -8.065  -2.520 126.478  0.00  0.00    +0.053 A 
ENDROOT
BRANCH   1  21
ATOM     20  C   LIG A   1      -9.539  -3.428 123.618  0.00  0.00    +0.277 C 
ATOM     21  O   LIG A   1      -8.351  -3.587 124.402  0.00  0.00    -0.491 OA
ENDBRANCH   1  21
BRANCH   2  22
ATOM     22  O   LIG A   1      -7.367  -1.176 123.090  0.00  0.00    -0.491 OA
ATOM     23  C   LIG A   1      -6.256  -1.812 122.465  0.00  0.00    +0.277 C 
ENDBRANCH   2  22
BRANCH   6  24
ATOM     24  O   LIG A   1      -7.220   3.424 121.715  0.00  0.00    -0.491 OA
ATOM     25  C   LIG A   1      -8.628   3.409 121.486  0.00  0.00    +0.277 C 
ENDBRANCH   6  24
BRANCH   7  26
ATOM     26  O   LIG A   1      -5.653   4.953 123.269  0.00  0.00    -0.503 OA
ATOM     27  H   LIG A   1      -4.673   4.953 123.280  0.00  0.00    +0.292 HD
ENDBRANCH   7  26
TORSDOF 4
ENDMDL
MODEL 2
REMARK VINA RESULT:      -6.9      2.368      3.240
REMARK  Name = NuBBE_533
REMARK  9 active torsions:
REMARK  status: ('A' for Active; 'I' for Inactive)
REMARK    1  A    between atoms: C_1  and  O_2
REMARK    2  A    between atoms: O_2  and  C_3
REMARK    3  A    between atoms: C_4  and  O_5
REMARK    4  A    between atoms: O_5  and  C_6
REMARK    5  A    between atoms: C_10  and  O_11
REMARK    6  A    between atoms: O_11  and  C_12
REMARK    7  A    between atoms: C_13  and  O_14
REMARK    8  A    between atoms: N_20  and  C_21
REMARK    9  A    between atoms: N_20  and  C_22
REMARK                            x       y       z     vdW  Elec       q    Type
REMARK                         _______ _______ _______ _____ _____    ______ ____
ROOT
ATOM      1  C   LIG A   1      -9.085  -1.939 125.707  0.00  0.00    +0.162 A 
ATOM      2  C   LIG A   1      -8.583  -0.641 125.898  0.00  0.00    +0.170 A 
ATOM      3  C   LIG A   1      -7.938  -0.309 127.123  0.00  0.00    +0.037 A 
ATOM      4  C   LIG A   1      -7.479   1.072 127.484  0.00  0.00    -0.007 A 
ATOM      5  C   LIG A   1      -8.113   2.244 127.015  0.00  0.00    +0.058 A 
ATOM      6  C   LIG A   1      -7.665   3.513 127.397  0.00  0.00    +0.162 A 
ATOM      7  C   LIG A   1      -6.609   3.625 128.290  0.00  0.00    +0.159 A 
ATOM      8  C   LIG A   1      -5.969   2.501 128.795  0.00  0.00    +0.053 A 
ATOM      9  C   LIG A   1      -6.422   1.233 128.406  0.00  0.00    -0.030 A 
ATOM     10  C   LIG A   1      -5.793   0.005 129.017  0.00  0.00    +0.095 C 
ATOM     11  C   LIG A   1      -7.682  -1.355 128.071  0.00  0.00    +0.015 A 
ATOM     12  C   LIG A   1      -6.916  -0.999 129.344  0.00  0.00    +0.102 C 
ATOM     13  N   LIG A   1      -6.377  -2.222 130.160  0.00  0.00    +0.245 N 
ATOM     14  C   LIG A   1      -5.121  -2.839 129.553  0.00  0.00    +0.193 C 
ATOM     15  C   LIG A   1      -6.054  -1.792 131.597  0.00  0.00    +0.193 C 
ATOM     16  C   LIG A   1      -7.513  -3.257 130.231  0.00  0.00    +0.138 C 
ATOM     17  C   LIG A   1      -7.914  -3.762 128.844  0.00  0.00    +0.086 C 
ATOM     18  C   LIG A   1      -8.167  -2.652 127.850  0.00  0.00    -0.030 A 
ATOM     19  C   LIG A   1      -8.858  -2.935 126.667  0.00  0.00    +0.053 A 
ENDROOT
BRANCH   1  21
ATOM     20  C   LIG A   1      -8.939  -3.223 123.759  0.00  0.00    +0.277 C 
ATOM     21  O   LIG A   1      -9.727  -2.339 124.564  0.00  0.00    -0.491 OA
ENDBRANCH   1  21
BRANCH   2  22
ATOM     22  O   LIG A   1      -8.723   0.368 124.978  0.00  0.00    -0.491 OA
ATOM     23  C   LIG A   1      -7.843   0.390 123.858  0.00  0.00    +0.277 C 
ENDBRANCH   2  22
BRANCH   6  24
ATOM     24  O   LIG A   1      -8.238   4.697 127.001  0.00  0.00    -0.491 OA
ATOM     25  C   LIG A   1      -8.057   5.030 125.625  0.00  0.00    +0.277 C 
ENDBRANCH   6  24
BRANCH   7  26
ATOM     26  O   LIG A   1      -6.177   4.849 128.717  0.00  0.00    -0.503 OA
ATOM     27  H   LIG A   1      -6.026   5.368 127.900  0.00  0.00    +0.292 HD
ENDBRANCH   7  26
TORSDOF 4
ENDMDL
MODEL 3
REMARK VINA RESULT:      -6.9      1.485      5.410
REMARK  Name = NuBBE_533
REMARK  9 active torsions:
REMARK  status: ('A' for Active; 'I' for Inactive)
REMARK    1  A    between atoms: C_1  and  O_2
REMARK    2  A    between atoms: O_2  and  C_3
REMARK    3  A    between atoms: C_4  and  O_5
REMARK    4  A    between atoms: O_5  and  C_6
REMARK    5  A    between atoms: C_10  and  O_11
REMARK    6  A    between atoms: O_11  and  C_12
REMARK    7  A    between atoms: C_13  and  O_14
REMARK    8  A    between atoms: N_20  and  C_21
REMARK    9  A    between atoms: N_20  and  C_22
REMARK                            x       y       z     vdW  Elec       q    Type
REMARK                         _______ _______ _______ _____ _____    ______ ____
ROOT
ATOM      1  C   LIG A   1      -7.008   2.836 123.063  0.00  0.00    +0.162 A 
ATOM      2  C   LIG A   1      -7.597   1.708 123.658  0.00  0.00    +0.170 A 
ATOM      3  C   LIG A   1      -7.107   1.234 124.908  0.00  0.00    +0.037 A 
ATOM      4  C   LIG A   1      -7.572  -0.028 125.570  0.00  0.00    -0.007 A 
ATOM      5  C   LIG A   1      -8.036  -1.151 124.851  0.00  0.00    +0.058 A 
ATOM      6  C   LIG A   1      -8.439  -2.318 125.510  0.00  0.00    +0.162 A 
ATOM      7  C   LIG A   1      -8.337  -2.393 126.891  0.00  0.00    +0.159 A 
ATOM      8  C   LIG A   1      -7.866  -1.322 127.639  0.00  0.00    +0.053 A 
ATOM      9  C   LIG A   1      -7.466  -0.156 126.973  0.00  0.00    -0.030 A 
ATOM     10  C   LIG A   1      -6.869   0.981 127.766  0.00  0.00    +0.095 C 
ATOM     11  C   LIG A   1      -6.123   2.015 125.602  0.00  0.00    +0.015 A 
ATOM     12  C   LIG A   1      -5.666   1.538 126.978  0.00  0.00    +0.102 C 
ATOM     13  N   LIG A   1      -4.866   2.591 127.816  0.00  0.00    +0.245 N 
ATOM     14  C   LIG A   1      -5.759   3.648 128.457  0.00  0.00    +0.193 C 
ATOM     15  C   LIG A   1      -4.080   1.887 128.931  0.00  0.00    +0.193 C 
ATOM     16  C   LIG A   1      -3.843   3.242 126.869  0.00  0.00    +0.138 C 
ATOM     17  C   LIG A   1      -4.521   3.982 125.716  0.00  0.00    +0.086 C 
ATOM     18  C   LIG A   1      -5.566   3.155 125.003  0.00  0.00    -0.030 A 
ATOM     19  C   LIG A   1      -6.019   3.560 123.743  0.00  0.00    +0.053 A 
ENDROOT
BRANCH   1  21
ATOM     20  C   LIG A   1      -6.322   3.809 121.052  0.00  0.00    +0.277 C 
ATOM     21  O   LIG A   1      -7.413   3.351 121.859  0.00  0.00    -0.491 OA
ENDBRANCH   1  21
BRANCH   2  22
ATOM     22  O   LIG A   1      -8.606   0.983 123.074  0.00  0.00    -0.491 OA
ATOM     23  C   LIG A   1      -9.941   1.470 123.183  0.00  0.00    +0.277 C 
ENDBRANCH   2  22
BRANCH   6  24
ATOM     24  O   LIG A   1      -8.882  -3.457 124.884  0.00  0.00    -0.491 OA
ATOM     25  C   LIG A   1      -9.497  -3.252 123.612  0.00  0.00    +0.277 C 
ENDBRANCH   6  24
BRANCH   7  26
ATOM     26  O   LIG A   1      -8.680  -3.533 127.560  0.00  0.00    -0.503 OA
ATOM     27  H   LIG A   1      -8.386  -4.268 126.983  0.00  0.00    +0.292 HD
ENDBRANCH   7  26
TORSDOF 4
ENDMDL
MODEL 4
REMARK VINA RESULT:      -6.8      3.191      5.920
REMARK  Name = NuBBE_533
REMARK  9 active torsions:
REMARK  status: ('A' for Active; 'I' for Inactive)
REMARK    1  A    between atoms: C_1  and  O_2
REMARK    2  A    between atoms: O_2  and  C_3
REMARK    3  A    between atoms: C_4  and  O_5
REMARK    4  A    between atoms: O_5  and  C_6
REMARK    5  A    between atoms: C_10  and  O_11
REMARK    6  A    between atoms: O_11  and  C_12
REMARK    7  A    between atoms: C_13  and  O_14
REMARK    8  A    between atoms: N_20  and  C_21
REMARK    9  A    between atoms: N_20  and  C_22
REMARK                            x       y       z     vdW  Elec       q    Type
REMARK                         _______ _______ _______ _____ _____    ______ ____
ROOT
ATOM      1  C   LIG A   1      -8.705   2.279 123.902  0.00  0.00    +0.162 A 
ATOM      2  C   LIG A   1      -8.477   2.406 125.282  0.00  0.00    +0.170 A 
ATOM      3  C   LIG A   1      -8.474   1.244 126.105  0.00  0.00    +0.037 A 
ATOM      4  C   LIG A   1      -8.369   1.273 127.601  0.00  0.00    -0.007 A 
ATOM      5  C   LIG A   1      -8.851   2.341 128.388  0.00  0.00    +0.058 A 
ATOM      6  C   LIG A   1      -8.753   2.315 129.784  0.00  0.00    +0.162 A 
ATOM      7  C   LIG A   1      -8.215   1.201 130.410  0.00  0.00    +0.159 A 
ATOM      8  C   LIG A   1      -7.747   0.117 129.679  0.00  0.00    +0.053 A 
ATOM      9  C   LIG A   1      -7.847   0.151 128.281  0.00  0.00    -0.030 A 
ATOM     10  C   LIG A   1      -7.424  -1.057 127.481  0.00  0.00    +0.095 C 
ATOM     11  C   LIG A   1      -8.552  -0.044 125.477  0.00  0.00    +0.015 A 
ATOM     12  C   LIG A   1      -8.465  -1.283 126.366  0.00  0.00    +0.102 C 
ATOM     13  N   LIG A   1      -8.214  -2.629 125.607  0.00  0.00    +0.245 N 
ATOM     14  C   LIG A   1      -6.761  -2.811 125.177  0.00  0.00    +0.193 C 
ATOM     15  C   LIG A   1      -8.601  -3.815 126.500  0.00  0.00    +0.193 C 
ATOM     16  C   LIG A   1      -9.149  -2.644 124.386  0.00  0.00    +0.138 C 
ATOM     17  C   LIG A   1      -8.846  -1.500 123.418  0.00  0.00    +0.086 C 
ATOM     18  C   LIG A   1      -8.751  -0.151 124.093  0.00  0.00    -0.030 A 
ATOM     19  C   LIG A   1      -8.818   1.011 123.317  0.00  0.00    +0.053 A 
ENDROOT
BRANCH   1  21
ATOM     20  C   LIG A   1      -7.761   3.248 121.995  0.00  0.00    +0.277 C 
ATOM     21  O   LIG A   1      -8.734   3.345 123.042  0.00  0.00    -0.491 OA
ENDBRANCH   1  21
BRANCH   2  22
ATOM     22  O   LIG A   1      -8.304   3.612 125.914  0.00  0.00    -0.491 OA
ATOM     23  C   LIG A   1      -7.043   4.264 125.796  0.00  0.00    +0.277 C 
ENDBRANCH   2  22
BRANCH   6  24
ATOM     24  O   LIG A   1      -9.215   3.302 130.619  0.00  0.00    -0.491 OA
ATOM     25  C   LIG A   1     -10.623   3.529 130.572  0.00  0.00    +0.277 C 
ENDBRANCH   6  24
BRANCH   7  26
ATOM     26  O   LIG A   1      -8.145   1.126 131.772  0.00  0.00    -0.503 OA
ATOM     27  H   LIG A   1      -7.248   0.785 131.966  0.00  0.00    +0.292 HD
ENDBRANCH   7  26
TORSDOF 4
ENDMDL
MODEL 5
REMARK VINA RESULT:      -6.7      2.284      3.546
REMARK  Name = NuBBE_533
REMARK  9 active torsions:
REMARK  status: ('A' for Active; 'I' for Inactive)
REMARK    1  A    between atoms: C_1  and  O_2
REMARK    2  A    between atoms: O_2  and  C_3
REMARK    3  A    between atoms: C_4  and  O_5
REMARK    4  A    between atoms: O_5  and  C_6
REMARK    5  A    between atoms: C_10  and  O_11
REMARK    6  A    between atoms: O_11  and  C_12
REMARK    7  A    between atoms: C_13  and  O_14
REMARK    8  A    between atoms: N_20  and  C_21
REMARK    9  A    between atoms: N_20  and  C_22
REMARK                            x       y       z     vdW  Elec       q    Type
REMARK                         _______ _______ _______ _____ _____    ______ ____
ROOT
ATOM      1  C   LIG A   1      -6.030  -0.937 127.763  0.00  0.00    +0.162 A 
ATOM      2  C   LIG A   1      -6.528  -0.410 126.560  0.00  0.00    +0.170 A 
ATOM      3  C   LIG A   1      -6.346   0.971 126.269  0.00  0.00    +0.037 A 
ATOM      4  C   LIG A   1      -6.943   1.666 125.081  0.00  0.00    -0.007 A 
ATOM      5  C   LIG A   1      -8.162   1.272 124.488  0.00  0.00    +0.058 A 
ATOM      6  C   LIG A   1      -8.693   1.964 123.394  0.00  0.00    +0.162 A 
ATOM      7  C   LIG A   1      -8.038   3.087 122.912  0.00  0.00    +0.159 A 
ATOM      8  C   LIG A   1      -6.847   3.526 123.477  0.00  0.00    +0.053 A 
ATOM      9  C   LIG A   1      -6.319   2.826 124.570  0.00  0.00    -0.030 A 
ATOM     10  C   LIG A   1      -5.075   3.345 125.249  0.00  0.00    +0.095 C 
ATOM     11  C   LIG A   1      -5.522   1.757 127.143  0.00  0.00    +0.015 A 
ATOM     12  C   LIG A   1      -5.269   3.217 126.773  0.00  0.00    +0.102 C 
ATOM     13  N   LIG A   1      -4.109   3.911 127.562  0.00  0.00    +0.245 N 
ATOM     14  C   LIG A   1      -2.724   3.520 127.055  0.00  0.00    +0.193 C 
ATOM     15  C   LIG A   1      -4.245   5.436 127.460  0.00  0.00    +0.193 C 
ATOM     16  C   LIG A   1      -4.274   3.529 129.043  0.00  0.00    +0.138 C 
ATOM     17  C   LIG A   1      -4.150   2.021 129.262  0.00  0.00    +0.086 C 
ATOM     18  C   LIG A   1      -5.010   1.204 128.327  0.00  0.00    -0.030 A 
ATOM     19  C   LIG A   1      -5.262  -0.140 128.622  0.00  0.00    +0.053 A 
ENDROOT
BRANCH   1  21
ATOM     20  C   LIG A   1      -5.011  -2.780 128.778  0.00  0.00    +0.277 C 
ATOM     21  O   LIG A   1      -6.171  -2.251 128.126  0.00  0.00    -0.491 OA
ENDBRANCH   1  21
BRANCH   2  22
ATOM     22  O   LIG A   1      -7.243  -1.146 125.649  0.00  0.00    -0.491 OA
ATOM     23  C   LIG A   1      -6.531  -2.019 124.776  0.00  0.00    +0.277 C 
ENDBRANCH   2  22
BRANCH   6  24
ATOM     24  O   LIG A   1      -9.880   1.656 122.775  0.00  0.00    -0.491 OA
ATOM     25  C   LIG A   1     -10.072   0.273 122.482  0.00  0.00    +0.277 C 
ENDBRANCH   6  24
BRANCH   7  26
ATOM     26  O   LIG A   1      -8.554   3.810 121.875  0.00  0.00    -0.503 OA
ATOM     27  H   LIG A   1      -7.808   4.351 121.543  0.00  0.00    +0.292 HD
ENDBRANCH   7  26
TORSDOF 4
ENDMDL
MODEL 6
REMARK VINA RESULT:      -6.6      2.509      3.611
REMARK  Name = NuBBE_533
REMARK  9 active torsions:
REMARK  status: ('A' for Active; 'I' for Inactive)
REMARK    1  A    between atoms: C_1  and  O_2
REMARK    2  A    between atoms: O_2  and  C_3
REMARK    3  A    between atoms: C_4  and  O_5
REMARK    4  A    between atoms: O_5  and  C_6
REMARK    5  A    between atoms: C_10  and  O_11
REMARK    6  A    between atoms: O_11  and  C_12
REMARK    7  A    between atoms: C_13  and  O_14
REMARK    8  A    between atoms: N_20  and  C_21
REMARK    9  A    between atoms: N_20  and  C_22
REMARK                            x       y       z     vdW  Elec       q    Type
REMARK                         _______ _______ _______ _____ _____    ______ ____
ROOT
ATOM      1  C   LIG A   1      -7.538  -2.025 129.124  0.00  0.00    +0.162 A 
ATOM      2  C   LIG A   1      -7.452  -1.201 127.990  0.00  0.00    +0.170 A 
ATOM      3  C   LIG A   1      -7.863   0.159 128.075  0.00  0.00    +0.037 A 
ATOM      4  C   LIG A   1      -7.935   1.091 126.902  0.00  0.00    -0.007 A 
ATOM      5  C   LIG A   1      -8.201   0.656 125.586  0.00  0.00    +0.058 A 
ATOM      6  C   LIG A   1      -8.281   1.564 124.524  0.00  0.00    +0.162 A 
ATOM      7  C   LIG A   1      -8.145   2.922 124.774  0.00  0.00    +0.159 A 
ATOM      8  C   LIG A   1      -7.903   3.398 126.057  0.00  0.00    +0.053 A 
ATOM      9  C   LIG A   1      -7.822   2.483 127.114  0.00  0.00    -0.030 A 
ATOM     10  C   LIG A   1      -7.649   2.995 128.524  0.00  0.00    +0.095 C 
ATOM     11  C   LIG A   1      -8.211   0.694 129.361  0.00  0.00    +0.015 A 
ATOM     12  C   LIG A   1      -8.570   2.175 129.450  0.00  0.00    +0.102 C 
ATOM     13  N   LIG A   1      -8.604   2.766 130.899  0.00  0.00    +0.245 N 
ATOM     14  C   LIG A   1      -7.214   3.049 131.461  0.00  0.00    +0.193 C 
ATOM     15  C   LIG A   1      -9.403   4.076 130.913  0.00  0.00    +0.193 C 
ATOM     16  C   LIG A   1      -9.354   1.756 131.783  0.00  0.00    +0.138 C 
ATOM     17  C   LIG A   1      -8.638   0.407 131.847  0.00  0.00    +0.086 C 
ATOM     18  C   LIG A   1      -8.264  -0.139 130.488  0.00  0.00    -0.030 A 
ATOM     19  C   LIG A   1      -7.920  -1.489 130.361  0.00  0.00    +0.053 A 
ENDROOT
BRANCH   1  21
ATOM     20  C   LIG A   1      -6.198  -3.657 130.128  0.00  0.00    +0.277 C 
ATOM     21  O   LIG A   1      -7.173  -3.346 129.126  0.00  0.00    -0.491 OA
ENDBRANCH   1  21
BRANCH   2  22
ATOM     22  O   LIG A   1      -7.036  -1.647 126.760  0.00  0.00    -0.491 OA
ATOM     23  C   LIG A   1      -5.638  -1.794 126.530  0.00  0.00    +0.277 C 
ENDBRANCH   2  22
BRANCH   6  24
ATOM     24  O   LIG A   1      -8.556   1.225 123.223  0.00  0.00    -0.491 OA
ATOM     25  C   LIG A   1      -9.898   0.810 122.973  0.00  0.00    +0.277 C 
ENDBRANCH   6  24
BRANCH   7  26
ATOM     26  O   LIG A   1      -8.263   3.837 123.768  0.00  0.00    -0.503 OA
ATOM     27  H   LIG A   1      -9.117   3.634 123.335  0.00  0.00    +0.292 HD
ENDBRANCH   7  26
TORSDOF 4
ENDMDL
MODEL 7
REMARK VINA RESULT:      -6.6      4.146      6.332
REMARK  Name = NuBBE_533
REMARK  9 active torsions:
REMARK  status: ('A' for Active; 'I' for Inactive)
REMARK    1  A    between atoms: C_1  and  O_2
REMARK    2  A    between atoms: O_2  and  C_3
REMARK    3  A    between atoms: C_4  and  O_5
REMARK    4  A    between atoms: O_5  and  C_6
REMARK    5  A    between atoms: C_10  and  O_11
REMARK    6  A    between atoms: O_11  and  C_12
REMARK    7  A    between atoms: C_13  and  O_14
REMARK    8  A    between atoms: N_20  and  C_21
REMARK    9  A    between atoms: N_20  and  C_22
REMARK                            x       y       z     vdW  Elec       q    Type
REMARK                         _______ _______ _______ _____ _____    ______ ____
ROOT
ATOM      1  C   LIG A   1      -7.986   0.695 126.931  0.00  0.00    +0.162 A 
ATOM      2  C   LIG A   1      -8.222   1.595 127.983  0.00  0.00    +0.170 A 
ATOM      3  C   LIG A   1      -8.257   1.118 129.324  0.00  0.00    +0.037 A 
ATOM      4  C   LIG A   1      -8.625   1.961 130.508  0.00  0.00    -0.007 A 
ATOM      5  C   LIG A   1      -9.516   3.053 130.431  0.00  0.00    +0.058 A 
ATOM      6  C   LIG A   1      -9.849   3.800 131.567  0.00  0.00    +0.162 A 
ATOM      7  C   LIG A   1      -9.332   3.432 132.801  0.00  0.00    +0.159 A 
ATOM      8  C   LIG A   1      -8.469   2.352 132.930  0.00  0.00    +0.053 A 
ATOM      9  C   LIG A   1      -8.138   1.611 131.787  0.00  0.00    -0.030 A 
ATOM     10  C   LIG A   1      -7.273   0.382 131.928  0.00  0.00    +0.095 C 
ATOM     11  C   LIG A   1      -7.897  -0.248 129.577  0.00  0.00    +0.015 A 
ATOM     12  C   LIG A   1      -7.859  -0.724 131.028  0.00  0.00    +0.102 C 
ATOM     13  N   LIG A   1      -7.140  -2.096 131.259  0.00  0.00    +0.245 N 
ATOM     14  C   LIG A   1      -5.619  -1.985 131.234  0.00  0.00    +0.193 C 
ATOM     15  C   LIG A   1      -7.557  -2.684 132.614  0.00  0.00    +0.193 C 
ATOM     16  C   LIG A   1      -7.635  -3.058 130.165  0.00  0.00    +0.138 C 
ATOM     17  C   LIG A   1      -7.266  -2.569 128.764  0.00  0.00    +0.086 C 
ATOM     18  C   LIG A   1      -7.637  -1.126 128.514  0.00  0.00    -0.030 A 
ATOM     19  C   LIG A   1      -7.677  -0.644 127.201  0.00  0.00    +0.053 A 
ENDROOT
BRANCH   1  21
ATOM     20  C   LIG A   1      -9.216   0.950 124.959  0.00  0.00    +0.277 C 
ATOM     21  O   LIG A   1      -7.947   1.069 125.613  0.00  0.00    -0.491 OA
ENDBRANCH   1  21
BRANCH   2  22
ATOM     22  O   LIG A   1      -8.480   2.930 127.795  0.00  0.00    -0.491 OA
ATOM     23  C   LIG A   1      -7.385   3.798 127.515  0.00  0.00    +0.277 C 
ENDBRANCH   2  22
BRANCH   6  24
ATOM     24  O   LIG A   1     -10.721   4.860 131.579  0.00  0.00    -0.491 OA
ATOM     25  C   LIG A   1     -11.221   5.250 130.301  0.00  0.00    +0.277 C 
ENDBRANCH   6  24
BRANCH   7  26
ATOM     26  O   LIG A   1      -9.673   4.112 133.936  0.00  0.00    -0.503 OA
ATOM     27  H   LIG A   1     -10.158   3.464 134.488  0.00  0.00    +0.292 HD
ENDBRANCH   7  26
TORSDOF 4
ENDMDL
MODEL 8
REMARK VINA RESULT:      -6.5      5.243      8.062
REMARK  Name = NuBBE_533
REMARK  9 active torsions:
REMARK  status: ('A' for Active; 'I' for Inactive)
REMARK    1  A    between atoms: C_1  and  O_2
REMARK    2  A    between atoms: O_2  and  C_3
REMARK    3  A    between atoms: C_4  and  O_5
REMARK    4  A    between atoms: O_5  and  C_6
REMARK    5  A    between atoms: C_10  and  O_11
REMARK    6  A    between atoms: O_11  and  C_12
REMARK    7  A    between atoms: C_13  and  O_14
REMARK    8  A    between atoms: N_20  and  C_21
REMARK    9  A    between atoms: N_20  and  C_22
REMARK                            x       y       z     vdW  Elec       q    Type
REMARK                         _______ _______ _______ _____ _____    ______ ____
ROOT
ATOM      1  C   LIG A   1      -4.804   3.889 127.295  0.00  0.00    +0.162 A 
ATOM      2  C   LIG A   1      -5.972   4.034 128.062  0.00  0.00    +0.170 A 
ATOM      3  C   LIG A   1      -5.921   4.742 129.296  0.00  0.00    +0.037 A 
ATOM      4  C   LIG A   1      -7.071   4.848 130.253  0.00  0.00    -0.007 A 
ATOM      5  C   LIG A   1      -8.059   3.849 130.387  0.00  0.00    +0.058 A 
ATOM      6  C   LIG A   1      -9.103   3.979 131.310  0.00  0.00    +0.162 A 
ATOM      7  C   LIG A   1      -9.143   5.087 132.144  0.00  0.00    +0.159 A 
ATOM      8  C   LIG A   1      -8.180   6.085 132.064  0.00  0.00    +0.053 A 
ATOM      9  C   LIG A   1      -7.140   5.949 131.136  0.00  0.00    -0.030 A 
ATOM     10  C   LIG A   1      -6.040   6.982 131.101  0.00  0.00    +0.095 C 
ATOM     11  C   LIG A   1      -4.708   5.423 129.649  0.00  0.00    +0.015 A 
ATOM     12  C   LIG A   1      -4.694   6.247 130.935  0.00  0.00    +0.102 C 
ATOM     13  N   LIG A   1      -3.481   7.225 131.085  0.00  0.00    +0.245 N 
ATOM     14  C   LIG A   1      -3.628   8.493 130.250  0.00  0.00    +0.193 C 
ATOM     15  C   LIG A   1      -3.317   7.634 132.555  0.00  0.00    +0.193 C 
ATOM     16  C   LIG A   1      -2.218   6.447 130.677  0.00  0.00    +0.138 C 
ATOM     17  C   LIG A   1      -2.272   5.993 129.218  0.00  0.00    +0.086 C 
ATOM     18  C   LIG A   1      -3.559   5.290 128.855  0.00  0.00    -0.030 A 
ATOM     19  C   LIG A   1      -3.620   4.530 127.681  0.00  0.00    +0.053 A 
ENDROOT
BRANCH   1  21
ATOM     20  C   LIG A   1      -4.584   1.803 126.264  0.00  0.00    +0.277 C 
ATOM     21  O   LIG A   1      -4.764   3.214 126.103  0.00  0.00    -0.491 OA
ENDBRANCH   1  21
BRANCH   2  22
ATOM     22  O   LIG A   1      -7.179   3.477 127.717  0.00  0.00    -0.491 OA
ATOM     23  C   LIG A   1      -7.923   4.075 126.660  0.00  0.00    +0.277 C 
ENDBRANCH   2  22
BRANCH   6  24
ATOM     24  O   LIG A   1     -10.088   3.045 131.514  0.00  0.00    -0.491 OA
ATOM     25  C   LIG A   1      -9.642   1.796 132.040  0.00  0.00    +0.277 C 
ENDBRANCH   6  24
BRANCH   7  26
ATOM     26  O   LIG A   1     -10.122   5.222 133.086  0.00  0.00    -0.503 OA
ATOM     27  H   LIG A   1     -10.056   4.419 133.643  0.00  0.00    +0.292 HD
ENDBRANCH   7  26
TORSDOF 4
ENDMDL
MODEL 9
REMARK VINA RESULT:      -6.5      3.049      6.133
REMARK  Name = NuBBE_533
REMARK  9 active torsions:
REMARK  status: ('A' for Active; 'I' for Inactive)
REMARK    1  A    between atoms: C_1  and  O_2
REMARK    2  A    between atoms: O_2  and  C_3
REMARK    3  A    between atoms: C_4  and  O_5
REMARK    4  A    between atoms: O_5  and  C_6
REMARK    5  A    between atoms: C_10  and  O_11
REMARK    6  A    between atoms: O_11  and  C_12
REMARK    7  A    between atoms: C_13  and  O_14
REMARK    8  A    between atoms: N_20  and  C_21
REMARK    9  A    between atoms: N_20  and  C_22
REMARK                            x       y       z     vdW  Elec       q    Type
REMARK                         _______ _______ _______ _____ _____    ______ ____
ROOT
ATOM      1  C   LIG A   1      -4.872   1.235 129.431  0.00  0.00    +0.162 A 
ATOM      2  C   LIG A   1      -5.929   0.759 128.638  0.00  0.00    +0.170 A 
ATOM      3  C   LIG A   1      -6.251  -0.627 128.651  0.00  0.00    +0.037 A 
ATOM      4  C   LIG A   1      -7.269  -1.263 127.753  0.00  0.00    -0.007 A 
ATOM      5  C   LIG A   1      -7.572  -0.777 126.462  0.00  0.00    +0.058 A 
ATOM      6  C   LIG A   1      -8.515  -1.416 125.649  0.00  0.00    +0.162 A 
ATOM      7  C   LIG A   1      -9.130  -2.575 126.097  0.00  0.00    +0.159 A 
ATOM      8  C   LIG A   1      -8.848  -3.103 127.350  0.00  0.00    +0.053 A 
ATOM      9  C   LIG A   1      -7.905  -2.457 128.160  0.00  0.00    -0.030 A 
ATOM     10  C   LIG A   1      -7.525  -3.070 129.486  0.00  0.00    +0.095 C 
ATOM     11  C   LIG A   1      -5.584  -1.480 129.593  0.00  0.00    +0.015 A 
ATOM     12  C   LIG A   1      -5.997  -2.949 129.653  0.00  0.00    +0.102 C 
ATOM     13  N   LIG A   1      -5.490  -3.732 130.909  0.00  0.00    +0.245 N 
ATOM     14  C   LIG A   1      -6.299  -3.432 132.167  0.00  0.00    +0.193 C 
ATOM     15  C   LIG A   1      -5.554  -5.243 130.646  0.00  0.00    +0.193 C 
ATOM     16  C   LIG A   1      -4.011  -3.359 131.111  0.00  0.00    +0.138 C 
ATOM     17  C   LIG A   1      -3.830  -1.867 131.388  0.00  0.00    +0.086 C 
ATOM     18  C   LIG A   1      -4.549  -0.980 130.398  0.00  0.00    -0.030 A 
ATOM     19  C   LIG A   1      -4.208   0.374 130.315  0.00  0.00    +0.053 A 
ENDROOT
BRANCH   1  21
ATOM     20  C   LIG A   1      -4.854   3.204 130.691  0.00  0.00    +0.277 C 
ATOM     21  O   LIG A   1      -4.491   2.551 129.469  0.00  0.00    -0.491 OA
ENDBRANCH   1  21
BRANCH   2  22
ATOM     22  O   LIG A   1      -6.657   1.556 127.789  0.00  0.00    -0.491 OA
ATOM     23  C   LIG A   1      -7.696   2.359 128.339  0.00  0.00    +0.277 C 
ENDBRANCH   2  22
BRANCH   6  24
ATOM     24  O   LIG A   1      -8.849  -1.019 124.378  0.00  0.00    -0.491 OA
ATOM     25  C   LIG A   1      -7.837  -1.222 123.392  0.00  0.00    +0.277 C 
ENDBRANCH   6  24
BRANCH   7  26
ATOM     26  O   LIG A   1     -10.020  -3.248 125.310  0.00  0.00    -0.503 OA
ATOM     27  H   LIG A   1     -10.155  -4.111 125.753  0.00  0.00    +0.292 HD
ENDBRANCH   7  26
TORSDOF 4
ENDMDL
