MODEL 1
REMARK VINA RESULT:      -8.6      0.000      0.000
REMARK  Name = NuBBE_647
REMARK  2 active torsions:
REMARK  status: ('A' for Active; 'I' for Inactive)
REMARK    1  A    between atoms: C_1  and  C_2
REMARK    2  A    between atoms: C_2  and  C_3
REMARK                            x       y       z     vdW  Elec       q    Type
REMARK                         _______ _______ _______ _____ _____    ______ ____
ROOT
ATOM      1  C   LIG A   1     -13.456   7.470 127.516  0.00  0.00    +0.060 C 
ATOM      2  C   LIG A   1     -12.658   8.246 128.569  0.00  0.00    +0.123 C 
ATOM      3  C   LIG A   1     -13.348   9.582 128.870  0.00  0.00    +0.060 C 
ATOM      4  O   LIG A   1     -12.731   7.466 129.781  0.00  0.00    -0.481 OA
ATOM      5  C   LIG A   1     -11.575   7.138 130.429  0.00  0.00    +0.132 A 
ATOM      6  C   LIG A   1     -11.738   6.455 131.639  0.00  0.00    +0.047 A 
ATOM      7  C   LIG A   1     -10.626   6.062 132.386  0.00  0.00    +0.015 A 
ATOM      8  C   LIG A   1      -9.342   6.349 131.922  0.00  0.00    +0.018 A 
ATOM      9  C   LIG A   1      -9.193   7.030 130.711  0.00  0.00    +0.150 A 
ATOM     10  O   LIG A   1      -7.896   7.326 130.227  0.00  0.00    -0.421 OA
ATOM     11  C   LIG A   1      -6.751   6.959 130.916  0.00  0.00    +0.337 A 
ATOM     12  C   LIG A   1      -6.945   6.244 132.187  0.00  0.00    +0.092 A 
ATOM     13  C   LIG A   1      -8.157   5.953 132.668  0.00  0.00    +0.018 A 
ATOM     14  O   LIG A   1      -5.626   7.211 130.503  0.00  0.00    -0.245 OA
ATOM     15  C   LIG A   1     -10.298   7.433 129.948  0.00  0.00    +0.059 A 
ATOM     16  C   LIG A   1     -10.157   8.136 128.680  0.00  0.00    +0.015 C 
ATOM     17  C   LIG A   1     -11.268   8.512 128.042  0.00  0.00    +0.020 C 
ENDROOT
TORSDOF 0
ENDMDL
MODEL 2
REMARK VINA RESULT:      -7.4      2.114      5.232
REMARK  Name = NuBBE_647
REMARK  2 active torsions:
REMARK  status: ('A' for Active; 'I' for Inactive)
REMARK    1  A    between atoms: C_1  and  C_2
REMARK    2  A    between atoms: C_2  and  C_3
REMARK                            x       y       z     vdW  Elec       q    Type
REMARK                         _______ _______ _______ _____ _____    ______ ____
ROOT
ATOM      1  C   LIG A   1      -7.992   5.714 133.754  0.00  0.00    +0.060 C 
ATOM      2  C   LIG A   1      -8.910   5.031 132.734  0.00  0.00    +0.123 C 
ATOM      3  C   LIG A   1      -9.179   3.583 133.158  0.00  0.00    +0.060 C 
ATOM      4  O   LIG A   1     -10.175   5.722 132.811  0.00  0.00    -0.481 OA
ATOM      5  C   LIG A   1     -10.735   6.209 131.665  0.00  0.00    +0.132 A 
ATOM      6  C   LIG A   1     -11.999   6.788 131.813  0.00  0.00    +0.047 A 
ATOM      7  C   LIG A   1     -12.667   7.326 130.711  0.00  0.00    +0.015 A 
ATOM      8  C   LIG A   1     -12.067   7.289 129.451  0.00  0.00    +0.018 A 
ATOM      9  C   LIG A   1     -10.803   6.709 129.317  0.00  0.00    +0.150 A 
ATOM     10  O   LIG A   1     -10.181   6.667 128.046  0.00  0.00    -0.421 OA
ATOM     11  C   LIG A   1     -10.786   7.188 126.913  0.00  0.00    +0.337 A 
ATOM     12  C   LIG A   1     -12.117   7.791 127.091  0.00  0.00    +0.092 A 
ATOM     13  C   LIG A   1     -12.726   7.843 128.278  0.00  0.00    +0.018 A 
ATOM     14  O   LIG A   1     -10.255   7.156 125.811  0.00  0.00    -0.245 OA
ATOM     15  C   LIG A   1     -10.119   6.163 130.412  0.00  0.00    +0.059 A 
ATOM     16  C   LIG A   1      -8.797   5.564 130.288  0.00  0.00    +0.015 C 
ATOM     17  C   LIG A   1      -8.240   5.037 131.381  0.00  0.00    +0.020 C 
ENDROOT
TORSDOF 0
ENDMDL
MODEL 3
REMARK VINA RESULT:      -7.3     10.611     12.051
REMARK  Name = NuBBE_647
REMARK  2 active torsions:
REMARK  status: ('A' for Active; 'I' for Inactive)
REMARK    1  A    between atoms: C_1  and  C_2
REMARK    2  A    between atoms: C_2  and  C_3
REMARK                            x       y       z     vdW  Elec       q    Type
REMARK                         _______ _______ _______ _____ _____    ______ ____
ROOT
ATOM      1  C   LIG A   1      -6.357  -3.957 130.534  0.00  0.00    +0.060 C 
ATOM      2  C   LIG A   1      -7.114  -2.868 129.765  0.00  0.00    +0.123 C 
ATOM      3  C   LIG A   1      -7.573  -1.769 130.729  0.00  0.00    +0.060 C 
ATOM      4  O   LIG A   1      -6.149  -2.260 128.880  0.00  0.00    -0.481 OA
ATOM      5  C   LIG A   1      -6.439  -2.161 127.550  0.00  0.00    +0.132 A 
ATOM      6  C   LIG A   1      -5.491  -1.483 126.777  0.00  0.00    +0.047 A 
ATOM      7  C   LIG A   1      -5.678  -1.326 125.402  0.00  0.00    +0.015 A 
ATOM      8  C   LIG A   1      -6.818  -1.852 124.793  0.00  0.00    +0.018 A 
ATOM      9  C   LIG A   1      -7.756  -2.529 125.576  0.00  0.00    +0.150 A 
ATOM     10  O   LIG A   1      -8.916  -3.071 124.971  0.00  0.00    -0.421 OA
ATOM     11  C   LIG A   1      -9.159  -2.956 123.612  0.00  0.00    +0.337 A 
ATOM     12  C   LIG A   1      -8.150  -2.237 122.817  0.00  0.00    +0.092 A 
ATOM     13  C   LIG A   1      -7.048  -1.716 123.363  0.00  0.00    +0.018 A 
ATOM     14  O   LIG A   1     -10.159  -3.422 123.081  0.00  0.00    -0.245 OA
ATOM     15  C   LIG A   1      -7.586  -2.695 126.958  0.00  0.00    +0.059 A 
ATOM     16  C   LIG A   1      -8.552  -3.406 127.784  0.00  0.00    +0.015 C 
ATOM     17  C   LIG A   1      -8.321  -3.482 129.097  0.00  0.00    +0.020 C 
ENDROOT
TORSDOF 0
ENDMDL
MODEL 4
REMARK VINA RESULT:      -7.0      1.775      5.854
REMARK  Name = NuBBE_647
REMARK  2 active torsions:
REMARK  status: ('A' for Active; 'I' for Inactive)
REMARK    1  A    between atoms: C_1  and  C_2
REMARK    2  A    between atoms: C_2  and  C_3
REMARK                            x       y       z     vdW  Elec       q    Type
REMARK                         _______ _______ _______ _____ _____    ______ ____
ROOT
ATOM      1  C   LIG A   1      -4.223   6.554 133.591  0.00  0.00    +0.060 C 
ATOM      2  C   LIG A   1      -5.058   5.811 132.543  0.00  0.00    +0.123 C 
ATOM      3  C   LIG A   1      -4.379   4.485 132.177  0.00  0.00    +0.060 C 
ATOM      4  O   LIG A   1      -6.301   5.469 133.191  0.00  0.00    -0.481 OA
ATOM      5  C   LIG A   1      -7.478   5.817 132.593  0.00  0.00    +0.132 A 
ATOM      6  C   LIG A   1      -8.635   5.375 133.242  0.00  0.00    +0.047 A 
ATOM      7  C   LIG A   1      -9.897   5.677 132.726  0.00  0.00    +0.015 A 
ATOM      8  C   LIG A   1     -10.006   6.429 131.556  0.00  0.00    +0.018 A 
ATOM      9  C   LIG A   1      -8.842   6.867 130.918  0.00  0.00    +0.150 A 
ATOM     10  O   LIG A   1      -8.936   7.632 129.732  0.00  0.00    -0.421 OA
ATOM     11  C   LIG A   1     -10.157   7.972 129.170  0.00  0.00    +0.337 A 
ATOM     12  C   LIG A   1     -11.362   7.495 129.868  0.00  0.00    +0.092 A 
ATOM     13  C   LIG A   1     -11.301   6.770 130.988  0.00  0.00    +0.018 A 
ATOM     14  O   LIG A   1     -10.248   8.635 128.145  0.00  0.00    -0.245 OA
ATOM     15  C   LIG A   1      -7.567   6.571 131.421  0.00  0.00    +0.059 A 
ATOM     16  C   LIG A   1      -6.346   7.028 130.772  0.00  0.00    +0.015 C 
ATOM     17  C   LIG A   1      -5.176   6.667 131.305  0.00  0.00    +0.020 C 
ENDROOT
TORSDOF 0
ENDMDL
MODEL 5
REMARK VINA RESULT:      -6.8      2.582      5.417
REMARK  Name = NuBBE_647
REMARK  2 active torsions:
REMARK  status: ('A' for Active; 'I' for Inactive)
REMARK    1  A    between atoms: C_1  and  C_2
REMARK    2  A    between atoms: C_2  and  C_3
REMARK                            x       y       z     vdW  Elec       q    Type
REMARK                         _______ _______ _______ _____ _____    ______ ____
ROOT
ATOM      1  C   LIG A   1      -6.568   3.524 131.679  0.00  0.00    +0.060 C 
ATOM      2  C   LIG A   1      -7.926   3.406 130.979  0.00  0.00    +0.123 C 
ATOM      3  C   LIG A   1      -8.464   1.977 131.116  0.00  0.00    +0.060 C 
ATOM      4  O   LIG A   1      -8.830   4.256 131.716  0.00  0.00    -0.481 OA
ATOM      5  C   LIG A   1      -9.558   5.193 131.041  0.00  0.00    +0.132 A 
ATOM      6  C   LIG A   1     -10.471   5.916 131.815  0.00  0.00    +0.047 A 
ATOM      7  C   LIG A   1     -11.266   6.906 131.233  0.00  0.00    +0.015 A 
ATOM      8  C   LIG A   1     -11.146   7.180 129.870  0.00  0.00    +0.018 A 
ATOM      9  C   LIG A   1     -10.228   6.452 129.109  0.00  0.00    +0.150 A 
ATOM     10  O   LIG A   1     -10.094   6.720 127.725  0.00  0.00    -0.421 OA
ATOM     11  C   LIG A   1     -10.847   7.693 127.088  0.00  0.00    +0.337 A 
ATOM     12  C   LIG A   1     -11.804   8.441 127.920  0.00  0.00    +0.092 A 
ATOM     13  C   LIG A   1     -11.951   8.207 129.226  0.00  0.00    +0.018 A 
ATOM     14  O   LIG A   1     -10.736   7.932 125.892  0.00  0.00    -0.245 OA
ATOM     15  C   LIG A   1      -9.423   5.454 129.676  0.00  0.00    +0.059 A 
ATOM     16  C   LIG A   1      -8.456   4.693 128.895  0.00  0.00    +0.015 C 
ATOM     17  C   LIG A   1      -7.760   3.737 129.515  0.00  0.00    +0.020 C 
ENDROOT
TORSDOF 0
ENDMDL
MODEL 6
REMARK VINA RESULT:      -6.8     10.564     11.964
REMARK  Name = NuBBE_647
REMARK  2 active torsions:
REMARK  status: ('A' for Active; 'I' for Inactive)
REMARK    1  A    between atoms: C_1  and  C_2
REMARK    2  A    between atoms: C_2  and  C_3
REMARK                            x       y       z     vdW  Elec       q    Type
REMARK                         _______ _______ _______ _____ _____    ______ ____
ROOT
ATOM      1  C   LIG A   1      -5.683  -1.392 130.869  0.00  0.00    +0.060 C 
ATOM      2  C   LIG A   1      -5.583  -2.480 129.794  0.00  0.00    +0.123 C 
ATOM      3  C   LIG A   1      -4.789  -3.676 130.333  0.00  0.00    +0.060 C 
ATOM      4  O   LIG A   1      -6.930  -2.948 129.573  0.00  0.00    -0.481 OA
ATOM      5  C   LIG A   1      -7.421  -2.977 128.300  0.00  0.00    +0.132 A 
ATOM      6  C   LIG A   1      -8.701  -3.524 128.162  0.00  0.00    +0.047 A 
ATOM      7  C   LIG A   1      -9.309  -3.599 126.907  0.00  0.00    +0.015 A 
ATOM      8  C   LIG A   1      -8.636  -3.122 125.781  0.00  0.00    +0.018 A 
ATOM      9  C   LIG A   1      -7.359  -2.577 125.933  0.00  0.00    +0.150 A 
ATOM     10  O   LIG A   1      -6.665  -2.087 124.800  0.00  0.00    -0.421 OA
ATOM     11  C   LIG A   1      -7.213  -2.126 123.528  0.00  0.00    +0.337 A 
ATOM     12  C   LIG A   1      -8.560  -2.707 123.405  0.00  0.00    +0.092 A 
ATOM     13  C   LIG A   1      -9.235  -3.177 124.457  0.00  0.00    +0.018 A 
ATOM     14  O   LIG A   1      -6.620  -1.704 122.543  0.00  0.00    -0.245 OA
ATOM     15  C   LIG A   1      -6.733  -2.495 127.185  0.00  0.00    +0.059 A 
ATOM     16  C   LIG A   1      -5.405  -1.920 127.358  0.00  0.00    +0.015 C 
ATOM     17  C   LIG A   1      -4.876  -1.918 128.584  0.00  0.00    +0.020 C 
ENDROOT
TORSDOF 0
ENDMDL
MODEL 7
REMARK VINA RESULT:      -6.8      2.739      3.510
REMARK  Name = NuBBE_647
REMARK  2 active torsions:
REMARK  status: ('A' for Active; 'I' for Inactive)
REMARK    1  A    between atoms: C_1  and  C_2
REMARK    2  A    between atoms: C_2  and  C_3
REMARK                            x       y       z     vdW  Elec       q    Type
REMARK                         _______ _______ _______ _____ _____    ______ ____
ROOT
ATOM      1  C   LIG A   1     -12.630   8.852 129.552  0.00  0.00    +0.060 C 
ATOM      2  C   LIG A   1     -11.719   7.756 128.988  0.00  0.00    +0.123 C 
ATOM      3  C   LIG A   1     -11.502   7.977 127.487  0.00  0.00    +0.060 C 
ATOM      4  O   LIG A   1     -10.435   7.940 129.620  0.00  0.00    -0.481 OA
ATOM      5  C   LIG A   1      -9.843   6.879 130.242  0.00  0.00    +0.132 A 
ATOM      6  C   LIG A   1      -8.564   7.119 130.753  0.00  0.00    +0.047 A 
ATOM      7  C   LIG A   1      -7.865   6.109 131.417  0.00  0.00    +0.015 A 
ATOM      8  C   LIG A   1      -8.447   4.850 131.575  0.00  0.00    +0.018 A 
ATOM      9  C   LIG A   1      -9.727   4.624 131.062  0.00  0.00    +0.150 A 
ATOM     10  O   LIG A   1     -10.331   3.354 131.216  0.00  0.00    -0.421 OA
ATOM     11  C   LIG A   1      -9.695   2.311 131.869  0.00  0.00    +0.337 A 
ATOM     12  C   LIG A   1      -8.349   2.584 132.398  0.00  0.00    +0.092 A 
ATOM     13  C   LIG A   1      -7.755   3.772 132.265  0.00  0.00    +0.018 A 
ATOM     14  O   LIG A   1     -10.211   1.209 132.008  0.00  0.00    -0.245 OA
ATOM     15  C   LIG A   1     -10.443   5.626 130.391  0.00  0.00    +0.059 A 
ATOM     16  C   LIG A   1     -11.781   5.407 129.859  0.00  0.00    +0.015 C 
ATOM     17  C   LIG A   1     -12.370   6.410 129.204  0.00  0.00    +0.020 C 
ENDROOT
TORSDOF 0
ENDMDL
MODEL 8
REMARK VINA RESULT:      -6.8      2.392      6.598
REMARK  Name = NuBBE_647
REMARK  2 active torsions:
REMARK  status: ('A' for Active; 'I' for Inactive)
REMARK    1  A    between atoms: C_1  and  C_2
REMARK    2  A    between atoms: C_2  and  C_3
REMARK                            x       y       z     vdW  Elec       q    Type
REMARK                         _______ _______ _______ _____ _____    ______ ____
ROOT
ATOM      1  C   LIG A   1      -2.231   7.790 132.523  0.00  0.00    +0.060 C 
ATOM      2  C   LIG A   1      -3.109   6.777 131.780  0.00  0.00    +0.123 C 
ATOM      3  C   LIG A   1      -2.245   5.630 131.244  0.00  0.00    +0.060 C 
ATOM      4  O   LIG A   1      -3.982   6.201 132.774  0.00  0.00    -0.481 OA
ATOM      5  C   LIG A   1      -5.330   6.198 132.552  0.00  0.00    +0.132 A 
ATOM      6  C   LIG A   1      -6.097   5.546 133.522  0.00  0.00    +0.047 A 
ATOM      7  C   LIG A   1      -7.487   5.486 133.403  0.00  0.00    +0.015 A 
ATOM      8  C   LIG A   1      -8.117   6.083 132.310  0.00  0.00    +0.018 A 
ATOM      9  C   LIG A   1      -7.338   6.733 131.350  0.00  0.00    +0.150 A 
ATOM     10  O   LIG A   1      -7.963   7.346 130.237  0.00  0.00    -0.421 OA
ATOM     11  C   LIG A   1      -9.337   7.328 130.062  0.00  0.00    +0.337 A 
ATOM     12  C   LIG A   1     -10.127   6.635 131.094  0.00  0.00    +0.092 A 
ATOM     13  C   LIG A   1      -9.562   6.048 132.152  0.00  0.00    +0.018 A 
ATOM     14  O   LIG A   1      -9.886   7.856 129.103  0.00  0.00    -0.245 OA
ATOM     15  C   LIG A   1      -5.941   6.802 131.452  0.00  0.00    +0.059 A 
ATOM     16  C   LIG A   1      -5.119   7.485 130.462  0.00  0.00    +0.015 C 
ATOM     17  C   LIG A   1      -3.794   7.467 130.625  0.00  0.00    +0.020 C 
ENDROOT
TORSDOF 0
ENDMDL
MODEL 9
REMARK VINA RESULT:      -6.5      9.539     10.156
REMARK  Name = NuBBE_647
REMARK  2 active torsions:
REMARK  status: ('A' for Active; 'I' for Inactive)
REMARK    1  A    between atoms: C_1  and  C_2
REMARK    2  A    between atoms: C_2  and  C_3
REMARK                            x       y       z     vdW  Elec       q    Type
REMARK                         _______ _______ _______ _____ _____    ______ ____
ROOT
ATOM      1  C   LIG A   1      -7.519  -3.941 124.571  0.00  0.00    +0.060 C 
ATOM      2  C   LIG A   1      -8.291  -2.742 124.008  0.00  0.00    +0.123 C 
ATOM      3  C   LIG A   1      -9.590  -3.218 123.349  0.00  0.00    +0.060 C 
ATOM      4  O   LIG A   1      -8.677  -1.946 125.148  0.00  0.00    -0.481 OA
ATOM      5  C   LIG A   1      -8.370  -0.615 125.161  0.00  0.00    +0.132 A 
ATOM      6  C   LIG A   1      -8.854   0.101 126.260  0.00  0.00    +0.047 A 
ATOM      7  C   LIG A   1      -8.597   1.468 126.385  0.00  0.00    +0.015 A 
ATOM      8  C   LIG A   1      -7.848   2.125 125.407  0.00  0.00    +0.018 A 
ATOM      9  C   LIG A   1      -7.368   1.397 124.315  0.00  0.00    +0.150 A 
ATOM     10  O   LIG A   1      -6.605   2.048 123.317  0.00  0.00    -0.421 OA
ATOM     11  C   LIG A   1      -6.308   3.400 123.383  0.00  0.00    +0.337 A 
ATOM     12  C   LIG A   1      -6.828   4.136 124.547  0.00  0.00    +0.092 A 
ATOM     13  C   LIG A   1      -7.552   3.546 125.502  0.00  0.00    +0.018 A 
ATOM     14  O   LIG A   1      -5.647   3.971 122.525  0.00  0.00    -0.245 OA
ATOM     15  C   LIG A   1      -7.618   0.024 124.174  0.00  0.00    +0.059 A 
ATOM     16  C   LIG A   1      -7.117  -0.749 123.045  0.00  0.00    +0.015 C 
ATOM     17  C   LIG A   1      -7.437  -2.043 122.977  0.00  0.00    +0.020 C 
ENDROOT
TORSDOF 0
ENDMDL
