MODEL 1
REMARK VINA RESULT:      -8.8      0.000      0.000
REMARK  Name = NuBBE_1033
REMARK  12 active torsions:
REMARK  status: ('A' for Active; 'I' for Inactive)
REMARK    1  A    between atoms: C_1  and  C_2
REMARK    2  A    between atoms: C_2  and  C_41
REMARK    3  A    between atoms: C_3  and  O_4
REMARK    4  A    between atoms: O_4  and  C_5
REMARK    5  A    between atoms: C_5  and  C_6
REMARK    6  A    between atoms: C_10  and  C_40
REMARK    7  A    between atoms: C_14  and  C_38
REMARK    8  A    between atoms: C_19  and  C_36
REMARK    9  A    between atoms: C_22  and  C_33
REMARK   10  A    between atoms: C_24  and  C_31
REMARK   11  A    between atoms: C_26  and  C_27
REMARK   12  A    between atoms: C_33  and  O_34
REMARK                            x       y       z     vdW  Elec       q    Type
REMARK                         _______ _______ _______ _____ _____    ______ ____
ROOT
ATOM      1  C   LIG A   1      -5.225  -4.625 132.494  0.00  0.00    +0.015 C 
ATOM      2  C   LIG A   1      -4.430  -3.447 131.897  0.00  0.00    +0.005 C 
ATOM      3  C   LIG A   1      -4.026  -2.456 133.051  0.00  0.00    +0.182 C 
ATOM      4  C   LIG A   1      -5.231  -1.592 133.536  0.00  0.00    +0.046 C 
ATOM      5  C   LIG A   1      -6.150  -0.957 132.444  0.00  0.00    +0.011 C 
ATOM      6  C   LIG A   1      -6.538  -1.936 131.284  0.00  0.00    -0.025 C 
ATOM      7  C   LIG A   1      -5.172  -2.558 130.847  0.00  0.00    +0.004 C 
ATOM      8  C   LIG A   1      -5.162  -2.953 129.375  0.00  0.00    +0.005 C 
ATOM      9  C   LIG A   1      -5.161  -1.655 128.536  0.00  0.00    +0.008 C 
ATOM     10  C   LIG A   1      -6.267  -0.598 128.928  0.00  0.00    -0.019 C 
ATOM     11  C   LIG A   1      -7.247  -1.241 130.001  0.00  0.00    +0.006 C 
ATOM     12  C   LIG A   1      -8.284  -2.204 129.268  0.00  0.00    +0.031 C 
ATOM     13  C   LIG A   1      -8.208  -2.342 127.768  0.00  0.00    -0.026 C 
ATOM     14  C   LIG A   1      -7.609  -1.442 126.973  0.00  0.00    -0.063 C 
ATOM     15  C   LIG A   1      -7.105  -0.148 127.625  0.00  0.00    -0.005 C 
ATOM     16  C   LIG A   1      -6.265   0.670 126.596  0.00  0.00    +0.012 C 
ATOM     17  C   LIG A   1      -6.965   0.839 125.236  0.00  0.00    +0.019 C 
ATOM     18  C   LIG A   1      -7.402  -0.506 124.577  0.00  0.00    +0.074 C 
ATOM     19  C   LIG A   1      -7.155  -1.704 125.528  0.00  0.00    +0.035 C 
ATOM     20  C   LIG A   1      -7.381  -3.109 124.881  0.00  0.00    -0.003 C 
ATOM     21  C   LIG A   1      -6.516  -3.265 123.595  0.00  0.00    -0.011 C 
ATOM     22  C   LIG A   1      -5.032  -3.492 123.924  0.00  0.00    +0.008 C 
ATOM     23  C   LIG A   1      -6.691  -2.073 122.642  0.00  0.00    +0.004 C 
ATOM     24  C   LIG A   1      -6.500  -0.717 123.322  0.00  0.00    +0.019 C 
ATOM     25  C   LIG A   1      -8.835  -3.474 124.561  0.00  0.00    +0.008 C 
ATOM     26  C   LIG A   1      -8.320   0.757 127.997  0.00  0.00    +0.016 C 
ATOM     27  C   LIG A   1      -5.566   0.650 129.522  0.00  0.00    +0.012 C 
ATOM     28  C   LIG A   1      -7.586  -2.893 131.922  0.00  0.00    +0.012 C 
ATOM     29  C   LIG A   1      -3.201  -4.122 131.240  0.00  0.00    +0.015 C 
ENDROOT
BRANCH  18  30
ATOM     30  C   LIG A   1      -8.862  -0.337 124.126  0.00  0.00    +0.311 C 
ATOM     31  O   LIG A   1      -9.202  -0.302 122.947  0.00  0.00    -0.250 OA
BRANCH  30  32
ATOM     32  O   LIG A   1      -9.779  -0.151 125.094  0.00  0.00    -0.480 OA
ATOM     33  H   LIG A   1      -9.533  -0.464 125.985  0.00  0.00    +0.295 HD
ENDBRANCH  30  32
ENDBRANCH  18  30
BRANCH   3  34
ATOM     34  O   LIG A   1      -2.989  -1.529 132.616  0.00  0.00    -0.461 OA
BRANCH  34  35
ATOM     35  C   LIG A   1      -2.391  -0.760 133.566  0.00  0.00    +0.304 C 
ATOM     36  C   LIG A   1      -1.501  -1.575 134.449  0.00  0.00    +0.136 C 
ATOM     37  O   LIG A   1      -2.523   0.457 133.690  0.00  0.00    -0.251 OA
ENDBRANCH  34  35
ENDBRANCH   3  34
TORSDOF 4
ENDMDL
MODEL 2
REMARK VINA RESULT:      -8.5      4.307      5.984
REMARK  Name = NuBBE_1033
REMARK  12 active torsions:
REMARK  status: ('A' for Active; 'I' for Inactive)
REMARK    1  A    between atoms: C_1  and  C_2
REMARK    2  A    between atoms: C_2  and  C_41
REMARK    3  A    between atoms: C_3  and  O_4
REMARK    4  A    between atoms: O_4  and  C_5
REMARK    5  A    between atoms: C_5  and  C_6
REMARK    6  A    between atoms: C_10  and  C_40
REMARK    7  A    between atoms: C_14  and  C_38
REMARK    8  A    between atoms: C_19  and  C_36
REMARK    9  A    between atoms: C_22  and  C_33
REMARK   10  A    between atoms: C_24  and  C_31
REMARK   11  A    between atoms: C_26  and  C_27
REMARK   12  A    between atoms: C_33  and  O_34
REMARK                            x       y       z     vdW  Elec       q    Type
REMARK                         _______ _______ _______ _____ _____    ______ ____
ROOT
ATOM      1  C   LIG A   1      -6.518  -3.781 129.909  0.00  0.00    +0.015 C 
ATOM      2  C   LIG A   1      -5.352  -3.243 130.761  0.00  0.00    +0.005 C 
ATOM      3  C   LIG A   1      -5.412  -3.893 132.193  0.00  0.00    +0.182 C 
ATOM      4  C   LIG A   1      -6.540  -3.275 133.075  0.00  0.00    +0.046 C 
ATOM      5  C   LIG A   1      -6.685  -1.719 133.076  0.00  0.00    +0.011 C 
ATOM      6  C   LIG A   1      -6.607  -1.067 131.653  0.00  0.00    -0.025 C 
ATOM      7  C   LIG A   1      -5.325  -1.702 131.022  0.00  0.00    +0.004 C 
ATOM      8  C   LIG A   1      -4.657  -0.772 130.015  0.00  0.00    +0.005 C 
ATOM      9  C   LIG A   1      -4.032   0.404 130.799  0.00  0.00    +0.008 C 
ATOM     10  C   LIG A   1      -4.998   1.123 131.820  0.00  0.00    -0.019 C 
ATOM     11  C   LIG A   1      -6.468   0.549 131.640  0.00  0.00    +0.006 C 
ATOM     12  C   LIG A   1      -7.152   1.220 130.367  0.00  0.00    +0.031 C 
ATOM     13  C   LIG A   1      -6.373   2.245 129.582  0.00  0.00    -0.026 C 
ATOM     14  C   LIG A   1      -5.322   2.914 130.081  0.00  0.00    -0.063 C 
ATOM     15  C   LIG A   1      -5.000   2.717 131.569  0.00  0.00    -0.005 C 
ATOM     16  C   LIG A   1      -3.643   3.404 131.911  0.00  0.00    +0.012 C 
ATOM     17  C   LIG A   1      -3.545   4.851 131.395  0.00  0.00    +0.019 C 
ATOM     18  C   LIG A   1      -3.815   4.997 129.866  0.00  0.00    +0.074 C 
ATOM     19  C   LIG A   1      -4.267   3.652 129.243  0.00  0.00    +0.035 C 
ATOM     20  C   LIG A   1      -4.371   3.658 127.684  0.00  0.00    -0.003 C 
ATOM     21  C   LIG A   1      -3.024   4.112 127.046  0.00  0.00    -0.011 C 
ATOM     22  C   LIG A   1      -1.954   3.011 127.117  0.00  0.00    +0.008 C 
ATOM     23  C   LIG A   1      -2.511   5.419 127.669  0.00  0.00    +0.004 C 
ATOM     24  C   LIG A   1      -2.460   5.386 129.196  0.00  0.00    +0.019 C 
ATOM     25  C   LIG A   1      -5.517   4.486 127.091  0.00  0.00    +0.008 C 
ATOM     26  C   LIG A   1      -6.075   3.442 132.436  0.00  0.00    +0.016 C 
ATOM     27  C   LIG A   1      -4.487   0.849 133.257  0.00  0.00    +0.012 C 
ATOM     28  C   LIG A   1      -7.974  -1.414 130.995  0.00  0.00    +0.012 C 
ATOM     29  C   LIG A   1      -4.088  -3.665 129.973  0.00  0.00    +0.015 C 
ENDROOT
BRANCH  18  30
ATOM     30  C   LIG A   1      -4.813   6.153 129.690  0.00  0.00    +0.311 C 
ATOM     31  O   LIG A   1      -6.006   6.059 129.962  0.00  0.00    -0.250 OA
BRANCH  30  32
ATOM     32  O   LIG A   1      -4.338   7.287 129.143  0.00  0.00    -0.480 OA
ATOM     33  H   LIG A   1      -4.934   8.058 129.163  0.00  0.00    +0.295 HD
ENDBRANCH  30  32
ENDBRANCH  18  30
BRANCH   3  34
ATOM     34  O   LIG A   1      -4.160  -3.705 132.915  0.00  0.00    -0.461 OA
BRANCH  34  35
ATOM     35  C   LIG A   1      -3.470  -4.818 133.282  0.00  0.00    +0.304 C 
ATOM     36  C   LIG A   1      -4.391  -5.942 133.636  0.00  0.00    +0.136 C 
ATOM     37  O   LIG A   1      -2.244  -4.928 133.301  0.00  0.00    -0.251 OA
ENDBRANCH  34  35
ENDBRANCH   3  34
TORSDOF 4
ENDMDL
MODEL 3
REMARK VINA RESULT:      -8.5      1.350      8.289
REMARK  Name = NuBBE_1033
REMARK  12 active torsions:
REMARK  status: ('A' for Active; 'I' for Inactive)
REMARK    1  A    between atoms: C_1  and  C_2
REMARK    2  A    between atoms: C_2  and  C_41
REMARK    3  A    between atoms: C_3  and  O_4
REMARK    4  A    between atoms: O_4  and  C_5
REMARK    5  A    between atoms: C_5  and  C_6
REMARK    6  A    between atoms: C_10  and  C_40
REMARK    7  A    between atoms: C_14  and  C_38
REMARK    8  A    between atoms: C_19  and  C_36
REMARK    9  A    between atoms: C_22  and  C_33
REMARK   10  A    between atoms: C_24  and  C_31
REMARK   11  A    between atoms: C_26  and  C_27
REMARK   12  A    between atoms: C_33  and  O_34
REMARK                            x       y       z     vdW  Elec       q    Type
REMARK                         _______ _______ _______ _____ _____    ______ ____
ROOT
ATOM      1  C   LIG A   1      -8.010  -3.874 124.796  0.00  0.00    +0.015 C 
ATOM      2  C   LIG A   1      -8.546  -2.597 125.472  0.00  0.00    +0.005 C 
ATOM      3  C   LIG A   1      -8.660  -1.450 124.400  0.00  0.00    +0.182 C 
ATOM      4  C   LIG A   1      -7.268  -0.850 124.028  0.00  0.00    +0.046 C 
ATOM      5  C   LIG A   1      -6.283  -0.533 125.198  0.00  0.00    +0.011 C 
ATOM      6  C   LIG A   1      -6.182  -1.665 126.276  0.00  0.00    -0.025 C 
ATOM      7  C   LIG A   1      -7.673  -1.989 126.618  0.00  0.00    +0.004 C 
ATOM      8  C   LIG A   1      -7.842  -2.488 128.049  0.00  0.00    +0.005 C 
ATOM      9  C   LIG A   1      -7.589  -1.296 128.999  0.00  0.00    +0.008 C 
ATOM     10  C   LIG A   1      -6.255  -0.493 128.733  0.00  0.00    -0.019 C 
ATOM     11  C   LIG A   1      -5.397  -1.256 127.636  0.00  0.00    +0.006 C 
ATOM     12  C   LIG A   1      -4.641  -2.487 128.309  0.00  0.00    +0.031 C 
ATOM     13  C   LIG A   1      -4.817  -2.724 129.788  0.00  0.00    -0.026 C 
ATOM     14  C   LIG A   1      -5.235  -1.777 130.643  0.00  0.00    -0.063 C 
ATOM     15  C   LIG A   1      -5.400  -0.354 130.094  0.00  0.00    -0.005 C 
ATOM     16  C   LIG A   1      -6.081   0.550 131.168  0.00  0.00    +0.012 C 
ATOM     17  C   LIG A   1      -5.426   0.444 132.557  0.00  0.00    +0.019 C 
ATOM     18  C   LIG A   1      -5.338  -1.014 133.105  0.00  0.00    +0.074 C 
ATOM     19  C   LIG A   1      -5.804  -2.043 132.045  0.00  0.00    +0.035 C 
ATOM     20  C   LIG A   1      -5.933  -3.509 132.571  0.00  0.00    -0.003 C 
ATOM     21  C   LIG A   1      -6.871  -3.565 133.813  0.00  0.00    -0.011 C 
ATOM     22  C   LIG A   1      -8.351  -3.419 133.424  0.00  0.00    +0.008 C 
ATOM     23  C   LIG A   1      -6.476  -2.525 134.873  0.00  0.00    +0.004 C 
ATOM     24  C   LIG A   1      -6.323  -1.112 134.311  0.00  0.00    +0.019 C 
ATOM     25  C   LIG A   1      -4.616  -4.223 132.898  0.00  0.00    +0.008 C 
ATOM     26  C   LIG A   1      -3.996   0.275 129.838  0.00  0.00    +0.016 C 
ATOM     27  C   LIG A   1      -6.626   0.926 128.234  0.00  0.00    +0.012 C 
ATOM     28  C   LIG A   1      -5.349  -2.783 125.585  0.00  0.00    +0.012 C 
ATOM     29  C   LIG A   1      -9.926  -3.022 126.032  0.00  0.00    +0.015 C 
ENDROOT
BRANCH  18  30
ATOM     30  C   LIG A   1      -3.901  -1.221 133.611  0.00  0.00    +0.311 C 
ATOM     31  O   LIG A   1      -3.610  -1.293 134.801  0.00  0.00    -0.250 OA
BRANCH  30  32
ATOM     32  O   LIG A   1      -2.928  -1.251 132.680  0.00  0.00    -0.480 OA
ATOM     33  H   LIG A   1      -2.897  -2.046 132.116  0.00  0.00    +0.295 HD
ENDBRANCH  30  32
ENDBRANCH  18  30
BRANCH   3  34
ATOM     34  O   LIG A   1      -9.479  -0.347 124.887  0.00  0.00    -0.461 OA
BRANCH  34  35
ATOM     35  C   LIG A   1      -9.854   0.604 123.989  0.00  0.00    +0.304 C 
ATOM     36  C   LIG A   1      -9.504   1.977 124.467  0.00  0.00    +0.136 C 
ATOM     37  O   LIG A   1     -10.387   0.391 122.901  0.00  0.00    -0.251 OA
ENDBRANCH  34  35
ENDBRANCH   3  34
TORSDOF 4
ENDMDL
MODEL 4
REMARK VINA RESULT:      -8.4      3.415      4.524
REMARK  Name = NuBBE_1033
REMARK  12 active torsions:
REMARK  status: ('A' for Active; 'I' for Inactive)
REMARK    1  A    between atoms: C_1  and  C_2
REMARK    2  A    between atoms: C_2  and  C_41
REMARK    3  A    between atoms: C_3  and  O_4
REMARK    4  A    between atoms: O_4  and  C_5
REMARK    5  A    between atoms: C_5  and  C_6
REMARK    6  A    between atoms: C_10  and  C_40
REMARK    7  A    between atoms: C_14  and  C_38
REMARK    8  A    between atoms: C_19  and  C_36
REMARK    9  A    between atoms: C_22  and  C_33
REMARK   10  A    between atoms: C_24  and  C_31
REMARK   11  A    between atoms: C_26  and  C_27
REMARK   12  A    between atoms: C_33  and  O_34
REMARK                            x       y       z     vdW  Elec       q    Type
REMARK                         _______ _______ _______ _____ _____    ______ ____
ROOT
ATOM      1  C   LIG A   1      -5.850   2.426 132.518  0.00  0.00    +0.015 C 
ATOM      2  C   LIG A   1      -4.973   2.830 131.317  0.00  0.00    +0.005 C 
ATOM      3  C   LIG A   1      -4.515   4.326 131.488  0.00  0.00    +0.182 C 
ATOM      4  C   LIG A   1      -5.666   5.334 131.179  0.00  0.00    +0.046 C 
ATOM      5  C   LIG A   1      -6.530   5.074 129.904  0.00  0.00    +0.011 C 
ATOM      6  C   LIG A   1      -6.971   3.582 129.721  0.00  0.00    -0.025 C 
ATOM      7  C   LIG A   1      -5.644   2.775 129.907  0.00  0.00    +0.004 C 
ATOM      8  C   LIG A   1      -5.645   1.472 129.116  0.00  0.00    +0.005 C 
ATOM      9  C   LIG A   1      -5.551   1.828 127.615  0.00  0.00    +0.008 C 
ATOM     10  C   LIG A   1      -6.588   2.907 127.111  0.00  0.00    -0.019 C 
ATOM     11  C   LIG A   1      -7.619   3.224 128.277  0.00  0.00    +0.006 C 
ATOM     12  C   LIG A   1      -8.710   2.066 128.357  0.00  0.00    +0.031 C 
ATOM     13  C   LIG A   1      -8.629   0.926 127.373  0.00  0.00    -0.026 C 
ATOM     14  C   LIG A   1      -7.963   1.000 126.210  0.00  0.00    -0.063 C 
ATOM     15  C   LIG A   1      -7.381   2.364 125.815  0.00  0.00    -0.005 C 
ATOM     16  C   LIG A   1      -6.480   2.208 124.553  0.00  0.00    +0.012 C 
ATOM     17  C   LIG A   1      -7.153   1.418 123.417  0.00  0.00    +0.019 C 
ATOM     18  C   LIG A   1      -7.671   0.010 123.845  0.00  0.00    +0.074 C 
ATOM     19  C   LIG A   1      -7.513  -0.206 125.371  0.00  0.00    +0.035 C 
ATOM     20  C   LIG A   1      -7.825  -1.658 125.861  0.00  0.00    -0.003 C 
ATOM     21  C   LIG A   1      -6.960  -2.695 125.085  0.00  0.00    -0.011 C 
ATOM     22  C   LIG A   1      -5.497  -2.692 125.558  0.00  0.00    +0.008 C 
ATOM     23  C   LIG A   1      -7.046  -2.487 123.565  0.00  0.00    +0.004 C 
ATOM     24  C   LIG A   1      -6.773  -1.047 123.132  0.00  0.00    +0.019 C 
ATOM     25  C   LIG A   1      -9.297  -2.083 125.804  0.00  0.00    +0.008 C 
ATOM     26  C   LIG A   1      -8.537   3.324 125.396  0.00  0.00    +0.016 C 
ATOM     27  C   LIG A   1      -5.812   4.189 126.716  0.00  0.00    +0.012 C 
ATOM     28  C   LIG A   1      -8.086   3.376 130.787  0.00  0.00    +0.012 C 
ATOM     29  C   LIG A   1      -3.785   1.839 131.373  0.00  0.00    +0.015 C 
ENDROOT
BRANCH  18  30
ATOM     30  C   LIG A   1      -9.112  -0.121 123.325  0.00  0.00    +0.311 C 
ATOM     31  O   LIG A   1      -9.438  -0.896 122.431  0.00  0.00    -0.250 OA
BRANCH  30  32
ATOM     32  O   LIG A   1     -10.025   0.721 123.849  0.00  0.00    -0.480 OA
ATOM     33  H   LIG A   1     -10.469   1.319 123.220  0.00  0.00    +0.295 HD
ENDBRANCH  30  32
ENDBRANCH  18  30
BRANCH   3  34
ATOM     34  O   LIG A   1      -3.416   4.652 130.589  0.00  0.00    -0.461 OA
BRANCH  34  35
ATOM     35  C   LIG A   1      -2.401   5.412 131.084  0.00  0.00    +0.304 C 
ATOM     36  C   LIG A   1      -1.801   4.797 132.307  0.00  0.00    +0.136 C 
ATOM     37  O   LIG A   1      -1.988   6.462 130.592  0.00  0.00    -0.251 OA
ENDBRANCH  34  35
ENDBRANCH   3  34
TORSDOF 4
ENDMDL
MODEL 5
REMARK VINA RESULT:      -8.2      3.726      5.341
REMARK  Name = NuBBE_1033
REMARK  12 active torsions:
REMARK  status: ('A' for Active; 'I' for Inactive)
REMARK    1  A    between atoms: C_1  and  C_2
REMARK    2  A    between atoms: C_2  and  C_41
REMARK    3  A    between atoms: C_3  and  O_4
REMARK    4  A    between atoms: O_4  and  C_5
REMARK    5  A    between atoms: C_5  and  C_6
REMARK    6  A    between atoms: C_10  and  C_40
REMARK    7  A    between atoms: C_14  and  C_38
REMARK    8  A    between atoms: C_19  and  C_36
REMARK    9  A    between atoms: C_22  and  C_33
REMARK   10  A    between atoms: C_24  and  C_31
REMARK   11  A    between atoms: C_26  and  C_27
REMARK   12  A    between atoms: C_33  and  O_34
REMARK                            x       y       z     vdW  Elec       q    Type
REMARK                         _______ _______ _______ _____ _____    ______ ____
ROOT
ATOM      1  C   LIG A   1     -10.366   4.276 130.585  0.00  0.00    +0.015 C 
ATOM      2  C   LIG A   1      -9.217   3.318 130.955  0.00  0.00    +0.005 C 
ATOM      3  C   LIG A   1      -8.189   4.072 131.878  0.00  0.00    +0.182 C 
ATOM      4  C   LIG A   1      -7.299   5.071 131.075  0.00  0.00    +0.046 C 
ATOM      5  C   LIG A   1      -6.695   4.574 129.723  0.00  0.00    +0.011 C 
ATOM      6  C   LIG A   1      -7.711   3.806 128.811  0.00  0.00    -0.025 C 
ATOM      7  C   LIG A   1      -8.360   2.758 129.774  0.00  0.00    +0.004 C 
ATOM      8  C   LIG A   1      -8.807   1.499 129.040  0.00  0.00    +0.005 C 
ATOM      9  C   LIG A   1      -7.539   0.731 128.602  0.00  0.00    +0.008 C 
ATOM     10  C   LIG A   1      -6.460   1.593 127.836  0.00  0.00    -0.019 C 
ATOM     11  C   LIG A   1      -7.056   3.035 127.542  0.00  0.00    +0.006 C 
ATOM     12  C   LIG A   1      -8.036   2.963 126.287  0.00  0.00    +0.031 C 
ATOM     13  C   LIG A   1      -8.228   1.638 125.593  0.00  0.00    -0.026 C 
ATOM     14  C   LIG A   1      -7.362   0.618 125.698  0.00  0.00    -0.063 C 
ATOM     15  C   LIG A   1      -6.050   0.879 126.448  0.00  0.00    -0.005 C 
ATOM     16  C   LIG A   1      -5.276  -0.461 126.642  0.00  0.00    +0.012 C 
ATOM     17  C   LIG A   1      -5.150  -1.283 125.347  0.00  0.00    +0.019 C 
ATOM     18  C   LIG A   1      -6.513  -1.583 124.651  0.00  0.00    +0.074 C 
ATOM     19  C   LIG A   1      -7.679  -0.847 125.359  0.00  0.00    +0.035 C 
ATOM     20  C   LIG A   1      -9.104  -1.241 124.852  0.00  0.00    -0.003 C 
ATOM     21  C   LIG A   1      -9.313  -2.782 124.947  0.00  0.00    -0.011 C 
ATOM     22  C   LIG A   1      -9.541  -3.242 126.395  0.00  0.00    +0.008 C 
ATOM     23  C   LIG A   1      -8.154  -3.555 124.300  0.00  0.00    +0.004 C 
ATOM     24  C   LIG A   1      -6.776  -3.114 124.795  0.00  0.00    +0.019 C 
ATOM     25  C   LIG A   1      -9.468  -0.767 123.440  0.00  0.00    +0.008 C 
ATOM     26  C   LIG A   1      -5.122   1.784 125.580  0.00  0.00    +0.016 C 
ATOM     27  C   LIG A   1      -5.197   1.705 128.728  0.00  0.00    +0.012 C 
ATOM     28  C   LIG A   1      -8.636   4.920 128.241  0.00  0.00    +0.012 C 
ATOM     29  C   LIG A   1      -9.925   2.152 131.689  0.00  0.00    +0.015 C 
ENDROOT
BRANCH  18  30
ATOM     30  C   LIG A   1      -6.348  -1.237 123.162  0.00  0.00    +0.311 C 
ATOM     31  O   LIG A   1      -6.007  -2.057 122.315  0.00  0.00    -0.250 OA
BRANCH  30  32
ATOM     32  O   LIG A   1      -6.527   0.051 122.815  0.00  0.00    -0.480 OA
ATOM     33  H   LIG A   1      -7.368   0.265 122.371  0.00  0.00    +0.295 HD
ENDBRANCH  30  32
ENDBRANCH  18  30
BRANCH   3  34
ATOM     34  O   LIG A   1      -7.286   3.139 132.541  0.00  0.00    -0.461 OA
BRANCH  34  35
ATOM     35  C   LIG A   1      -7.131   3.261 133.887  0.00  0.00    +0.304 C 
ATOM     36  C   LIG A   1      -8.191   4.131 134.484  0.00  0.00    +0.136 C 
ATOM     37  O   LIG A   1      -6.257   2.715 134.559  0.00  0.00    -0.251 OA
ENDBRANCH  34  35
ENDBRANCH   3  34
TORSDOF 4
ENDMDL
MODEL 6
REMARK VINA RESULT:      -8.1      7.160     11.831
REMARK  Name = NuBBE_1033
REMARK  12 active torsions:
REMARK  status: ('A' for Active; 'I' for Inactive)
REMARK    1  A    between atoms: C_1  and  C_2
REMARK    2  A    between atoms: C_2  and  C_41
REMARK    3  A    between atoms: C_3  and  O_4
REMARK    4  A    between atoms: O_4  and  C_5
REMARK    5  A    between atoms: C_5  and  C_6
REMARK    6  A    between atoms: C_10  and  C_40
REMARK    7  A    between atoms: C_14  and  C_38
REMARK    8  A    between atoms: C_19  and  C_36
REMARK    9  A    between atoms: C_22  and  C_33
REMARK   10  A    between atoms: C_24  and  C_31
REMARK   11  A    between atoms: C_26  and  C_27
REMARK   12  A    between atoms: C_33  and  O_34
REMARK                            x       y       z     vdW  Elec       q    Type
REMARK                         _______ _______ _______ _____ _____    ______ ____
ROOT
ATOM      1  C   LIG A   1      -9.511   5.890 131.993  0.00  0.00    +0.015 C 
ATOM      2  C   LIG A   1      -8.441   5.936 130.885  0.00  0.00    +0.005 C 
ATOM      3  C   LIG A   1      -8.686   4.752 129.877  0.00  0.00    +0.182 C 
ATOM      4  C   LIG A   1      -8.236   3.377 130.462  0.00  0.00    +0.046 C 
ATOM      5  C   LIG A   1      -6.855   3.319 131.189  0.00  0.00    +0.011 C 
ATOM      6  C   LIG A   1      -6.601   4.506 132.179  0.00  0.00    -0.025 C 
ATOM      7  C   LIG A   1      -6.953   5.776 131.337  0.00  0.00    +0.004 C 
ATOM      8  C   LIG A   1      -6.157   7.000 131.777  0.00  0.00    +0.005 C 
ATOM      9  C   LIG A   1      -4.685   6.783 131.357  0.00  0.00    +0.008 C 
ATOM     10  C   LIG A   1      -4.058   5.398 131.786  0.00  0.00    -0.019 C 
ATOM     11  C   LIG A   1      -5.081   4.633 132.731  0.00  0.00    +0.006 C 
ATOM     12  C   LIG A   1      -5.004   5.238 134.203  0.00  0.00    +0.031 C 
ATOM     13  C   LIG A   1      -4.028   6.356 134.477  0.00  0.00    -0.026 C 
ATOM     14  C   LIG A   1      -2.965   6.614 133.700  0.00  0.00    -0.063 C 
ATOM     15  C   LIG A   1      -2.664   5.628 132.564  0.00  0.00    -0.005 C 
ATOM     16  C   LIG A   1      -1.531   6.197 131.656  0.00  0.00    +0.012 C 
ATOM     17  C   LIG A   1      -0.308   6.694 132.448  0.00  0.00    +0.019 C 
ATOM     18  C   LIG A   1      -0.650   7.744 133.549  0.00  0.00    +0.074 C 
ATOM     19  C   LIG A   1      -2.182   7.936 133.687  0.00  0.00    +0.035 C 
ATOM     20  C   LIG A   1      -2.612   9.108 134.627  0.00  0.00    -0.003 C 
ATOM     21  C   LIG A   1      -1.948  10.443 134.177  0.00  0.00    -0.011 C 
ATOM     22  C   LIG A   1      -2.611  11.018 132.915  0.00  0.00    +0.008 C 
ATOM     23  C   LIG A   1      -0.432  10.288 133.979  0.00  0.00    +0.004 C 
ATOM     24  C   LIG A   1      -0.052   9.109 133.085  0.00  0.00    +0.019 C 
ATOM     25  C   LIG A   1      -2.356   8.896 136.124  0.00  0.00    +0.008 C 
ATOM     26  C   LIG A   1      -2.104   4.299 133.159  0.00  0.00    +0.016 C 
ATOM     27  C   LIG A   1      -3.782   4.566 130.508  0.00  0.00    +0.012 C 
ATOM     28  C   LIG A   1      -7.507   4.188 133.404  0.00  0.00    +0.012 C 
ATOM     29  C   LIG A   1      -8.645   7.323 130.228  0.00  0.00    +0.015 C 
ENDROOT
BRANCH  18  30
ATOM     30  C   LIG A   1       0.058   7.297 134.839  0.00  0.00    +0.311 C 
ATOM     31  O   LIG A   1       1.207   7.620 135.122  0.00  0.00    -0.250 OA
BRANCH  30  32
ATOM     32  O   LIG A   1      -0.620   6.455 135.642  0.00  0.00    -0.480 OA
ATOM     33  H   LIG A   1      -1.226   5.833 135.199  0.00  0.00    +0.295 HD
ENDBRANCH  30  32
ENDBRANCH  18  30
BRANCH   3  34
ATOM     34  O   LIG A   1      -7.944   4.947 128.638  0.00  0.00    -0.461 OA
BRANCH  34  35
ATOM     35  C   LIG A   1      -7.734   3.858 127.850  0.00  0.00    +0.304 C 
ATOM     36  C   LIG A   1      -6.284   3.681 127.534  0.00  0.00    +0.136 C 
ATOM     37  O   LIG A   1      -8.604   3.081 127.456  0.00  0.00    -0.251 OA
ENDBRANCH  34  35
ENDBRANCH   3  34
TORSDOF 4
ENDMDL
MODEL 7
REMARK VINA RESULT:      -7.8      4.315      8.179
REMARK  Name = NuBBE_1033
REMARK  12 active torsions:
REMARK  status: ('A' for Active; 'I' for Inactive)
REMARK    1  A    between atoms: C_1  and  C_2
REMARK    2  A    between atoms: C_2  and  C_41
REMARK    3  A    between atoms: C_3  and  O_4
REMARK    4  A    between atoms: O_4  and  C_5
REMARK    5  A    between atoms: C_5  and  C_6
REMARK    6  A    between atoms: C_10  and  C_40
REMARK    7  A    between atoms: C_14  and  C_38
REMARK    8  A    between atoms: C_19  and  C_36
REMARK    9  A    between atoms: C_22  and  C_33
REMARK   10  A    between atoms: C_24  and  C_31
REMARK   11  A    between atoms: C_26  and  C_27
REMARK   12  A    between atoms: C_33  and  O_34
REMARK                            x       y       z     vdW  Elec       q    Type
REMARK                         _______ _______ _______ _____ _____    ______ ____
ROOT
ATOM      1  C   LIG A   1      -7.223   4.714 128.446  0.00  0.00    +0.015 C 
ATOM      2  C   LIG A   1      -7.968   4.156 129.675  0.00  0.00    +0.005 C 
ATOM      3  C   LIG A   1      -8.379   5.347 130.618  0.00  0.00    +0.182 C 
ATOM      4  C   LIG A   1      -7.165   5.909 131.421  0.00  0.00    +0.046 C 
ATOM      5  C   LIG A   1      -6.197   4.877 132.083  0.00  0.00    +0.011 C 
ATOM      6  C   LIG A   1      -5.801   3.680 131.152  0.00  0.00    -0.025 C 
ATOM      7  C   LIG A   1      -7.171   3.174 130.593  0.00  0.00    +0.004 C 
ATOM      8  C   LIG A   1      -7.148   1.683 130.272  0.00  0.00    +0.005 C 
ATOM      9  C   LIG A   1      -7.088   0.912 131.610  0.00  0.00    +0.008 C 
ATOM     10  C   LIG A   1      -5.966   1.389 132.614  0.00  0.00    -0.019 C 
ATOM     11  C   LIG A   1      -5.036   2.454 131.890  0.00  0.00    +0.006 C 
ATOM     12  C   LIG A   1      -4.005   1.703 130.935  0.00  0.00    +0.031 C 
ATOM     13  C   LIG A   1      -4.039   0.197 130.874  0.00  0.00    -0.026 C 
ATOM     14  C   LIG A   1      -4.590  -0.568 131.829  0.00  0.00    -0.063 C 
ATOM     15  C   LIG A   1      -5.077   0.134 133.103  0.00  0.00    -0.005 C 
ATOM     16  C   LIG A   1      -5.863  -0.875 133.996  0.00  0.00    +0.012 C 
ATOM     17  C   LIG A   1      -5.118  -2.205 134.211  0.00  0.00    +0.019 C 
ATOM     18  C   LIG A   1      -4.699  -2.918 132.889  0.00  0.00    +0.074 C 
ATOM     19  C   LIG A   1      -5.008  -2.036 131.653  0.00  0.00    +0.035 C 
ATOM     20  C   LIG A   1      -4.801  -2.747 130.276  0.00  0.00    -0.003 C 
ATOM     21  C   LIG A   1      -5.631  -4.064 130.209  0.00  0.00    -0.011 C 
ATOM     22  C   LIG A   1      -7.130  -3.789 130.009  0.00  0.00    +0.008 C 
ATOM     23  C   LIG A   1      -5.395  -4.950 131.442  0.00  0.00    +0.004 C 
ATOM     24  C   LIG A   1      -5.570  -4.208 132.767  0.00  0.00    +0.019 C 
ATOM     25  C   LIG A   1      -3.349  -3.045 129.885  0.00  0.00    +0.008 C 
ATOM     26  C   LIG A   1      -3.850   0.586 133.953  0.00  0.00    +0.016 C 
ATOM     27  C   LIG A   1      -6.649   2.025 133.850  0.00  0.00    +0.012 C 
ATOM     28  C   LIG A   1      -4.799   4.299 130.135  0.00  0.00    +0.012 C 
ATOM     29  C   LIG A   1      -9.195   3.431 129.069  0.00  0.00    +0.015 C 
ENDROOT
BRANCH  18  30
ATOM     30  C   LIG A   1      -3.223  -3.319 133.038  0.00  0.00    +0.311 C 
ATOM     31  O   LIG A   1      -2.846  -4.485 133.111  0.00  0.00    -0.250 OA
BRANCH  30  32
ATOM     32  O   LIG A   1      -2.332  -2.317 133.162  0.00  0.00    -0.480 OA
ATOM     33  H   LIG A   1      -2.462  -1.551 132.573  0.00  0.00    +0.295 HD
ENDBRANCH  30  32
ENDBRANCH  18  30
BRANCH   3  34
ATOM     34  O   LIG A   1      -9.376   4.930 131.596  0.00  0.00    -0.461 OA
BRANCH  34  35
ATOM     35  C   LIG A   1     -10.367   5.811 131.901  0.00  0.00    +0.304 C 
ATOM     36  C   LIG A   1     -11.460   5.780 130.880  0.00  0.00    +0.136 C 
ATOM     37  O   LIG A   1     -10.402   6.533 132.897  0.00  0.00    -0.251 OA
ENDBRANCH  34  35
ENDBRANCH   3  34
TORSDOF 4
ENDMDL
MODEL 8
REMARK VINA RESULT:      -7.8      7.161     11.543
REMARK  Name = NuBBE_1033
REMARK  12 active torsions:
REMARK  status: ('A' for Active; 'I' for Inactive)
REMARK    1  A    between atoms: C_1  and  C_2
REMARK    2  A    between atoms: C_2  and  C_41
REMARK    3  A    between atoms: C_3  and  O_4
REMARK    4  A    between atoms: O_4  and  C_5
REMARK    5  A    between atoms: C_5  and  C_6
REMARK    6  A    between atoms: C_10  and  C_40
REMARK    7  A    between atoms: C_14  and  C_38
REMARK    8  A    between atoms: C_19  and  C_36
REMARK    9  A    between atoms: C_22  and  C_33
REMARK   10  A    between atoms: C_24  and  C_31
REMARK   11  A    between atoms: C_26  and  C_27
REMARK   12  A    between atoms: C_33  and  O_34
REMARK                            x       y       z     vdW  Elec       q    Type
REMARK                         _______ _______ _______ _____ _____    ______ ____
ROOT
ATOM      1  C   LIG A   1      -6.648   1.405 133.712  0.00  0.00    +0.015 C 
ATOM      2  C   LIG A   1      -7.092   2.685 132.977  0.00  0.00    +0.005 C 
ATOM      3  C   LIG A   1      -7.720   2.295 131.588  0.00  0.00    +0.182 C 
ATOM      4  C   LIG A   1      -6.635   1.891 130.542  0.00  0.00    +0.046 C 
ATOM      5  C   LIG A   1      -5.364   2.793 130.435  0.00  0.00    +0.011 C 
ATOM      6  C   LIG A   1      -4.748   3.198 131.818  0.00  0.00    -0.025 C 
ATOM      7  C   LIG A   1      -5.974   3.722 132.634  0.00  0.00    +0.004 C 
ATOM      8  C   LIG A   1      -5.577   4.778 133.660  0.00  0.00    +0.005 C 
ATOM      9  C   LIG A   1      -5.182   6.059 132.891  0.00  0.00    +0.008 C 
ATOM     10  C   LIG A   1      -4.142   5.851 131.721  0.00  0.00    -0.019 C 
ATOM     11  C   LIG A   1      -3.611   4.354 131.755  0.00  0.00    +0.006 C 
ATOM     12  C   LIG A   1      -2.509   4.203 132.896  0.00  0.00    +0.031 C 
ATOM     13  C   LIG A   1      -2.138   5.418 133.710  0.00  0.00    -0.026 C 
ATOM     14  C   LIG A   1      -2.366   6.676 133.303  0.00  0.00    -0.063 C 
ATOM     15  C   LIG A   1      -2.903   6.872 131.879  0.00  0.00    -0.005 C 
ATOM     16  C   LIG A   1      -3.295   8.366 131.664  0.00  0.00    +0.012 C 
ATOM     17  C   LIG A   1      -2.200   9.353 132.104  0.00  0.00    +0.019 C 
ATOM     18  C   LIG A   1      -1.730   9.161 133.579  0.00  0.00    +0.074 C 
ATOM     19  C   LIG A   1      -2.383   7.910 134.219  0.00  0.00    +0.035 C 
ATOM     20  C   LIG A   1      -2.122   7.749 135.752  0.00  0.00    -0.003 C 
ATOM     21  C   LIG A   1      -2.564   9.030 136.520  0.00  0.00    -0.011 C 
ATOM     22  C   LIG A   1      -4.093   9.128 136.641  0.00  0.00    +0.008 C 
ATOM     23  C   LIG A   1      -1.980  10.303 135.890  0.00  0.00    +0.004 C 
ATOM     24  C   LIG A   1      -2.223  10.404 134.384  0.00  0.00    +0.019 C 
ATOM     25  C   LIG A   1      -0.687   7.388 136.154  0.00  0.00    +0.008 C 
ATOM     26  C   LIG A   1      -1.770   6.578 130.848  0.00  0.00    +0.016 C 
ATOM     27  C   LIG A   1      -4.852   6.139 130.374  0.00  0.00    +0.012 C 
ATOM     28  C   LIG A   1      -4.054   1.901 132.325  0.00  0.00    +0.012 C 
ATOM     29  C   LIG A   1      -8.127   3.324 133.935  0.00  0.00    +0.015 C 
ENDROOT
BRANCH  18  30
ATOM     30  C   LIG A   1      -0.192   9.147 133.567  0.00  0.00    +0.311 C 
ATOM     31  O   LIG A   1       0.492  10.109 133.900  0.00  0.00    -0.250 OA
BRANCH  30  32
ATOM     32  O   LIG A   1       0.400   8.033 133.097  0.00  0.00    -0.480 OA
ATOM     33  H   LIG A   1       1.279   7.825 133.463  0.00  0.00    +0.295 HD
ENDBRANCH  30  32
ENDBRANCH  18  30
BRANCH   3  34
ATOM     34  O   LIG A   1      -8.469   3.405 131.013  0.00  0.00    -0.461 OA
BRANCH  34  35
ATOM     35  C   LIG A   1      -9.767   3.182 130.674  0.00  0.00    +0.304 C 
ATOM     36  C   LIG A   1     -10.318   1.981 131.375  0.00  0.00    +0.136 C 
ATOM     37  O   LIG A   1     -10.439   3.878 129.913  0.00  0.00    -0.251 OA
ENDBRANCH  34  35
ENDBRANCH   3  34
TORSDOF 4
ENDMDL
MODEL 9
REMARK VINA RESULT:      -7.8      3.150      5.472
REMARK  Name = NuBBE_1033
REMARK  12 active torsions:
REMARK  status: ('A' for Active; 'I' for Inactive)
REMARK    1  A    between atoms: C_1  and  C_2
REMARK    2  A    between atoms: C_2  and  C_41
REMARK    3  A    between atoms: C_3  and  O_4
REMARK    4  A    between atoms: O_4  and  C_5
REMARK    5  A    between atoms: C_5  and  C_6
REMARK    6  A    between atoms: C_10  and  C_40
REMARK    7  A    between atoms: C_14  and  C_38
REMARK    8  A    between atoms: C_19  and  C_36
REMARK    9  A    between atoms: C_22  and  C_33
REMARK   10  A    between atoms: C_24  and  C_31
REMARK   11  A    between atoms: C_26  and  C_27
REMARK   12  A    between atoms: C_33  and  O_34
REMARK                            x       y       z     vdW  Elec       q    Type
REMARK                         _______ _______ _______ _____ _____    ______ ____
ROOT
ATOM      1  C   LIG A   1      -5.944   5.589 130.498  0.00  0.00    +0.015 C 
ATOM      2  C   LIG A   1      -6.876   4.413 130.848  0.00  0.00    +0.005 C 
ATOM      3  C   LIG A   1      -6.615   3.968 132.334  0.00  0.00    +0.182 C 
ATOM      4  C   LIG A   1      -5.290   3.159 132.484  0.00  0.00    +0.046 C 
ATOM      5  C   LIG A   1      -4.999   2.046 131.426  0.00  0.00    +0.011 C 
ATOM      6  C   LIG A   1      -5.276   2.481 129.947  0.00  0.00    -0.025 C 
ATOM      7  C   LIG A   1      -6.707   3.108 130.003  0.00  0.00    +0.004 C 
ATOM      8  C   LIG A   1      -7.458   2.953 128.685  0.00  0.00    +0.005 C 
ATOM      9  C   LIG A   1      -7.812   1.459 128.515  0.00  0.00    +0.008 C 
ATOM     10  C   LIG A   1      -6.610   0.453 128.712  0.00  0.00    -0.019 C 
ATOM     11  C   LIG A   1      -5.260   1.277 128.858  0.00  0.00    +0.006 C 
ATOM     12  C   LIG A   1      -4.762   1.749 127.420  0.00  0.00    +0.031 C 
ATOM     13  C   LIG A   1      -5.572   1.357 126.209  0.00  0.00    -0.026 C 
ATOM     14  C   LIG A   1      -6.443   0.337 126.202  0.00  0.00    -0.063 C 
ATOM     15  C   LIG A   1      -6.502  -0.550 127.453  0.00  0.00    -0.005 C 
ATOM     16  C   LIG A   1      -7.701  -1.541 127.342  0.00  0.00    +0.012 C 
ATOM     17  C   LIG A   1      -7.754  -2.284 125.995  0.00  0.00    +0.019 C 
ATOM     18  C   LIG A   1      -7.759  -1.342 124.751  0.00  0.00    +0.074 C 
ATOM     19  C   LIG A   1      -7.560   0.137 125.166  0.00  0.00    +0.035 C 
ATOM     20  C   LIG A   1      -7.745   1.171 124.008  0.00  0.00    -0.003 C 
ATOM     21  C   LIG A   1      -9.137   0.991 123.331  0.00  0.00    -0.011 C 
ATOM     22  C   LIG A   1     -10.275   1.544 124.203  0.00  0.00    +0.008 C 
ATOM     23  C   LIG A   1      -9.399  -0.473 122.947  0.00  0.00    +0.004 C 
ATOM     24  C   LIG A   1      -9.170  -1.454 124.096  0.00  0.00    +0.019 C 
ATOM     25  C   LIG A   1      -6.655   1.173 122.930  0.00  0.00    +0.008 C 
ATOM     26  C   LIG A   1      -5.222  -1.438 127.524  0.00  0.00    +0.016 C 
ATOM     27  C   LIG A   1      -6.871  -0.381 129.990  0.00  0.00    +0.012 C 
ATOM     28  C   LIG A   1      -4.094   3.430 129.596  0.00  0.00    +0.012 C 
ATOM     29  C   LIG A   1      -8.298   4.990 130.644  0.00  0.00    +0.015 C 
ENDROOT
BRANCH  18  30
ATOM     30  C   LIG A   1      -6.704  -1.880 123.771  0.00  0.00    +0.311 C 
ATOM     31  O   LIG A   1      -6.966  -2.224 122.622  0.00  0.00    -0.250 OA
BRANCH  30  32
ATOM     32  O   LIG A   1      -5.455  -2.035 124.249  0.00  0.00    -0.480 OA
ATOM     33  H   LIG A   1      -4.796  -1.381 123.951  0.00  0.00    +0.295 HD
ENDBRANCH  30  32
ENDBRANCH  18  30
BRANCH   3  34
ATOM     34  O   LIG A   1      -7.689   3.116 132.830  0.00  0.00    -0.461 OA
BRANCH  34  35
ATOM     35  C   LIG A   1      -8.510   3.628 133.786  0.00  0.00    +0.304 C 
ATOM     36  C   LIG A   1      -7.754   4.467 134.765  0.00  0.00    +0.136 C 
ATOM     37  O   LIG A   1      -9.728   3.463 133.847  0.00  0.00    -0.251 OA
ENDBRANCH  34  35
ENDBRANCH   3  34
TORSDOF 4
ENDMDL
