MODEL 1
REMARK VINA RESULT:      -7.6      0.000      0.000
REMARK  Name = NuBBE_1116
REMARK  7 active torsions:
REMARK  status: ('A' for Active; 'I' for Inactive)
REMARK    1  A    between atoms: C_3  and  C_4
REMARK    2  A    between atoms: C_4  and  C_5
REMARK    3  A    between atoms: C_4  and  C_6
REMARK    4  A    between atoms: C_4  and  C_7
REMARK    5  A    between atoms: C_14  and  O_15
REMARK    6  A    between atoms: O_15  and  C_16
REMARK    7  A    between atoms: C_17  and  O_18
REMARK                            x       y       z     vdW  Elec       q    Type
REMARK                         _______ _______ _______ _____ _____    ______ ____
ROOT
ATOM      1  O   LIG A   1     -12.994   6.869 131.472  0.00  0.00    -0.245 OA
ATOM      2  C   LIG A   1     -11.781   6.871 131.320  0.00  0.00    +0.341 A 
ATOM      3  C   LIG A   1     -11.124   7.352 130.057  0.00  0.00    +0.047 A 
ATOM      4  C   LIG A   1      -9.781   7.284 129.970  0.00  0.00    +0.023 A 
ATOM      5  O   LIG A   1     -10.956   6.418 132.348  0.00  0.00    -0.422 OA
ATOM      6  C   LIG A   1      -9.563   6.345 132.217  0.00  0.00    +0.143 A 
ATOM      7  C   LIG A   1      -8.951   6.763 131.043  0.00  0.00    +0.022 A 
ATOM      8  C   LIG A   1      -7.559   6.666 130.921  0.00  0.00    +0.061 A 
ATOM      9  C   LIG A   1      -6.799   6.149 131.973  0.00  0.00    +0.162 A 
ATOM     10  C   LIG A   1      -7.451   5.740 133.145  0.00  0.00    +0.162 A 
ATOM     11  C   LIG A   1      -8.830   5.834 133.281  0.00  0.00    +0.096 A 
ENDROOT
BRANCH   3  12
ATOM     12  C   LIG A   1     -12.038   7.896 128.926  0.00  0.00    +0.015 C 
ATOM     13  C   LIG A   1     -13.112   6.848 128.546  0.00  0.00    +0.020 C 
ATOM     14  C   LIG A   1     -12.750   9.195 129.371  0.00  0.00    +0.020 C 
BRANCH  12  15
ATOM     15  C   LIG A   1     -11.221   8.297 127.677  0.00  0.00    -0.023 C 
ATOM     16  C   LIG A   1     -11.027   7.598 126.548  0.00  0.00    +0.005 C 
ENDBRANCH  12  15
ENDBRANCH   3  12
BRANCH   9  17
ATOM     17  O   LIG A   1      -5.436   5.992 131.980  0.00  0.00    -0.491 OA
ATOM     18  C   LIG A   1      -4.678   6.992 131.307  0.00  0.00    +0.277 C 
ENDBRANCH   9  17
BRANCH  10  19
ATOM     19  O   LIG A   1      -6.731   5.225 134.189  0.00  0.00    -0.503 OA
ATOM     20  H   LIG A   1      -7.368   5.145 134.926  0.00  0.00    +0.292 HD
ENDBRANCH  10  19
TORSDOF 4
ENDMDL
MODEL 2
REMARK VINA RESULT:      -7.0      1.782      2.802
REMARK  Name = NuBBE_1116
REMARK  7 active torsions:
REMARK  status: ('A' for Active; 'I' for Inactive)
REMARK    1  A    between atoms: C_3  and  C_4
REMARK    2  A    between atoms: C_4  and  C_5
REMARK    3  A    between atoms: C_4  and  C_6
REMARK    4  A    between atoms: C_4  and  C_7
REMARK    5  A    between atoms: C_14  and  O_15
REMARK    6  A    between atoms: O_15  and  C_16
REMARK    7  A    between atoms: C_17  and  O_18
REMARK                            x       y       z     vdW  Elec       q    Type
REMARK                         _______ _______ _______ _____ _____    ______ ____
ROOT
ATOM      1  O   LIG A   1      -9.995   8.313 128.515  0.00  0.00    -0.245 OA
ATOM      2  C   LIG A   1      -9.810   7.689 129.550  0.00  0.00    +0.341 A 
ATOM      3  C   LIG A   1     -10.938   7.210 130.420  0.00  0.00    +0.047 A 
ATOM      4  C   LIG A   1     -10.634   6.558 131.559  0.00  0.00    +0.023 A 
ATOM      5  O   LIG A   1      -8.509   7.395 129.955  0.00  0.00    -0.422 OA
ATOM      6  C   LIG A   1      -8.229   6.729 131.156  0.00  0.00    +0.143 A 
ATOM      7  C   LIG A   1      -9.264   6.307 131.977  0.00  0.00    +0.022 A 
ATOM      8  C   LIG A   1      -8.966   5.660 133.183  0.00  0.00    +0.061 A 
ATOM      9  C   LIG A   1      -7.636   5.447 133.552  0.00  0.00    +0.162 A 
ATOM     10  C   LIG A   1      -6.616   5.885 132.696  0.00  0.00    +0.162 A 
ATOM     11  C   LIG A   1      -6.896   6.524 131.496  0.00  0.00    +0.096 A 
ENDROOT
BRANCH   3  12
ATOM     12  C   LIG A   1     -12.389   7.500 129.950  0.00  0.00    +0.015 C 
ATOM     13  C   LIG A   1     -12.838   6.455 128.900  0.00  0.00    +0.020 C 
ATOM     14  C   LIG A   1     -13.372   7.456 131.143  0.00  0.00    +0.020 C 
BRANCH  12  15
ATOM     15  C   LIG A   1     -12.526   8.927 129.373  0.00  0.00    -0.023 C 
ATOM     16  C   LIG A   1     -13.142   9.989 129.916  0.00  0.00    +0.005 C 
ENDBRANCH  12  15
ENDBRANCH   3  12
BRANCH   9  17
ATOM     17  O   LIG A   1      -7.208   4.838 134.705  0.00  0.00    -0.491 OA
ATOM     18  C   LIG A   1      -7.367   5.577 135.911  0.00  0.00    +0.277 C 
ENDBRANCH   9  17
BRANCH  10  19
ATOM     19  O   LIG A   1      -5.303   5.694 133.036  0.00  0.00    -0.503 OA
ATOM     20  H   LIG A   1      -5.323   5.105 133.816  0.00  0.00    +0.292 HD
ENDBRANCH  10  19
TORSDOF 4
ENDMDL
MODEL 3
REMARK VINA RESULT:      -6.6      1.470      6.428
REMARK  Name = NuBBE_1116
REMARK  7 active torsions:
REMARK  status: ('A' for Active; 'I' for Inactive)
REMARK    1  A    between atoms: C_3  and  C_4
REMARK    2  A    between atoms: C_4  and  C_5
REMARK    3  A    between atoms: C_4  and  C_6
REMARK    4  A    between atoms: C_4  and  C_7
REMARK    5  A    between atoms: C_14  and  O_15
REMARK    6  A    between atoms: O_15  and  C_16
REMARK    7  A    between atoms: C_17  and  O_18
REMARK                            x       y       z     vdW  Elec       q    Type
REMARK                         _______ _______ _______ _____ _____    ______ ____
ROOT
ATOM      1  O   LIG A   1      -5.192   5.313 133.876  0.00  0.00    -0.245 OA
ATOM      2  C   LIG A   1      -5.992   5.730 133.053  0.00  0.00    +0.341 A 
ATOM      3  C   LIG A   1      -5.572   6.491 131.827  0.00  0.00    +0.047 A 
ATOM      4  C   LIG A   1      -6.530   6.940 130.994  0.00  0.00    +0.023 A 
ATOM      5  O   LIG A   1      -7.355   5.498 133.235  0.00  0.00    -0.422 OA
ATOM      6  C   LIG A   1      -8.326   5.995 132.356  0.00  0.00    +0.143 A 
ATOM      7  C   LIG A   1      -7.947   6.721 131.237  0.00  0.00    +0.022 A 
ATOM      8  C   LIG A   1      -8.932   7.227 130.378  0.00  0.00    +0.061 A 
ATOM      9  C   LIG A   1     -10.282   7.002 130.654  0.00  0.00    +0.162 A 
ATOM     10  C   LIG A   1     -10.628   6.262 131.793  0.00  0.00    +0.162 A 
ATOM     11  C   LIG A   1      -9.663   5.751 132.651  0.00  0.00    +0.096 A 
ENDROOT
BRANCH   3  12
ATOM     12  C   LIG A   1      -4.052   6.715 131.599  0.00  0.00    +0.015 C 
ATOM     13  C   LIG A   1      -3.362   5.389 131.199  0.00  0.00    +0.020 C 
ATOM     14  C   LIG A   1      -3.812   7.755 130.479  0.00  0.00    +0.020 C 
BRANCH  12  15
ATOM     15  C   LIG A   1      -3.372   7.314 132.850  0.00  0.00    -0.023 C 
ATOM     16  C   LIG A   1      -2.546   8.370 132.925  0.00  0.00    +0.005 C 
ENDBRANCH  12  15
ENDBRANCH   3  12
BRANCH   9  17
ATOM     17  O   LIG A   1     -11.342   7.447 129.905  0.00  0.00    -0.491 OA
ATOM     18  C   LIG A   1     -11.024   8.220 128.752  0.00  0.00    +0.277 C 
ENDBRANCH   9  17
BRANCH  10  19
ATOM     19  O   LIG A   1     -11.945   6.031 132.090  0.00  0.00    -0.503 OA
ATOM     20  H   LIG A   1     -12.445   6.684 131.563  0.00  0.00    +0.292 HD
ENDBRANCH  10  19
TORSDOF 4
ENDMDL
MODEL 4
REMARK VINA RESULT:      -6.6      9.778     11.295
REMARK  Name = NuBBE_1116
REMARK  7 active torsions:
REMARK  status: ('A' for Active; 'I' for Inactive)
REMARK    1  A    between atoms: C_3  and  C_4
REMARK    2  A    between atoms: C_4  and  C_5
REMARK    3  A    between atoms: C_4  and  C_6
REMARK    4  A    between atoms: C_4  and  C_7
REMARK    5  A    between atoms: C_14  and  O_15
REMARK    6  A    between atoms: O_15  and  C_16
REMARK    7  A    between atoms: C_17  and  O_18
REMARK                            x       y       z     vdW  Elec       q    Type
REMARK                         _______ _______ _______ _____ _____    ______ ____
ROOT
ATOM      1  O   LIG A   1      -9.784  -1.777 125.219  0.00  0.00    -0.245 OA
ATOM      2  C   LIG A   1      -9.009  -1.027 124.644  0.00  0.00    +0.341 A 
ATOM      3  C   LIG A   1      -7.522  -1.249 124.634  0.00  0.00    +0.047 A 
ATOM      4  C   LIG A   1      -6.746  -0.350 124.000  0.00  0.00    +0.023 A 
ATOM      5  O   LIG A   1      -9.502   0.082 123.959  0.00  0.00    -0.422 OA
ATOM      6  C   LIG A   1      -8.664   1.008 123.324  0.00  0.00    +0.143 A 
ATOM      7  C   LIG A   1      -7.289   0.823 123.333  0.00  0.00    +0.022 A 
ATOM      8  C   LIG A   1      -6.463   1.768 122.710  0.00  0.00    +0.061 A 
ATOM      9  C   LIG A   1      -7.025   2.886 122.090  0.00  0.00    +0.162 A 
ATOM     10  C   LIG A   1      -8.419   3.039 122.098  0.00  0.00    +0.162 A 
ATOM     11  C   LIG A   1      -9.249   2.108 122.708  0.00  0.00    +0.096 A 
ENDROOT
BRANCH   3  12
ATOM     12  C   LIG A   1      -6.973  -2.507 125.361  0.00  0.00    +0.015 C 
ATOM     13  C   LIG A   1      -7.095  -2.342 126.895  0.00  0.00    +0.020 C 
ATOM     14  C   LIG A   1      -7.753  -3.773 124.935  0.00  0.00    +0.020 C 
BRANCH  12  15
ATOM     15  C   LIG A   1      -5.506  -2.794 124.971  0.00  0.00    -0.023 C 
ATOM     16  C   LIG A   1      -5.040  -3.673 124.070  0.00  0.00    +0.005 C 
ENDBRANCH  12  15
ENDBRANCH   3  12
BRANCH   9  17
ATOM     17  O   LIG A   1      -6.333   3.887 121.455  0.00  0.00    -0.491 OA
ATOM     18  C   LIG A   1      -5.142   4.337 122.091  0.00  0.00    +0.277 C 
ENDBRANCH   9  17
BRANCH  10  19
ATOM     19  O   LIG A   1      -8.995   4.128 121.502  0.00  0.00    -0.503 OA
ATOM     20  H   LIG A   1      -9.675   3.763 120.902  0.00  0.00    +0.292 HD
ENDBRANCH  10  19
TORSDOF 4
ENDMDL
MODEL 5
REMARK VINA RESULT:      -6.6      9.067     10.442
REMARK  Name = NuBBE_1116
REMARK  7 active torsions:
REMARK  status: ('A' for Active; 'I' for Inactive)
REMARK    1  A    between atoms: C_3  and  C_4
REMARK    2  A    between atoms: C_4  and  C_5
REMARK    3  A    between atoms: C_4  and  C_6
REMARK    4  A    between atoms: C_4  and  C_7
REMARK    5  A    between atoms: C_14  and  O_15
REMARK    6  A    between atoms: O_15  and  C_16
REMARK    7  A    between atoms: C_17  and  O_18
REMARK                            x       y       z     vdW  Elec       q    Type
REMARK                         _______ _______ _______ _____ _____    ______ ____
ROOT
ATOM      1  O   LIG A   1      -7.075  -1.902 122.360  0.00  0.00    -0.245 OA
ATOM      2  C   LIG A   1      -7.365  -1.077 123.214  0.00  0.00    +0.341 A 
ATOM      3  C   LIG A   1      -8.201  -1.415 124.416  0.00  0.00    +0.047 A 
ATOM      4  C   LIG A   1      -8.497  -0.430 125.286  0.00  0.00    +0.023 A 
ATOM      5  O   LIG A   1      -6.910   0.235 123.089  0.00  0.00    -0.422 OA
ATOM      6  C   LIG A   1      -7.251   1.238 124.005  0.00  0.00    +0.143 A 
ATOM      7  C   LIG A   1      -8.044   0.939 125.104  0.00  0.00    +0.022 A 
ATOM      8  C   LIG A   1      -8.392   1.959 125.999  0.00  0.00    +0.061 A 
ATOM      9  C   LIG A   1      -7.945   3.263 125.782  0.00  0.00    +0.162 A 
ATOM     10  C   LIG A   1      -7.142   3.528 124.663  0.00  0.00    +0.162 A 
ATOM     11  C   LIG A   1      -6.787   2.527 123.769  0.00  0.00    +0.096 A 
ENDROOT
BRANCH   3  12
ATOM     12  C   LIG A   1      -8.675  -2.885 124.579  0.00  0.00    +0.015 C 
ATOM     13  C   LIG A   1      -9.614  -3.283 123.415  0.00  0.00    +0.020 C 
ATOM     14  C   LIG A   1      -7.469  -3.853 124.595  0.00  0.00    +0.020 C 
BRANCH  12  15
ATOM     15  C   LIG A   1      -9.382  -3.108 125.934  0.00  0.00    -0.023 C 
ATOM     16  C   LIG A   1      -8.888  -3.667 127.050  0.00  0.00    +0.005 C 
ENDBRANCH  12  15
ENDBRANCH   3  12
BRANCH   9  17
ATOM     17  O   LIG A   1      -8.218   4.351 126.572  0.00  0.00    -0.491 OA
ATOM     18  C   LIG A   1      -7.888   4.232 127.952  0.00  0.00    +0.277 C 
ENDBRANCH   9  17
BRANCH  10  19
ATOM     19  O   LIG A   1      -6.694   4.800 124.422  0.00  0.00    -0.503 OA
ATOM     20  H   LIG A   1      -7.349   5.192 123.812  0.00  0.00    +0.292 HD
ENDBRANCH  10  19
TORSDOF 4
ENDMDL
MODEL 6
REMARK VINA RESULT:      -6.5      8.629     10.745
REMARK  Name = NuBBE_1116
REMARK  7 active torsions:
REMARK  status: ('A' for Active; 'I' for Inactive)
REMARK    1  A    between atoms: C_3  and  C_4
REMARK    2  A    between atoms: C_4  and  C_5
REMARK    3  A    between atoms: C_4  and  C_6
REMARK    4  A    between atoms: C_4  and  C_7
REMARK    5  A    between atoms: C_14  and  O_15
REMARK    6  A    between atoms: O_15  and  C_16
REMARK    7  A    between atoms: C_17  and  O_18
REMARK                            x       y       z     vdW  Elec       q    Type
REMARK                         _______ _______ _______ _____ _____    ______ ____
ROOT
ATOM      1  O   LIG A   1      -6.987   1.637 125.624  0.00  0.00    -0.245 OA
ATOM      2  C   LIG A   1      -6.970   2.133 124.508  0.00  0.00    +0.341 A 
ATOM      3  C   LIG A   1      -7.942   1.741 123.431  0.00  0.00    +0.047 A 
ATOM      4  C   LIG A   1      -7.822   2.319 122.220  0.00  0.00    +0.023 A 
ATOM      5  O   LIG A   1      -6.021   3.107 124.200  0.00  0.00    -0.422 OA
ATOM      6  C   LIG A   1      -5.914   3.676 122.925  0.00  0.00    +0.143 A 
ATOM      7  C   LIG A   1      -6.791   3.300 121.918  0.00  0.00    +0.022 A 
ATOM      8  C   LIG A   1      -6.658   3.864 120.643  0.00  0.00    +0.061 A 
ATOM      9  C   LIG A   1      -5.648   4.794 120.392  0.00  0.00    +0.162 A 
ATOM     10  C   LIG A   1      -4.781   5.153 121.434  0.00  0.00    +0.162 A 
ATOM     11  C   LIG A   1      -4.903   4.605 122.703  0.00  0.00    +0.096 A 
ENDROOT
BRANCH   3  12
ATOM     12  C   LIG A   1      -9.026   0.686 123.782  0.00  0.00    +0.015 C 
ATOM     13  C   LIG A   1      -9.767   1.083 125.081  0.00  0.00    +0.020 C 
ATOM     14  C   LIG A   1     -10.062   0.561 122.640  0.00  0.00    +0.020 C 
BRANCH  12  15
ATOM     15  C   LIG A   1      -8.420  -0.727 123.926  0.00  0.00    -0.023 C 
ATOM     16  C   LIG A   1      -7.544  -1.344 123.117  0.00  0.00    +0.005 C 
ENDBRANCH  12  15
ENDBRANCH   3  12
BRANCH   9  17
ATOM     17  O   LIG A   1      -5.403   5.413 119.192  0.00  0.00    -0.491 OA
ATOM     18  C   LIG A   1      -6.463   5.396 118.241  0.00  0.00    +0.277 C 
ENDBRANCH   9  17
BRANCH  10  19
ATOM     19  O   LIG A   1      -3.779   6.059 121.214  0.00  0.00    -0.503 OA
ATOM     20  H   LIG A   1      -3.333   6.164 122.077  0.00  0.00    +0.292 HD
ENDBRANCH  10  19
TORSDOF 4
ENDMDL
MODEL 7
REMARK VINA RESULT:      -6.5      9.145     10.305
REMARK  Name = NuBBE_1116
REMARK  7 active torsions:
REMARK  status: ('A' for Active; 'I' for Inactive)
REMARK    1  A    between atoms: C_3  and  C_4
REMARK    2  A    between atoms: C_4  and  C_5
REMARK    3  A    between atoms: C_4  and  C_6
REMARK    4  A    between atoms: C_4  and  C_7
REMARK    5  A    between atoms: C_14  and  O_15
REMARK    6  A    between atoms: O_15  and  C_16
REMARK    7  A    between atoms: C_17  and  O_18
REMARK                            x       y       z     vdW  Elec       q    Type
REMARK                         _______ _______ _______ _____ _____    ______ ____
ROOT
ATOM      1  O   LIG A   1     -10.160  -0.816 122.785  0.00  0.00    -0.245 OA
ATOM      2  C   LIG A   1      -9.185  -0.344 123.351  0.00  0.00    +0.341 A 
ATOM      3  C   LIG A   1      -8.314  -1.149 124.274  0.00  0.00    +0.047 A 
ATOM      4  C   LIG A   1      -7.281  -0.531 124.877  0.00  0.00    +0.023 A 
ATOM      5  O   LIG A   1      -8.847   0.992 123.141  0.00  0.00    -0.422 OA
ATOM      6  C   LIG A   1      -7.774   1.608 123.800  0.00  0.00    +0.143 A 
ATOM      7  C   LIG A   1      -6.981   0.877 124.674  0.00  0.00    +0.022 A 
ATOM      8  C   LIG A   1      -5.924   1.513 125.338  0.00  0.00    +0.061 A 
ATOM      9  C   LIG A   1      -5.677   2.870 125.122  0.00  0.00    +0.162 A 
ATOM     10  C   LIG A   1      -6.497   3.575 124.230  0.00  0.00    +0.162 A 
ATOM     11  C   LIG A   1      -7.545   2.958 123.561  0.00  0.00    +0.096 A 
ENDROOT
BRANCH   3  12
ATOM     12  C   LIG A   1      -8.664  -2.648 124.476  0.00  0.00    +0.015 C 
ATOM     13  C   LIG A   1      -9.491  -3.178 123.280  0.00  0.00    +0.020 C 
ATOM     14  C   LIG A   1      -7.379  -3.500 124.606  0.00  0.00    +0.020 C 
BRANCH  12  15
ATOM     15  C   LIG A   1      -9.430  -2.880 125.798  0.00  0.00    -0.023 C 
ATOM     16  C   LIG A   1      -9.004  -3.500 126.910  0.00  0.00    +0.005 C 
ENDBRANCH  12  15
ENDBRANCH   3  12
BRANCH   9  17
ATOM     17  O   LIG A   1      -4.685   3.612 125.713  0.00  0.00    -0.491 OA
ATOM     18  C   LIG A   1      -3.923   2.961 126.724  0.00  0.00    +0.277 C 
ENDBRANCH   9  17
BRANCH  10  19
ATOM     19  O   LIG A   1      -6.280   4.908 124.003  0.00  0.00    -0.503 OA
ATOM     20  H   LIG A   1      -5.534   5.150 124.586  0.00  0.00    +0.292 HD
ENDBRANCH  10  19
TORSDOF 4
ENDMDL
MODEL 8
REMARK VINA RESULT:      -6.4      8.926     10.175
REMARK  Name = NuBBE_1116
REMARK  7 active torsions:
REMARK  status: ('A' for Active; 'I' for Inactive)
REMARK    1  A    between atoms: C_3  and  C_4
REMARK    2  A    between atoms: C_4  and  C_5
REMARK    3  A    between atoms: C_4  and  C_6
REMARK    4  A    between atoms: C_4  and  C_7
REMARK    5  A    between atoms: C_14  and  O_15
REMARK    6  A    between atoms: O_15  and  C_16
REMARK    7  A    between atoms: C_17  and  O_18
REMARK                            x       y       z     vdW  Elec       q    Type
REMARK                         _______ _______ _______ _____ _____    ______ ____
ROOT
ATOM      1  O   LIG A   1      -9.762  -1.207 125.820  0.00  0.00    -0.245 OA
ATOM      2  C   LIG A   1      -8.994  -0.416 125.294  0.00  0.00    +0.341 A 
ATOM      3  C   LIG A   1      -7.880  -0.850 124.383  0.00  0.00    +0.047 A 
ATOM      4  C   LIG A   1      -7.064   0.095 123.877  0.00  0.00    +0.023 A 
ATOM      5  O   LIG A   1      -9.141   0.950 125.532  0.00  0.00    -0.422 OA
ATOM      6  C   LIG A   1      -8.262   1.904 125.003  0.00  0.00    +0.143 A 
ATOM      7  C   LIG A   1      -7.216   1.508 124.182  0.00  0.00    +0.022 A 
ATOM      8  C   LIG A   1      -6.335   2.473 123.676  0.00  0.00    +0.061 A 
ATOM      9  C   LIG A   1      -6.511   3.819 124.002  0.00  0.00    +0.162 A 
ATOM     10  C   LIG A   1      -7.581   4.183 124.831  0.00  0.00    +0.162 A 
ATOM     11  C   LIG A   1      -8.464   3.239 125.337  0.00  0.00    +0.096 A 
ENDROOT
BRANCH   3  12
ATOM     12  C   LIG A   1      -7.739  -2.367 124.084  0.00  0.00    +0.015 C 
ATOM     13  C   LIG A   1      -7.718  -3.180 125.400  0.00  0.00    +0.020 C 
ATOM     14  C   LIG A   1      -8.915  -2.866 123.212  0.00  0.00    +0.020 C 
BRANCH  12  15
ATOM     15  C   LIG A   1      -6.472  -2.667 123.252  0.00  0.00    -0.023 C 
ATOM     16  C   LIG A   1      -5.289  -3.138 123.677  0.00  0.00    +0.005 C 
ENDBRANCH  12  15
ENDBRANCH   3  12
BRANCH   9  17
ATOM     17  O   LIG A   1      -5.719   4.859 123.583  0.00  0.00    -0.491 OA
ATOM     18  C   LIG A   1      -4.959   4.641 122.399  0.00  0.00    +0.277 C 
ENDBRANCH   9  17
BRANCH  10  19
ATOM     19  O   LIG A   1      -7.773   5.496 125.170  0.00  0.00    -0.503 OA
ATOM     20  H   LIG A   1      -7.983   5.950 124.331  0.00  0.00    +0.292 HD
ENDBRANCH  10  19
TORSDOF 4
ENDMDL
MODEL 9
REMARK VINA RESULT:      -6.4      1.947      2.215
REMARK  Name = NuBBE_1116
REMARK  7 active torsions:
REMARK  status: ('A' for Active; 'I' for Inactive)
REMARK    1  A    between atoms: C_3  and  C_4
REMARK    2  A    between atoms: C_4  and  C_5
REMARK    3  A    between atoms: C_4  and  C_6
REMARK    4  A    between atoms: C_4  and  C_7
REMARK    5  A    between atoms: C_14  and  O_15
REMARK    6  A    between atoms: O_15  and  C_16
REMARK    7  A    between atoms: C_17  and  O_18
REMARK                            x       y       z     vdW  Elec       q    Type
REMARK                         _______ _______ _______ _____ _____    ______ ____
ROOT
ATOM      1  O   LIG A   1     -11.688   4.331 130.045  0.00  0.00    -0.245 OA
ATOM      2  C   LIG A   1     -10.691   4.999 130.276  0.00  0.00    +0.341 A 
ATOM      3  C   LIG A   1     -10.696   6.502 130.243  0.00  0.00    +0.047 A 
ATOM      4  C   LIG A   1      -9.538   7.149 130.479  0.00  0.00    +0.023 A 
ATOM      5  O   LIG A   1      -9.491   4.362 130.589  0.00  0.00    -0.422 OA
ATOM      6  C   LIG A   1      -8.301   5.067 130.812  0.00  0.00    +0.143 A 
ATOM      7  C   LIG A   1      -8.292   6.453 130.758  0.00  0.00    +0.022 A 
ATOM      8  C   LIG A   1      -7.090   7.142 130.964  0.00  0.00    +0.061 A 
ATOM      9  C   LIG A   1      -5.914   6.435 131.218  0.00  0.00    +0.162 A 
ATOM     10  C   LIG A   1      -5.961   5.035 131.269  0.00  0.00    +0.162 A 
ATOM     11  C   LIG A   1      -7.146   4.339 131.070  0.00  0.00    +0.096 A 
ENDROOT
BRANCH   3  12
ATOM     12  C   LIG A   1     -12.040   7.215 129.936  0.00  0.00    +0.015 C 
ATOM     13  C   LIG A   1     -12.885   7.358 131.224  0.00  0.00    +0.020 C 
ATOM     14  C   LIG A   1     -11.791   8.625 129.349  0.00  0.00    +0.020 C 
BRANCH  12  15
ATOM     15  C   LIG A   1     -12.845   6.468 128.850  0.00  0.00    -0.023 C 
ATOM     16  C   LIG A   1     -13.733   6.971 127.977  0.00  0.00    +0.005 C 
ENDBRANCH  12  15
ENDBRANCH   3  12
BRANCH   9  17
ATOM     17  O   LIG A   1      -4.674   6.984 131.428  0.00  0.00    -0.491 OA
ATOM     18  C   LIG A   1      -4.153   7.795 130.381  0.00  0.00    +0.277 C 
ENDBRANCH   9  17
BRANCH  10  19
ATOM     19  O   LIG A   1      -4.821   4.316 131.512  0.00  0.00    -0.503 OA
ATOM     20  H   LIG A   1      -4.975   3.871 132.368  0.00  0.00    +0.292 HD
ENDBRANCH  10  19
TORSDOF 4
ENDMDL
