MODEL 1
REMARK VINA RESULT:      -8.0      0.000      0.000
REMARK  Name = NuBBE_2365
REMARK  3 active torsions:
REMARK  status: ('A' for Active; 'I' for Inactive)
REMARK    1  A    between atoms: C_1  and  C_2
REMARK    2  A    between atoms: C_2  and  C_3
REMARK    3  A    between atoms: N_14  and  C_15
REMARK                            x       y       z     vdW  Elec       q    Type
REMARK                         _______ _______ _______ _____ _____    ______ ____
ROOT
ATOM      1  C   LIG A   1      -6.222  -2.821 124.106  0.00  0.00    +0.018 C 
ATOM      2  C   LIG A   1      -6.237  -1.328 124.591  0.00  0.00    +0.093 C 
ATOM      3  C   LIG A   1      -7.398  -0.631 123.908  0.00  0.00    +0.003 A 
ATOM      4  C   LIG A   1      -8.534  -1.334 123.548  0.00  0.00    +0.048 A 
ATOM      5  C   LIG A   1      -8.709  -2.731 123.764  0.00  0.00    -0.027 C 
ATOM      6  C   LIG A   1      -7.575  -3.463 124.536  0.00  0.00    +0.026 C 
ATOM      7  C   LIG A   1      -7.819  -3.309 126.052  0.00  0.00    +0.024 C 
ATOM      8  C   LIG A   1      -6.862  -2.350 126.775  0.00  0.00    +0.085 C 
ATOM      9  N   LIG A   1      -6.469  -1.157 126.032  0.00  0.00    -0.298 NA
ATOM     10  C   LIG A   1      -5.388  -0.436 126.690  0.00  0.00    +0.105 C 
ATOM     11  C   LIG A   1      -9.767  -3.398 123.276  0.00  0.00    +0.014 C 
ATOM     12  N   LIG A   1      -9.413  -0.471 122.966  0.00  0.00    -0.354 N 
ATOM     13  H   LIG A   1     -10.332  -0.702 122.621  0.00  0.00    +0.166 HD
ATOM     14  C   LIG A   1      -8.854   0.792 122.911  0.00  0.00    +0.047 A 
ATOM     15  C   LIG A   1      -7.588   0.719 123.500  0.00  0.00    +0.005 A 
ATOM     16  C   LIG A   1      -6.808   1.890 123.570  0.00  0.00    +0.010 A 
ATOM     17  C   LIG A   1      -7.315   3.087 123.052  0.00  0.00    +0.001 A 
ATOM     18  C   LIG A   1      -8.581   3.131 122.471  0.00  0.00    +0.002 A 
ATOM     19  C   LIG A   1      -9.376   1.983 122.390  0.00  0.00    +0.026 A 
ENDROOT
BRANCH   1  21
ATOM     20  C   LIG A   1      -4.486  -4.583 123.470  0.00  0.00    +0.004 C 
ATOM     21  C   LIG A   1      -4.955  -3.591 124.529  0.00  0.00    +0.002 C 
ENDBRANCH   1  21
TORSDOF 1
ENDMDL
MODEL 2
REMARK VINA RESULT:      -7.6      2.685      4.239
REMARK  Name = NuBBE_2365
REMARK  3 active torsions:
REMARK  status: ('A' for Active; 'I' for Inactive)
REMARK    1  A    between atoms: C_1  and  C_2
REMARK    2  A    between atoms: C_2  and  C_3
REMARK    3  A    between atoms: N_14  and  C_15
REMARK                            x       y       z     vdW  Elec       q    Type
REMARK                         _______ _______ _______ _____ _____    ______ ____
ROOT
ATOM      1  C   LIG A   1      -6.239  -3.223 128.832  0.00  0.00    +0.018 C 
ATOM      2  C   LIG A   1      -6.155  -2.108 127.730  0.00  0.00    +0.093 C 
ATOM      3  C   LIG A   1      -7.178  -2.436 126.660  0.00  0.00    +0.003 A 
ATOM      4  C   LIG A   1      -8.339  -3.118 126.974  0.00  0.00    +0.048 A 
ATOM      5  C   LIG A   1      -8.666  -3.574 128.284  0.00  0.00    -0.027 C 
ATOM      6  C   LIG A   1      -7.681  -3.184 129.422  0.00  0.00    +0.026 C 
ATOM      7  C   LIG A   1      -8.044  -1.777 129.939  0.00  0.00    +0.024 C 
ATOM      8  C   LIG A   1      -7.068  -0.661 129.540  0.00  0.00    +0.085 C 
ATOM      9  N   LIG A   1      -6.497  -0.758 128.200  0.00  0.00    -0.298 NA
ATOM     10  C   LIG A   1      -5.415   0.195 127.998  0.00  0.00    +0.105 C 
ATOM     11  C   LIG A   1      -9.735  -4.351 128.518  0.00  0.00    +0.014 C 
ATOM     12  N   LIG A   1      -9.076  -3.270 125.838  0.00  0.00    -0.354 N 
ATOM     13  H   LIG A   1      -9.977  -3.715 125.770  0.00  0.00    +0.166 HD
ATOM     14  C   LIG A   1      -8.396  -2.719 124.768  0.00  0.00    +0.047 A 
ATOM     15  C   LIG A   1      -7.200  -2.185 125.259  0.00  0.00    +0.005 A 
ATOM     16  C   LIG A   1      -6.321  -1.557 124.355  0.00  0.00    +0.010 A 
ATOM     17  C   LIG A   1      -6.662  -1.485 122.999  0.00  0.00    +0.001 A 
ATOM     18  C   LIG A   1      -7.860  -2.026 122.539  0.00  0.00    +0.002 A 
ATOM     19  C   LIG A   1      -8.752  -2.653 123.415  0.00  0.00    +0.026 A 
ENDROOT
BRANCH   1  21
ATOM     20  C   LIG A   1      -3.716  -3.243 129.219  0.00  0.00    +0.004 C 
ATOM     21  C   LIG A   1      -5.095  -3.156 129.862  0.00  0.00    +0.002 C 
ENDBRANCH   1  21
TORSDOF 1
ENDMDL
MODEL 3
REMARK VINA RESULT:      -7.2      2.028      5.130
REMARK  Name = NuBBE_2365
REMARK  3 active torsions:
REMARK  status: ('A' for Active; 'I' for Inactive)
REMARK    1  A    between atoms: C_1  and  C_2
REMARK    2  A    between atoms: C_2  and  C_3
REMARK    3  A    between atoms: N_14  and  C_15
REMARK                            x       y       z     vdW  Elec       q    Type
REMARK                         _______ _______ _______ _____ _____    ______ ____
ROOT
ATOM      1  C   LIG A   1      -5.714  -1.847 124.361  0.00  0.00    +0.018 C 
ATOM      2  C   LIG A   1      -6.717  -2.552 125.341  0.00  0.00    +0.093 C 
ATOM      3  C   LIG A   1      -6.983  -1.603 126.494  0.00  0.00    +0.003 A 
ATOM      4  C   LIG A   1      -6.921  -0.233 126.314  0.00  0.00    +0.048 A 
ATOM      5  C   LIG A   1      -6.599   0.394 125.076  0.00  0.00    -0.027 C 
ATOM      6  C   LIG A   1      -6.402  -0.544 123.851  0.00  0.00    +0.026 C 
ATOM      7  C   LIG A   1      -7.777  -0.840 123.219  0.00  0.00    +0.024 C 
ATOM      8  C   LIG A   1      -8.313  -2.260 123.451  0.00  0.00    +0.085 C 
ATOM      9  N   LIG A   1      -8.035  -2.843 124.760  0.00  0.00    -0.298 NA
ATOM     10  C   LIG A   1      -8.366  -4.261 124.807  0.00  0.00    +0.105 C 
ATOM     11  C   LIG A   1      -6.415   1.720 124.978  0.00  0.00    +0.014 C 
ATOM     12  N   LIG A   1      -7.208   0.375 127.499  0.00  0.00    -0.354 N 
ATOM     13  H   LIG A   1      -7.253   1.369 127.660  0.00  0.00    +0.166 HD
ATOM     14  C   LIG A   1      -7.430  -0.583 128.469  0.00  0.00    +0.047 A 
ATOM     15  C   LIG A   1      -7.297  -1.836 127.862  0.00  0.00    +0.005 A 
ATOM     16  C   LIG A   1      -7.482  -2.990 128.650  0.00  0.00    +0.010 A 
ATOM     17  C   LIG A   1      -7.789  -2.854 130.009  0.00  0.00    +0.001 A 
ATOM     18  C   LIG A   1      -7.915  -1.593 130.586  0.00  0.00    +0.002 A 
ATOM     19  C   LIG A   1      -7.739  -0.432 129.827  0.00  0.00    +0.026 A 
ENDROOT
BRANCH   1  21
ATOM     20  C   LIG A   1      -4.630  -4.095 123.827  0.00  0.00    +0.004 C 
ATOM     21  C   LIG A   1      -5.164  -2.782 123.267  0.00  0.00    +0.002 C 
ENDBRANCH   1  21
TORSDOF 1
ENDMDL
MODEL 4
REMARK VINA RESULT:      -7.1      7.989      9.562
REMARK  Name = NuBBE_2365
REMARK  3 active torsions:
REMARK  status: ('A' for Active; 'I' for Inactive)
REMARK    1  A    between atoms: C_1  and  C_2
REMARK    2  A    between atoms: C_2  and  C_3
REMARK    3  A    between atoms: N_14  and  C_15
REMARK                            x       y       z     vdW  Elec       q    Type
REMARK                         _______ _______ _______ _____ _____    ______ ____
ROOT
ATOM      1  C   LIG A   1      -8.937   2.399 130.975  0.00  0.00    +0.018 C 
ATOM      2  C   LIG A   1      -9.288   3.603 130.030  0.00  0.00    +0.093 C 
ATOM      3  C   LIG A   1     -10.050   4.627 130.848  0.00  0.00    +0.003 A 
ATOM      4  C   LIG A   1      -9.828   4.757 132.208  0.00  0.00    +0.048 A 
ATOM      5  C   LIG A   1      -8.905   3.959 132.944  0.00  0.00    -0.027 C 
ATOM      6  C   LIG A   1      -8.045   2.956 132.125  0.00  0.00    +0.026 C 
ATOM      7  C   LIG A   1      -6.805   3.689 131.576  0.00  0.00    +0.024 C 
ATOM      8  C   LIG A   1      -6.823   3.967 130.066  0.00  0.00    +0.085 C 
ATOM      9  N   LIG A   1      -8.120   4.318 129.495  0.00  0.00    -0.298 NA
ATOM     10  C   LIG A   1      -8.090   4.329 128.039  0.00  0.00    +0.105 C 
ATOM     11  C   LIG A   1      -8.822   4.023 134.282  0.00  0.00    +0.014 C 
ATOM     12  N   LIG A   1     -10.632   5.746 132.688  0.00  0.00    -0.354 N 
ATOM     13  H   LIG A   1     -10.671   6.070 133.641  0.00  0.00    +0.166 HD
ATOM     14  C   LIG A   1     -11.406   6.252 131.661  0.00  0.00    +0.047 A 
ATOM     15  C   LIG A   1     -11.058   5.567 130.492  0.00  0.00    +0.005 A 
ATOM     16  C   LIG A   1     -11.711   5.906 129.291  0.00  0.00    +0.010 A 
ATOM     17  C   LIG A   1     -12.687   6.910 129.297  0.00  0.00    +0.001 A 
ATOM     18  C   LIG A   1     -13.014   7.575 130.476  0.00  0.00    +0.002 A 
ATOM     19  C   LIG A   1     -12.379   7.260 131.682  0.00  0.00    +0.026 A 
ENDROOT
BRANCH   1  21
ATOM     20  C   LIG A   1      -8.168  -0.030 131.136  0.00  0.00    +0.004 C 
ATOM     21  C   LIG A   1      -8.374   1.175 130.226  0.00  0.00    +0.002 C 
ENDBRANCH   1  21
TORSDOF 1
ENDMDL
MODEL 5
REMARK VINA RESULT:      -6.9      2.761      6.211
REMARK  Name = NuBBE_2365
REMARK  3 active torsions:
REMARK  status: ('A' for Active; 'I' for Inactive)
REMARK    1  A    between atoms: C_1  and  C_2
REMARK    2  A    between atoms: C_2  and  C_3
REMARK    3  A    between atoms: N_14  and  C_15
REMARK                            x       y       z     vdW  Elec       q    Type
REMARK                         _______ _______ _______ _____ _____    ______ ____
ROOT
ATOM      1  C   LIG A   1      -8.503  -1.499 126.409  0.00  0.00    +0.018 C 
ATOM      2  C   LIG A   1      -6.956  -1.669 126.614  0.00  0.00    +0.093 C 
ATOM      3  C   LIG A   1      -6.741  -2.416 127.916  0.00  0.00    +0.003 A 
ATOM      4  C   LIG A   1      -7.681  -3.320 128.379  0.00  0.00    +0.048 A 
ATOM      5  C   LIG A   1      -8.903  -3.612 127.708  0.00  0.00    -0.027 C 
ATOM      6  C   LIG A   1      -9.120  -2.928 126.329  0.00  0.00    +0.026 C 
ATOM      7  C   LIG A   1      -8.443  -3.778 125.234  0.00  0.00    +0.024 C 
ATOM      8  C   LIG A   1      -7.157  -3.181 124.644  0.00  0.00    +0.085 C 
ATOM      9  N   LIG A   1      -6.289  -2.477 125.583  0.00  0.00    -0.298 NA
ATOM     10  C   LIG A   1      -5.228  -1.747 124.902  0.00  0.00    +0.105 C 
ATOM     11  C   LIG A   1      -9.847  -4.390 128.260  0.00  0.00    +0.014 C 
ATOM     12  N   LIG A   1      -7.235  -3.848 129.553  0.00  0.00    -0.354 N 
ATOM     13  H   LIG A   1      -7.707  -4.545 130.108  0.00  0.00    +0.166 HD
ATOM     14  C   LIG A   1      -6.021  -3.278 129.886  0.00  0.00    +0.047 A 
ATOM     15  C   LIG A   1      -5.686  -2.376 128.871  0.00  0.00    +0.005 A 
ATOM     16  C   LIG A   1      -4.477  -1.662 128.975  0.00  0.00    +0.010 A 
ATOM     17  C   LIG A   1      -3.648  -1.868 130.084  0.00  0.00    +0.001 A 
ATOM     18  C   LIG A   1      -4.007  -2.773 131.081  0.00  0.00    +0.002 A 
ATOM     19  C   LIG A   1      -5.201  -3.497 131.000  0.00  0.00    +0.026 A 
ENDROOT
BRANCH   1  21
ATOM     20  C   LIG A   1      -9.582   0.711 125.725  0.00  0.00    +0.004 C 
ATOM     21  C   LIG A   1      -8.868  -0.550 125.251  0.00  0.00    +0.002 C 
ENDBRANCH   1  21
TORSDOF 1
ENDMDL
MODEL 6
REMARK VINA RESULT:      -6.8      1.589      5.668
REMARK  Name = NuBBE_2365
REMARK  3 active torsions:
REMARK  status: ('A' for Active; 'I' for Inactive)
REMARK    1  A    between atoms: C_1  and  C_2
REMARK    2  A    between atoms: C_2  and  C_3
REMARK    3  A    between atoms: N_14  and  C_15
REMARK                            x       y       z     vdW  Elec       q    Type
REMARK                         _______ _______ _______ _____ _____    ______ ____
ROOT
ATOM      1  C   LIG A   1      -6.367   2.271 123.291  0.00  0.00    +0.018 C 
ATOM      2  C   LIG A   1      -7.620   1.327 123.306  0.00  0.00    +0.093 C 
ATOM      3  C   LIG A   1      -7.303   0.150 124.208  0.00  0.00    +0.003 A 
ATOM      4  C   LIG A   1      -6.433   0.288 125.275  0.00  0.00    +0.048 A 
ATOM      5  C   LIG A   1      -5.766   1.502 125.606  0.00  0.00    -0.027 C 
ATOM      6  C   LIG A   1      -6.130   2.751 124.755  0.00  0.00    +0.026 C 
ATOM      7  C   LIG A   1      -7.392   3.411 125.346  0.00  0.00    +0.024 C 
ATOM      8  C   LIG A   1      -8.674   3.229 124.521  0.00  0.00    +0.085 C 
ATOM      9  N   LIG A   1      -8.836   1.934 123.867  0.00  0.00    -0.298 NA
ATOM     10  C   LIG A   1      -9.946   1.935 122.924  0.00  0.00    +0.105 C 
ATOM     11  C   LIG A   1      -4.826   1.557 126.563  0.00  0.00    +0.014 C 
ATOM     12  N   LIG A   1      -6.336  -0.910 125.915  0.00  0.00    -0.354 N 
ATOM     13  H   LIG A   1      -5.786  -1.101 126.738  0.00  0.00    +0.166 HD
ATOM     14  C   LIG A   1      -7.112  -1.849 125.262  0.00  0.00    +0.047 A 
ATOM     15  C   LIG A   1      -7.734  -1.206 124.186  0.00  0.00    +0.005 A 
ATOM     16  C   LIG A   1      -8.591  -1.956 123.357  0.00  0.00    +0.010 A 
ATOM     17  C   LIG A   1      -8.797  -3.314 123.628  0.00  0.00    +0.001 A 
ATOM     18  C   LIG A   1      -8.165  -3.927 124.706  0.00  0.00    +0.002 A 
ATOM     19  C   LIG A   1      -7.310  -3.206 125.546  0.00  0.00    +0.026 A 
ENDROOT
BRANCH   1  21
ATOM     20  C   LIG A   1      -5.596   3.095 121.001  0.00  0.00    +0.004 C 
ATOM     21  C   LIG A   1      -6.450   3.385 122.230  0.00  0.00    +0.002 C 
ENDBRANCH   1  21
TORSDOF 1
ENDMDL
MODEL 7
REMARK VINA RESULT:      -6.6      2.853      5.000
REMARK  Name = NuBBE_2365
REMARK  3 active torsions:
REMARK  status: ('A' for Active; 'I' for Inactive)
REMARK    1  A    between atoms: C_1  and  C_2
REMARK    2  A    between atoms: C_2  and  C_3
REMARK    3  A    between atoms: N_14  and  C_15
REMARK                            x       y       z     vdW  Elec       q    Type
REMARK                         _______ _______ _______ _____ _____    ______ ____
ROOT
ATOM      1  C   LIG A   1      -6.066  -0.376 128.346  0.00  0.00    +0.018 C 
ATOM      2  C   LIG A   1      -6.987   0.028 127.141  0.00  0.00    +0.093 C 
ATOM      3  C   LIG A   1      -7.716  -1.219 126.677  0.00  0.00    +0.003 A 
ATOM      4  C   LIG A   1      -8.015  -2.237 127.565  0.00  0.00    +0.048 A 
ATOM      5  C   LIG A   1      -7.665  -2.218 128.946  0.00  0.00    -0.027 C 
ATOM      6  C   LIG A   1      -6.991  -0.922 129.475  0.00  0.00    +0.026 C 
ATOM      7  C   LIG A   1      -8.087   0.096 129.851  0.00  0.00    +0.024 C 
ATOM      8  C   LIG A   1      -8.230   1.288 128.894  0.00  0.00    +0.085 C 
ATOM      9  N   LIG A   1      -8.041   0.997 127.476  0.00  0.00    -0.298 NA
ATOM     10  C   LIG A   1      -7.958   2.211 126.676  0.00  0.00    +0.105 C 
ATOM     11  C   LIG A   1      -7.851  -3.285 129.739  0.00  0.00    +0.014 C 
ATOM     12  N   LIG A   1      -8.673  -3.222 126.891  0.00  0.00    -0.354 N 
ATOM     13  H   LIG A   1      -9.027  -4.078 127.288  0.00  0.00    +0.166 HD
ATOM     14  C   LIG A   1      -8.785  -2.876 125.558  0.00  0.00    +0.047 A 
ATOM     15  C   LIG A   1      -8.194  -1.618 125.398  0.00  0.00    +0.005 A 
ATOM     16  C   LIG A   1      -8.184  -1.037 124.115  0.00  0.00    +0.010 A 
ATOM     17  C   LIG A   1      -8.758  -1.727 123.041  0.00  0.00    +0.001 A 
ATOM     18  C   LIG A   1      -9.340  -2.979 123.230  0.00  0.00    +0.002 A 
ATOM     19  C   LIG A   1      -9.366  -3.577 124.494  0.00  0.00    +0.026 A 
ENDROOT
BRANCH   1  21
ATOM     20  C   LIG A   1      -4.358   0.418 130.069  0.00  0.00    +0.004 C 
ATOM     21  C   LIG A   1      -5.084   0.735 128.767  0.00  0.00    +0.002 C 
ENDBRANCH   1  21
TORSDOF 1
ENDMDL
MODEL 8
REMARK VINA RESULT:      -6.6      9.011     11.464
REMARK  Name = NuBBE_2365
REMARK  3 active torsions:
REMARK  status: ('A' for Active; 'I' for Inactive)
REMARK    1  A    between atoms: C_1  and  C_2
REMARK    2  A    between atoms: C_2  and  C_3
REMARK    3  A    between atoms: N_14  and  C_15
REMARK                            x       y       z     vdW  Elec       q    Type
REMARK                         _______ _______ _______ _____ _____    ______ ____
ROOT
ATOM      1  C   LIG A   1      -9.216   6.003 132.529  0.00  0.00    +0.018 C 
ATOM      2  C   LIG A   1      -8.094   5.872 131.440  0.00  0.00    +0.093 C 
ATOM      3  C   LIG A   1      -6.756   6.076 132.125  0.00  0.00    +0.003 A 
ATOM      4  C   LIG A   1      -6.581   5.733 133.454  0.00  0.00    +0.048 A 
ATOM      5  C   LIG A   1      -7.607   5.188 134.278  0.00  0.00    -0.027 C 
ATOM      6  C   LIG A   1      -8.967   4.886 133.588  0.00  0.00    +0.026 C 
ATOM      7  C   LIG A   1      -8.901   3.491 132.935  0.00  0.00    +0.024 C 
ATOM      8  C   LIG A   1      -8.815   3.488 131.403  0.00  0.00    +0.085 C 
ATOM      9  N   LIG A   1      -8.011   4.549 130.804  0.00  0.00    -0.298 NA
ATOM     10  C   LIG A   1      -8.180   4.611 129.359  0.00  0.00    +0.105 C 
ATOM     11  C   LIG A   1      -7.433   4.998 135.595  0.00  0.00    +0.014 C 
ATOM     12  N   LIG A   1      -5.295   6.010 133.808  0.00  0.00    -0.354 N 
ATOM     13  H   LIG A   1      -4.880   5.847 134.712  0.00  0.00    +0.166 HD
ATOM     14  C   LIG A   1      -4.627   6.563 132.732  0.00  0.00    +0.047 A 
ATOM     15  C   LIG A   1      -5.523   6.613 131.660  0.00  0.00    +0.005 A 
ATOM     16  C   LIG A   1      -5.077   7.138 130.432  0.00  0.00    +0.010 A 
ATOM     17  C   LIG A   1      -3.759   7.596 130.316  0.00  0.00    +0.001 A 
ATOM     18  C   LIG A   1      -2.888   7.534 131.402  0.00  0.00    +0.002 A 
ATOM     19  C   LIG A   1      -3.305   7.016 132.632  0.00  0.00    +0.026 A 
ENDROOT
BRANCH   1  21
ATOM     20  C   LIG A   1     -10.730   6.934 130.696  0.00  0.00    +0.004 C 
ATOM     21  C   LIG A   1     -10.639   6.058 131.941  0.00  0.00    +0.002 C 
ENDBRANCH   1  21
TORSDOF 1
ENDMDL
MODEL 9
REMARK VINA RESULT:      -6.6      2.369      5.483
REMARK  Name = NuBBE_2365
REMARK  3 active torsions:
REMARK  status: ('A' for Active; 'I' for Inactive)
REMARK    1  A    between atoms: C_1  and  C_2
REMARK    2  A    between atoms: C_2  and  C_3
REMARK    3  A    between atoms: N_14  and  C_15
REMARK                            x       y       z     vdW  Elec       q    Type
REMARK                         _______ _______ _______ _____ _____    ______ ____
ROOT
ATOM      1  C   LIG A   1      -5.997   2.196 125.611  0.00  0.00    +0.018 C 
ATOM      2  C   LIG A   1      -7.045   1.653 124.576  0.00  0.00    +0.093 C 
ATOM      3  C   LIG A   1      -7.653   0.389 125.152  0.00  0.00    +0.003 A 
ATOM      4  C   LIG A   1      -7.764   0.215 126.520  0.00  0.00    +0.048 A 
ATOM      5  C   LIG A   1      -7.320   1.167 127.483  0.00  0.00    -0.027 C 
ATOM      6  C   LIG A   1      -6.767   2.510 126.930  0.00  0.00    +0.026 C 
ATOM      7  C   LIG A   1      -7.945   3.474 126.681  0.00  0.00    +0.024 C 
ATOM      8  C   LIG A   1      -8.297   3.713 125.206  0.00  0.00    +0.085 C 
ATOM      9  N   LIG A   1      -8.178   2.555 124.324  0.00  0.00    -0.298 NA
ATOM     10  C   LIG A   1      -8.296   2.925 122.921  0.00  0.00    +0.105 C 
ATOM     11  C   LIG A   1      -7.321   0.898 128.798  0.00  0.00    +0.014 C 
ATOM     12  N   LIG A   1      -8.349  -0.992 126.759  0.00  0.00    -0.354 N 
ATOM     13  H   LIG A   1      -8.570  -1.376 127.664  0.00  0.00    +0.166 HD
ATOM     14  C   LIG A   1      -8.597  -1.631 125.559  0.00  0.00    +0.047 A 
ATOM     15  C   LIG A   1      -8.172  -0.782 124.532  0.00  0.00    +0.005 A 
ATOM     16  C   LIG A   1      -8.323  -1.208 123.198  0.00  0.00    +0.010 A 
ATOM     17  C   LIG A   1      -8.888  -2.462 122.935  0.00  0.00    +0.001 A 
ATOM     18  C   LIG A   1      -9.303  -3.287 123.978  0.00  0.00    +0.002 A 
ATOM     19  C   LIG A   1      -9.167  -2.887 125.311  0.00  0.00    +0.026 A 
ENDROOT
BRANCH   1  21
ATOM     20  C   LIG A   1      -4.115   3.857 126.079  0.00  0.00    +0.004 C 
ATOM     21  C   LIG A   1      -5.125   3.341 125.060  0.00  0.00    +0.002 C 
ENDBRANCH   1  21
TORSDOF 1
ENDMDL
