MODEL 1
REMARK VINA RESULT:      -5.5      0.000      0.000
REMARK  Name = NuBBE_2136
REMARK  6 active torsions:
REMARK  status: ('A' for Active; 'I' for Inactive)
REMARK    1  A    between atoms: C_1  and  C_2
REMARK    2  A    between atoms: C_2  and  C_3
REMARK    3  A    between atoms: C_3  and  C_4
REMARK    4  A    between atoms: C_4  and  C_5
REMARK    5  A    between atoms: C_5  and  C_6
REMARK    6  A    between atoms: C_6  and  C_7
REMARK                            x       y       z     vdW  Elec       q    Type
REMARK                         _______ _______ _______ _____ _____    ______ ____
ROOT
ATOM      1  C   LIG A   1      -9.392  -2.888 125.659  0.00  0.00    +0.003 C 
ENDROOT
BRANCH   1   2
ATOM      2  C   LIG A   1      -8.355  -3.122 126.773  0.00  0.00    -0.011 C 
ATOM      3  C   LIG A   1      -7.858  -1.837 127.437  0.00  0.00    +0.003 C 
ATOM      4  C   LIG A   1      -7.389  -2.306 128.807  0.00  0.00    +0.000 C 
ATOM      5  C   LIG A   1      -8.483  -3.275 129.218  0.00  0.00    +0.000 C 
ATOM      6  C   LIG A   1      -8.868  -3.997 127.926  0.00  0.00    +0.003 C 
ENDBRANCH   1   2
BRANCH   1   7
ATOM      7  C   LIG A   1      -8.816  -3.268 124.287  0.00  0.00    +0.000 C 
BRANCH   7   8
ATOM      8  C   LIG A   1      -7.362  -3.743 124.310  0.00  0.00    -0.000 C 
BRANCH   8   9
ATOM      9  C   LIG A   1      -6.333  -2.802 123.663  0.00  0.00    -0.000 C 
BRANCH   9  11
ATOM     10  C   LIG A   1      -4.467  -4.608 123.618  0.00  0.00    +0.004 C 
ATOM     11  C   LIG A   1      -4.842  -3.145 123.777  0.00  0.00    -0.003 C 
ENDBRANCH   9  11
ENDBRANCH   8   9
ENDBRANCH   7   8
ENDBRANCH   1   7
TORSDOF 5
ENDMDL
MODEL 2
REMARK VINA RESULT:      -5.4     10.216     12.297
REMARK  Name = NuBBE_2136
REMARK  6 active torsions:
REMARK  status: ('A' for Active; 'I' for Inactive)
REMARK    1  A    between atoms: C_1  and  C_2
REMARK    2  A    between atoms: C_2  and  C_3
REMARK    3  A    between atoms: C_3  and  C_4
REMARK    4  A    between atoms: C_4  and  C_5
REMARK    5  A    between atoms: C_5  and  C_6
REMARK    6  A    between atoms: C_6  and  C_7
REMARK                            x       y       z     vdW  Elec       q    Type
REMARK                         _______ _______ _______ _____ _____    ______ ____
ROOT
ATOM      1  C   LIG A   1     -12.760   8.791 130.143  0.00  0.00    +0.003 C 
ENDROOT
BRANCH   1   2
ATOM      2  C   LIG A   1     -12.417   8.793 128.642  0.00  0.00    -0.011 C 
ATOM      3  C   LIG A   1     -10.958   8.452 128.338  0.00  0.00    +0.003 C 
ATOM      4  C   LIG A   1     -11.008   7.921 126.912  0.00  0.00    +0.000 C 
ATOM      5  C   LIG A   1     -12.248   7.046 126.929  0.00  0.00    +0.000 C 
ATOM      6  C   LIG A   1     -13.243   7.797 127.815  0.00  0.00    +0.003 C 
ENDBRANCH   1   2
BRANCH   1   7
ATOM      7  C   LIG A   1     -12.988   7.360 130.651  0.00  0.00    +0.000 C 
BRANCH   7   8
ATOM      8  C   LIG A   1     -11.997   6.890 131.717  0.00  0.00    -0.000 C 
BRANCH   8   9
ATOM      9  C   LIG A   1     -10.864   5.972 131.230  0.00  0.00    -0.000 C 
BRANCH   9  11
ATOM     10  C   LIG A   1     -10.606   3.493 130.500  0.00  0.00    +0.004 C 
ATOM     11  C   LIG A   1     -11.193   4.865 130.221  0.00  0.00    -0.003 C 
ENDBRANCH   9  11
ENDBRANCH   8   9
ENDBRANCH   7   8
ENDBRANCH   1   7
TORSDOF 5
ENDMDL
MODEL 3
REMARK VINA RESULT:      -5.2     11.141     12.323
REMARK  Name = NuBBE_2136
REMARK  6 active torsions:
REMARK  status: ('A' for Active; 'I' for Inactive)
REMARK    1  A    between atoms: C_1  and  C_2
REMARK    2  A    between atoms: C_2  and  C_3
REMARK    3  A    between atoms: C_3  and  C_4
REMARK    4  A    between atoms: C_4  and  C_5
REMARK    5  A    between atoms: C_5  and  C_6
REMARK    6  A    between atoms: C_6  and  C_7
REMARK                            x       y       z     vdW  Elec       q    Type
REMARK                         _______ _______ _______ _____ _____    ______ ____
ROOT
ATOM      1  C   LIG A   1     -12.487   8.164 130.146  0.00  0.00    +0.003 C 
ENDROOT
BRANCH   1   2
ATOM      2  C   LIG A   1     -12.280   8.450 128.647  0.00  0.00    -0.011 C 
ATOM      3  C   LIG A   1     -10.876   8.120 128.141  0.00  0.00    +0.003 C 
ATOM      4  C   LIG A   1     -11.083   7.885 126.651  0.00  0.00    +0.000 C 
ATOM      5  C   LIG A   1     -12.364   7.072 126.620  0.00  0.00    +0.000 C 
ATOM      6  C   LIG A   1     -13.232   7.670 127.728  0.00  0.00    +0.003 C 
ENDBRANCH   1   2
BRANCH   1   7
ATOM      7  C   LIG A   1     -12.081   6.723 130.490  0.00  0.00    +0.000 C 
BRANCH   7   8
ATOM      8  C   LIG A   1     -11.527   6.531 131.902  0.00  0.00    -0.000 C 
BRANCH   8   9
ATOM      9  C   LIG A   1     -10.040   6.149 131.999  0.00  0.00    -0.000 C 
BRANCH   9  11
ATOM     10  C   LIG A   1      -7.705   6.866 131.118  0.00  0.00    +0.004 C 
ATOM     11  C   LIG A   1      -9.125   6.432 130.801  0.00  0.00    -0.003 C 
ENDBRANCH   9  11
ENDBRANCH   8   9
ENDBRANCH   7   8
ENDBRANCH   1   7
TORSDOF 5
ENDMDL
MODEL 4
REMARK VINA RESULT:      -5.0      1.708      2.422
REMARK  Name = NuBBE_2136
REMARK  6 active torsions:
REMARK  status: ('A' for Active; 'I' for Inactive)
REMARK    1  A    between atoms: C_1  and  C_2
REMARK    2  A    between atoms: C_2  and  C_3
REMARK    3  A    between atoms: C_3  and  C_4
REMARK    4  A    between atoms: C_4  and  C_5
REMARK    5  A    between atoms: C_5  and  C_6
REMARK    6  A    between atoms: C_6  and  C_7
REMARK                            x       y       z     vdW  Elec       q    Type
REMARK                         _______ _______ _______ _____ _____    ______ ____
ROOT
ATOM      1  C   LIG A   1      -8.328  -3.784 125.098  0.00  0.00    +0.003 C 
ENDROOT
BRANCH   1   2
ATOM      2  C   LIG A   1      -8.565  -3.083 126.449  0.00  0.00    -0.011 C 
ATOM      3  C   LIG A   1      -8.938  -4.034 127.585  0.00  0.00    +0.003 C 
ATOM      4  C   LIG A   1      -8.520  -3.273 128.835  0.00  0.00    +0.000 C 
ATOM      5  C   LIG A   1      -7.179  -2.687 128.433  0.00  0.00    +0.000 C 
ATOM      6  C   LIG A   1      -7.349  -2.299 126.964  0.00  0.00    +0.003 C 
ENDBRANCH   1   2
BRANCH   1   7
ATOM      7  C   LIG A   1      -9.384  -3.358 124.068  0.00  0.00    +0.000 C 
BRANCH   7   8
ATOM      8  C   LIG A   1      -9.033  -2.101 123.270  0.00  0.00    -0.000 C 
BRANCH   8   9
ATOM      9  C   LIG A   1      -7.680  -2.118 122.542  0.00  0.00    -0.000 C 
BRANCH   9  11
ATOM     10  C   LIG A   1      -6.989  -0.065 123.975  0.00  0.00    +0.004 C 
ATOM     11  C   LIG A   1      -6.575  -1.164 123.012  0.00  0.00    -0.003 C 
ENDBRANCH   9  11
ENDBRANCH   8   9
ENDBRANCH   7   8
ENDBRANCH   1   7
TORSDOF 5
ENDMDL
MODEL 5
REMARK VINA RESULT:      -5.0      1.613      3.359
REMARK  Name = NuBBE_2136
REMARK  6 active torsions:
REMARK  status: ('A' for Active; 'I' for Inactive)
REMARK    1  A    between atoms: C_1  and  C_2
REMARK    2  A    between atoms: C_2  and  C_3
REMARK    3  A    between atoms: C_3  and  C_4
REMARK    4  A    between atoms: C_4  and  C_5
REMARK    5  A    between atoms: C_5  and  C_6
REMARK    6  A    between atoms: C_6  and  C_7
REMARK                            x       y       z     vdW  Elec       q    Type
REMARK                         _______ _______ _______ _____ _____    ______ ____
ROOT
ATOM      1  C   LIG A   1      -8.184  -1.934 126.685  0.00  0.00    +0.003 C 
ENDROOT
BRANCH   1   2
ATOM      2  C   LIG A   1      -9.090  -1.927 125.439  0.00  0.00    -0.011 C 
ATOM      3  C   LIG A   1      -8.687  -0.895 124.385  0.00  0.00    +0.003 C 
ATOM      4  C   LIG A   1      -9.262  -1.464 123.096  0.00  0.00    +0.000 C 
ATOM      5  C   LIG A   1      -8.937  -2.941 123.211  0.00  0.00    +0.000 C 
ATOM      6  C   LIG A   1      -9.132  -3.268 124.693  0.00  0.00    +0.003 C 
ENDBRANCH   1   2
BRANCH   1   7
ATOM      7  C   LIG A   1      -6.811  -1.324 126.366  0.00  0.00    +0.000 C 
BRANCH   7   8
ATOM      8  C   LIG A   1      -5.767  -2.320 125.858  0.00  0.00    -0.000 C 
BRANCH   8   9
ATOM      9  C   LIG A   1      -5.227  -2.069 124.441  0.00  0.00    -0.000 C 
BRANCH   9  11
ATOM     10  C   LIG A   1      -4.350  -4.422 123.777  0.00  0.00    +0.004 C 
ATOM     11  C   LIG A   1      -5.224  -3.228 123.436  0.00  0.00    -0.003 C 
ENDBRANCH   9  11
ENDBRANCH   8   9
ENDBRANCH   7   8
ENDBRANCH   1   7
TORSDOF 5
ENDMDL
MODEL 6
REMARK VINA RESULT:      -4.9      1.174      4.778
REMARK  Name = NuBBE_2136
REMARK  6 active torsions:
REMARK  status: ('A' for Active; 'I' for Inactive)
REMARK    1  A    between atoms: C_1  and  C_2
REMARK    2  A    between atoms: C_2  and  C_3
REMARK    3  A    between atoms: C_3  and  C_4
REMARK    4  A    between atoms: C_4  and  C_5
REMARK    5  A    between atoms: C_5  and  C_6
REMARK    6  A    between atoms: C_6  and  C_7
REMARK                            x       y       z     vdW  Elec       q    Type
REMARK                         _______ _______ _______ _____ _____    ______ ____
ROOT
ATOM      1  C   LIG A   1      -9.148  -3.026 124.770  0.00  0.00    +0.003 C 
ENDROOT
BRANCH   1   2
ATOM      2  C   LIG A   1      -8.006  -3.084 123.738  0.00  0.00    -0.011 C 
ATOM      3  C   LIG A   1      -7.801  -1.781 122.966  0.00  0.00    +0.003 C 
ATOM      4  C   LIG A   1      -6.347  -1.859 122.521  0.00  0.00    +0.000 C 
ATOM      5  C   LIG A   1      -5.652  -2.398 123.758  0.00  0.00    +0.000 C 
ATOM      6  C   LIG A   1      -6.635  -3.411 124.346  0.00  0.00    +0.003 C 
ENDBRANCH   1   2
BRANCH   1   7
ATOM      7  C   LIG A   1      -8.598  -2.775 126.181  0.00  0.00    +0.000 C 
BRANCH   7   8
ATOM      8  C   LIG A   1      -9.148  -3.708 127.261  0.00  0.00    -0.000 C 
BRANCH   8   9
ATOM      9  C   LIG A   1      -8.576  -3.518 128.676  0.00  0.00    -0.000 C 
BRANCH   9  11
ATOM     10  C   LIG A   1      -6.372  -3.514 130.050  0.00  0.00    +0.004 C 
ATOM     11  C   LIG A   1      -7.131  -3.027 128.828  0.00  0.00    -0.003 C 
ENDBRANCH   9  11
ENDBRANCH   8   9
ENDBRANCH   7   8
ENDBRANCH   1   7
TORSDOF 5
ENDMDL
MODEL 7
REMARK VINA RESULT:      -4.8     10.493     12.539
REMARK  Name = NuBBE_2136
REMARK  6 active torsions:
REMARK  status: ('A' for Active; 'I' for Inactive)
REMARK    1  A    between atoms: C_1  and  C_2
REMARK    2  A    between atoms: C_2  and  C_3
REMARK    3  A    between atoms: C_3  and  C_4
REMARK    4  A    between atoms: C_4  and  C_5
REMARK    5  A    between atoms: C_5  and  C_6
REMARK    6  A    between atoms: C_6  and  C_7
REMARK                            x       y       z     vdW  Elec       q    Type
REMARK                         _______ _______ _______ _____ _____    ______ ____
ROOT
ATOM      1  C   LIG A   1     -12.629   7.408 131.375  0.00  0.00    +0.003 C 
ENDROOT
BRANCH   1   2
ATOM      2  C   LIG A   1     -12.376   7.708 129.885  0.00  0.00    -0.011 C 
ATOM      3  C   LIG A   1     -13.156   6.804 128.930  0.00  0.00    +0.003 C 
ATOM      4  C   LIG A   1     -13.247   7.632 127.655  0.00  0.00    +0.000 C 
ATOM      5  C   LIG A   1     -13.559   9.020 128.184  0.00  0.00    +0.000 C 
ATOM      6  C   LIG A   1     -12.738   9.140 129.469  0.00  0.00    +0.003 C 
ENDBRANCH   1   2
BRANCH   1   7
ATOM      7  C   LIG A   1     -11.657   6.337 131.890  0.00  0.00    +0.000 C 
BRANCH   7   8
ATOM      8  C   LIG A   1     -10.213   6.494 131.408  0.00  0.00    -0.000 C 
BRANCH   8   9
ATOM      9  C   LIG A   1      -9.124   5.955 132.350  0.00  0.00    -0.000 C 
BRANCH   9  11
ATOM     10  C   LIG A   1      -9.108   3.856 133.879  0.00  0.00    +0.004 C 
ATOM     11  C   LIG A   1      -8.949   4.437 132.486  0.00  0.00    -0.003 C 
ENDBRANCH   9  11
ENDBRANCH   8   9
ENDBRANCH   7   8
ENDBRANCH   1   7
TORSDOF 5
ENDMDL
MODEL 8
REMARK VINA RESULT:      -4.6      1.530      4.619
REMARK  Name = NuBBE_2136
REMARK  6 active torsions:
REMARK  status: ('A' for Active; 'I' for Inactive)
REMARK    1  A    between atoms: C_1  and  C_2
REMARK    2  A    between atoms: C_2  and  C_3
REMARK    3  A    between atoms: C_3  and  C_4
REMARK    4  A    between atoms: C_4  and  C_5
REMARK    5  A    between atoms: C_5  and  C_6
REMARK    6  A    between atoms: C_6  and  C_7
REMARK                            x       y       z     vdW  Elec       q    Type
REMARK                         _______ _______ _______ _____ _____    ______ ____
ROOT
ATOM      1  C   LIG A   1      -8.459  -0.447 124.469  0.00  0.00    +0.003 C 
ENDROOT
BRANCH   1   2
ATOM      2  C   LIG A   1      -7.019  -0.799 124.050  0.00  0.00    -0.011 C 
ATOM      3  C   LIG A   1      -6.117  -1.211 125.213  0.00  0.00    +0.003 C 
ATOM      4  C   LIG A   1      -5.044  -2.059 124.546  0.00  0.00    +0.000 C 
ATOM      5  C   LIG A   1      -5.847  -2.899 123.569  0.00  0.00    +0.000 C 
ATOM      6  C   LIG A   1      -6.929  -1.955 123.043  0.00  0.00    +0.003 C 
ENDBRANCH   1   2
BRANCH   1   7
ATOM      7  C   LIG A   1      -8.793  -1.053 125.840  0.00  0.00    +0.000 C 
BRANCH   7   8
ATOM      8  C   LIG A   1      -9.439  -2.438 125.791  0.00  0.00    -0.000 C 
BRANCH   8   9
ATOM      9  C   LIG A   1      -8.646  -3.579 126.451  0.00  0.00    -0.000 C 
BRANCH   9  11
ATOM     10  C   LIG A   1      -8.238  -3.282 128.998  0.00  0.00    +0.004 C 
ATOM     11  C   LIG A   1      -8.996  -3.987 127.887  0.00  0.00    -0.003 C 
ENDBRANCH   9  11
ENDBRANCH   8   9
ENDBRANCH   7   8
ENDBRANCH   1   7
TORSDOF 5
ENDMDL
MODEL 9
REMARK VINA RESULT:      -4.5      2.400      4.894
REMARK  Name = NuBBE_2136
REMARK  6 active torsions:
REMARK  status: ('A' for Active; 'I' for Inactive)
REMARK    1  A    between atoms: C_1  and  C_2
REMARK    2  A    between atoms: C_2  and  C_3
REMARK    3  A    between atoms: C_3  and  C_4
REMARK    4  A    between atoms: C_4  and  C_5
REMARK    5  A    between atoms: C_5  and  C_6
REMARK    6  A    between atoms: C_6  and  C_7
REMARK                            x       y       z     vdW  Elec       q    Type
REMARK                         _______ _______ _______ _____ _____    ______ ____
ROOT
ATOM      1  C   LIG A   1      -5.652  -2.776 124.780  0.00  0.00    +0.003 C 
ENDROOT
BRANCH   1   2
ATOM      2  C   LIG A   1      -6.861  -3.174 123.914  0.00  0.00    -0.011 C 
ATOM      3  C   LIG A   1      -8.129  -3.467 124.717  0.00  0.00    +0.003 C 
ATOM      4  C   LIG A   1      -9.247  -3.221 123.714  0.00  0.00    +0.000 C 
ATOM      5  C   LIG A   1      -8.789  -1.956 123.012  0.00  0.00    +0.000 C 
ATOM      6  C   LIG A   1      -7.272  -2.106 122.891  0.00  0.00    +0.003 C 
ENDBRANCH   1   2
BRANCH   1   7
ATOM      7  C   LIG A   1      -6.068  -1.789 125.881  0.00  0.00    +0.000 C 
BRANCH   7   8
ATOM      8  C   LIG A   1      -5.354  -0.437 125.835  0.00  0.00    -0.000 C 
BRANCH   8   9
ATOM      9  C   LIG A   1      -6.259   0.806 125.814  0.00  0.00    -0.000 C 
BRANCH   9  11
ATOM     10  C   LIG A   1      -8.792   0.649 126.365  0.00  0.00    +0.004 C 
ATOM     11  C   LIG A   1      -7.701   0.662 125.310  0.00  0.00    -0.003 C 
ENDBRANCH   9  11
ENDBRANCH   8   9
ENDBRANCH   7   8
ENDBRANCH   1   7
TORSDOF 5
ENDMDL
