MODEL 1
REMARK VINA RESULT:      -7.4      0.000      0.000
REMARK  Name = NuBBE_566
REMARK  7 active torsions:
REMARK  status: ('A' for Active; 'I' for Inactive)
REMARK    1  A    between atoms: O_1  and  C_2
REMARK    2  A    between atoms: C_4  and  O_5
REMARK    3  A    between atoms: C_6  and  C_7
REMARK    4  A    between atoms: C_7  and  C_8
REMARK    5  A    between atoms: C_9  and  C_10
REMARK    6  A    between atoms: C_12  and  O_13
REMARK    7  A    between atoms: C_14  and  O_15
REMARK                            x       y       z     vdW  Elec       q    Type
REMARK                         _______ _______ _______ _____ _____    ______ ____
ROOT
ATOM      1  C   LIG A   1      -8.691   1.568 124.131  0.00  0.00    +0.190 C 
ATOM      2  O   LIG A   1      -9.356   1.979 125.077  0.00  0.00    -0.287 OA
ENDROOT
BRANCH   1   6
ATOM      3  C   LIG A   1      -7.310  -2.498 124.123  0.00  0.00    +0.120 A 
ATOM      4  C   LIG A   1      -8.477  -2.197 123.428  0.00  0.00    +0.091 A 
ATOM      5  C   LIG A   1      -8.949  -0.879 123.414  0.00  0.00    +0.131 A 
ATOM      6  C   LIG A   1      -8.264   0.134 124.100  0.00  0.00    +0.063 A 
ATOM      7  C   LIG A   1      -7.083  -0.195 124.790  0.00  0.00    +0.019 A 
ATOM      8  C   LIG A   1      -6.611  -1.510 124.802  0.00  0.00    +0.046 A 
BRANCH   3   9
ATOM      9  O   LIG A   1      -6.813  -3.767 124.159  0.00  0.00    -0.507 OA
ATOM     10  H   LIG A   1      -6.283  -3.883 124.965  0.00  0.00    +0.292 HD
ENDBRANCH   3   9
BRANCH   5  11
ATOM     11  O   LIG A   1     -10.076  -0.603 122.689  0.00  0.00    -0.506 OA
ATOM     12  H   LIG A   1      -9.857  -0.010 121.950  0.00  0.00    +0.292 HD
ENDBRANCH   5  11
ENDBRANCH   1   6
BRANCH   1  13
ATOM     13  C   LIG A   1      -8.369   2.443 122.968  0.00  0.00    +0.052 C 
ATOM     14  C   LIG A   1      -7.092   2.692 122.641  0.00  0.00    +0.012 C 
BRANCH  14  15
ATOM     15  C   LIG A   1      -6.678   3.594 121.557  0.00  0.00    -0.021 A 
ATOM     16  C   LIG A   1      -5.542   4.392 121.764  0.00  0.00    +0.057 A 
ATOM     17  C   LIG A   1      -5.092   5.232 120.750  0.00  0.00    +0.159 A 
ATOM     18  C   LIG A   1      -5.755   5.281 119.529  0.00  0.00    +0.158 A 
ATOM     19  C   LIG A   1      -6.878   4.502 119.302  0.00  0.00    +0.050 A 
ATOM     20  C   LIG A   1      -7.339   3.653 120.316  0.00  0.00    +0.012 A 
BRANCH  17  21
ATOM     21  O   LIG A   1      -3.991   6.030 120.912  0.00  0.00    -0.503 OA
ATOM     22  H   LIG A   1      -4.298   6.911 121.191  0.00  0.00    +0.292 HD
ENDBRANCH  17  21
BRANCH  18  23
ATOM     23  O   LIG A   1      -5.293   6.097 118.536  0.00  0.00    -0.503 OA
ATOM     24  H   LIG A   1      -4.562   6.598 118.952  0.00  0.00    +0.292 HD
ENDBRANCH  18  23
ENDBRANCH  14  15
ENDBRANCH   1  13
TORSDOF 7
ENDMDL
MODEL 2
REMARK VINA RESULT:      -7.2      9.419     10.539
REMARK  Name = NuBBE_566
REMARK  7 active torsions:
REMARK  status: ('A' for Active; 'I' for Inactive)
REMARK    1  A    between atoms: O_1  and  C_2
REMARK    2  A    between atoms: C_4  and  O_5
REMARK    3  A    between atoms: C_6  and  C_7
REMARK    4  A    between atoms: C_7  and  C_8
REMARK    5  A    between atoms: C_9  and  C_10
REMARK    6  A    between atoms: C_12  and  O_13
REMARK    7  A    between atoms: C_14  and  O_15
REMARK                            x       y       z     vdW  Elec       q    Type
REMARK                         _______ _______ _______ _____ _____    ______ ____
ROOT
ATOM      1  C   LIG A   1      -9.217   6.504 131.435  0.00  0.00    +0.190 C 
ATOM      2  O   LIG A   1      -9.334   6.347 132.646  0.00  0.00    -0.287 OA
ENDROOT
BRANCH   1   6
ATOM      3  C   LIG A   1     -12.462   7.986 129.046  0.00  0.00    +0.120 A 
ATOM      4  C   LIG A   1     -12.766   7.249 130.186  0.00  0.00    +0.091 A 
ATOM      5  C   LIG A   1     -11.728   6.755 130.983  0.00  0.00    +0.131 A 
ATOM      6  C   LIG A   1     -10.388   6.986 130.638  0.00  0.00    +0.063 A 
ATOM      7  C   LIG A   1     -10.108   7.740 129.484  0.00  0.00    +0.019 A 
ATOM      8  C   LIG A   1     -11.145   8.235 128.689  0.00  0.00    +0.046 A 
BRANCH   3   9
ATOM      9  O   LIG A   1     -13.444   8.489 128.244  0.00  0.00    -0.507 OA
ATOM     10  H   LIG A   1     -13.175   9.363 127.915  0.00  0.00    +0.292 HD
ENDBRANCH   3   9
BRANCH   5  11
ATOM     11  O   LIG A   1     -12.054   6.068 132.121  0.00  0.00    -0.506 OA
ATOM     12  H   LIG A   1     -11.387   5.384 132.297  0.00  0.00    +0.292 HD
ENDBRANCH   5  11
ENDBRANCH   1   6
BRANCH   1  13
ATOM     13  C   LIG A   1      -7.909   6.307 130.749  0.00  0.00    +0.052 C 
ATOM     14  C   LIG A   1      -6.794   6.869 131.241  0.00  0.00    +0.012 C 
BRANCH  14  15
ATOM     15  C   LIG A   1      -5.475   6.789 130.598  0.00  0.00    -0.021 A 
ATOM     16  C   LIG A   1      -4.953   5.515 130.325  0.00  0.00    +0.057 A 
ATOM     17  C   LIG A   1      -3.725   5.393 129.683  0.00  0.00    +0.159 A 
ATOM     18  C   LIG A   1      -3.014   6.524 129.300  0.00  0.00    +0.158 A 
ATOM     19  C   LIG A   1      -3.511   7.792 129.557  0.00  0.00    +0.050 A 
ATOM     20  C   LIG A   1      -4.746   7.925 130.204  0.00  0.00    +0.012 A 
BRANCH  17  21
ATOM     21  O   LIG A   1      -3.178   4.170 129.403  0.00  0.00    -0.503 OA
ATOM     22  H   LIG A   1      -2.229   4.210 129.616  0.00  0.00    +0.292 HD
ENDBRANCH  17  21
BRANCH  18  23
ATOM     23  O   LIG A   1      -1.819   6.391 128.654  0.00  0.00    -0.503 OA
ATOM     24  H   LIG A   1      -1.411   5.598 129.057  0.00  0.00    +0.292 HD
ENDBRANCH  18  23
ENDBRANCH  14  15
ENDBRANCH   1  13
TORSDOF 7
ENDMDL
MODEL 3
REMARK VINA RESULT:      -7.2      1.441      2.054
REMARK  Name = NuBBE_566
REMARK  7 active torsions:
REMARK  status: ('A' for Active; 'I' for Inactive)
REMARK    1  A    between atoms: O_1  and  C_2
REMARK    2  A    between atoms: C_4  and  O_5
REMARK    3  A    between atoms: C_6  and  C_7
REMARK    4  A    between atoms: C_7  and  C_8
REMARK    5  A    between atoms: C_9  and  C_10
REMARK    6  A    between atoms: C_12  and  O_13
REMARK    7  A    between atoms: C_14  and  O_15
REMARK                            x       y       z     vdW  Elec       q    Type
REMARK                         _______ _______ _______ _____ _____    ______ ____
ROOT
ATOM      1  C   LIG A   1      -6.940   0.635 124.378  0.00  0.00    +0.190 C 
ATOM      2  O   LIG A   1      -6.678   1.011 125.516  0.00  0.00    -0.287 OA
ENDROOT
BRANCH   1   6
ATOM      3  C   LIG A   1      -9.444  -2.785 123.690  0.00  0.00    +0.120 A 
ATOM      4  C   LIG A   1      -8.547  -2.828 124.752  0.00  0.00    +0.091 A 
ATOM      5  C   LIG A   1      -7.719  -1.727 124.999  0.00  0.00    +0.131 A 
ATOM      6  C   LIG A   1      -7.779  -0.589 124.182  0.00  0.00    +0.063 A 
ATOM      7  C   LIG A   1      -8.700  -0.568 123.119  0.00  0.00    +0.019 A 
ATOM      8  C   LIG A   1      -9.528  -1.667 122.874  0.00  0.00    +0.046 A 
BRANCH   3   9
ATOM      9  O   LIG A   1     -10.271  -3.834 123.418  0.00  0.00    -0.507 OA
ATOM     10  H   LIG A   1     -10.202  -4.063 122.475  0.00  0.00    +0.292 HD
ENDBRANCH   3   9
BRANCH   5  11
ATOM     11  O   LIG A   1      -6.874  -1.779 126.074  0.00  0.00    -0.506 OA
ATOM     12  H   LIG A   1      -6.595  -2.697 126.231  0.00  0.00    +0.292 HD
ENDBRANCH   5  11
ENDBRANCH   1   6
BRANCH   1  13
ATOM     13  C   LIG A   1      -6.515   1.417 123.183  0.00  0.00    +0.052 C 
ATOM     14  C   LIG A   1      -6.702   2.745 123.141  0.00  0.00    +0.012 C 
BRANCH  14  15
ATOM     15  C   LIG A   1      -6.380   3.588 121.980  0.00  0.00    -0.021 A 
ATOM     16  C   LIG A   1      -5.279   4.454 122.083  0.00  0.00    +0.057 A 
ATOM     17  C   LIG A   1      -4.915   5.242 120.996  0.00  0.00    +0.159 A 
ATOM     18  C   LIG A   1      -5.628   5.173 119.805  0.00  0.00    +0.158 A 
ATOM     19  C   LIG A   1      -6.717   4.325 119.680  0.00  0.00    +0.050 A 
ATOM     20  C   LIG A   1      -7.092   3.527 120.769  0.00  0.00    +0.012 A 
BRANCH  17  21
ATOM     21  O   LIG A   1      -3.852   6.103 121.054  0.00  0.00    -0.503 OA
ATOM     22  H   LIG A   1      -4.203   7.010 121.093  0.00  0.00    +0.292 HD
ENDBRANCH  17  21
BRANCH  18  23
ATOM     23  O   LIG A   1      -5.250   5.938 118.739  0.00  0.00    -0.503 OA
ATOM     24  H   LIG A   1      -4.565   5.406 118.287  0.00  0.00    +0.292 HD
ENDBRANCH  18  23
ENDBRANCH  14  15
ENDBRANCH   1  13
TORSDOF 7
ENDMDL
MODEL 4
REMARK VINA RESULT:      -7.1      1.225      2.156
REMARK  Name = NuBBE_566
REMARK  7 active torsions:
REMARK  status: ('A' for Active; 'I' for Inactive)
REMARK    1  A    between atoms: O_1  and  C_2
REMARK    2  A    between atoms: C_4  and  O_5
REMARK    3  A    between atoms: C_6  and  C_7
REMARK    4  A    between atoms: C_7  and  C_8
REMARK    5  A    between atoms: C_9  and  C_10
REMARK    6  A    between atoms: C_12  and  O_13
REMARK    7  A    between atoms: C_14  and  O_15
REMARK                            x       y       z     vdW  Elec       q    Type
REMARK                         _______ _______ _______ _____ _____    ______ ____
ROOT
ATOM      1  C   LIG A   1      -9.320   1.309 124.060  0.00  0.00    +0.190 C 
ATOM      2  O   LIG A   1     -10.169   1.824 124.781  0.00  0.00    -0.287 OA
ENDROOT
BRANCH   1   6
ATOM      3  C   LIG A   1      -8.320  -2.846 124.479  0.00  0.00    +0.120 A 
ATOM      4  C   LIG A   1      -8.279  -2.041 125.613  0.00  0.00    +0.091 A 
ATOM      5  C   LIG A   1      -8.601  -0.684 125.505  0.00  0.00    +0.131 A 
ATOM      6  C   LIG A   1      -8.953  -0.127 124.266  0.00  0.00    +0.063 A 
ATOM      7  C   LIG A   1      -8.994  -0.965 123.136  0.00  0.00    +0.019 A 
ATOM      8  C   LIG A   1      -8.674  -2.321 123.245  0.00  0.00    +0.046 A 
BRANCH   3   9
ATOM      9  O   LIG A   1      -8.018  -4.174 124.541  0.00  0.00    -0.507 OA
ATOM     10  H   LIG A   1      -8.360  -4.620 123.749  0.00  0.00    +0.292 HD
ENDBRANCH   3   9
BRANCH   5  11
ATOM     11  O   LIG A   1      -8.592   0.077 126.642  0.00  0.00    -0.506 OA
ATOM     12  H   LIG A   1      -8.410  -0.485 127.414  0.00  0.00    +0.292 HD
ENDBRANCH   5  11
ENDBRANCH   1   6
BRANCH   1  13
ATOM     13  C   LIG A   1      -8.706   2.055 122.926  0.00  0.00    +0.052 C 
ATOM     14  C   LIG A   1      -7.453   2.525 123.025  0.00  0.00    +0.012 C 
BRANCH  14  15
ATOM     15  C   LIG A   1      -6.789   3.330 121.989  0.00  0.00    -0.021 A 
ATOM     16  C   LIG A   1      -7.474   3.542 120.782  0.00  0.00    +0.057 A 
ATOM     17  C   LIG A   1      -6.899   4.329 119.789  0.00  0.00    +0.159 A 
ATOM     18  C   LIG A   1      -5.655   4.916 119.987  0.00  0.00    +0.158 A 
ATOM     19  C   LIG A   1      -4.962   4.722 121.171  0.00  0.00    +0.050 A 
ATOM     20  C   LIG A   1      -5.531   3.931 122.176  0.00  0.00    +0.012 A 
BRANCH  17  21
ATOM     21  O   LIG A   1      -7.530   4.557 118.596  0.00  0.00    -0.503 OA
ATOM     22  H   LIG A   1      -8.121   5.321 118.710  0.00  0.00    +0.292 HD
ENDBRANCH  17  21
BRANCH  18  23
ATOM     23  O   LIG A   1      -5.109   5.701 119.012  0.00  0.00    -0.503 OA
ATOM     24  H   LIG A   1      -4.164   5.769 119.255  0.00  0.00    +0.292 HD
ENDBRANCH  18  23
ENDBRANCH  14  15
ENDBRANCH   1  13
TORSDOF 7
ENDMDL
MODEL 5
REMARK VINA RESULT:      -7.1      9.427     11.193
REMARK  Name = NuBBE_566
REMARK  7 active torsions:
REMARK  status: ('A' for Active; 'I' for Inactive)
REMARK    1  A    between atoms: O_1  and  C_2
REMARK    2  A    between atoms: C_4  and  O_5
REMARK    3  A    between atoms: C_6  and  C_7
REMARK    4  A    between atoms: C_7  and  C_8
REMARK    5  A    between atoms: C_9  and  C_10
REMARK    6  A    between atoms: C_12  and  O_13
REMARK    7  A    between atoms: C_14  and  O_15
REMARK                            x       y       z     vdW  Elec       q    Type
REMARK                         _______ _______ _______ _____ _____    ______ ____
ROOT
ATOM      1  C   LIG A   1      -9.883   5.476 130.391  0.00  0.00    +0.190 C 
ATOM      2  O   LIG A   1     -10.393   4.410 130.720  0.00  0.00    -0.287 OA
ENDROOT
BRANCH   1   6
ATOM      3  C   LIG A   1     -12.280   8.828 129.184  0.00  0.00    +0.120 A 
ATOM      4  C   LIG A   1     -12.675   8.104 130.304  0.00  0.00    +0.091 A 
ATOM      5  C   LIG A   1     -11.912   7.008 130.720  0.00  0.00    +0.131 A 
ATOM      6  C   LIG A   1     -10.762   6.627 130.014  0.00  0.00    +0.063 A 
ATOM      7  C   LIG A   1     -10.379   7.380 128.888  0.00  0.00    +0.019 A 
ATOM      8  C   LIG A   1     -11.141   8.476 128.474  0.00  0.00    +0.046 A 
BRANCH   3   9
ATOM      9  O   LIG A   1     -12.992   9.905 128.747  0.00  0.00    -0.507 OA
ATOM     10  H   LIG A   1     -13.923   9.650 128.628  0.00  0.00    +0.292 HD
ENDBRANCH   3   9
BRANCH   5  11
ATOM     11  O   LIG A   1     -12.301   6.338 131.848  0.00  0.00    -0.506 OA
ATOM     12  H   LIG A   1     -12.366   5.386 131.661  0.00  0.00    +0.292 HD
ENDBRANCH   5  11
ENDBRANCH   1   6
BRANCH   1  13
ATOM     13  C   LIG A   1      -8.407   5.680 130.441  0.00  0.00    +0.052 C 
ATOM     14  C   LIG A   1      -7.828   6.169 131.547  0.00  0.00    +0.012 C 
BRANCH  14  15
ATOM     15  C   LIG A   1      -6.394   6.469 131.666  0.00  0.00    -0.021 A 
ATOM     16  C   LIG A   1      -5.794   7.222 130.644  0.00  0.00    +0.057 A 
ATOM     17  C   LIG A   1      -4.448   7.562 130.734  0.00  0.00    +0.159 A 
ATOM     18  C   LIG A   1      -3.694   7.169 131.834  0.00  0.00    +0.158 A 
ATOM     19  C   LIG A   1      -4.265   6.427 132.855  0.00  0.00    +0.050 A 
ATOM     20  C   LIG A   1      -5.620   6.080 132.773  0.00  0.00    +0.012 A 
BRANCH  17  21
ATOM     21  O   LIG A   1      -3.822   8.290 129.758  0.00  0.00    -0.503 OA
ATOM     22  H   LIG A   1      -2.928   8.509 130.074  0.00  0.00    +0.292 HD
ENDBRANCH  17  21
BRANCH  18  23
ATOM     23  O   LIG A   1      -2.378   7.524 131.919  0.00  0.00    -0.503 OA
ATOM     24  H   LIG A   1      -2.341   8.419 131.524  0.00  0.00    +0.292 HD
ENDBRANCH  18  23
ENDBRANCH  14  15
ENDBRANCH   1  13
TORSDOF 7
ENDMDL
MODEL 6
REMARK VINA RESULT:      -7.0      9.496     11.524
REMARK  Name = NuBBE_566
REMARK  7 active torsions:
REMARK  status: ('A' for Active; 'I' for Inactive)
REMARK    1  A    between atoms: O_1  and  C_2
REMARK    2  A    between atoms: C_4  and  O_5
REMARK    3  A    between atoms: C_6  and  C_7
REMARK    4  A    between atoms: C_7  and  C_8
REMARK    5  A    between atoms: C_9  and  C_10
REMARK    6  A    between atoms: C_12  and  O_13
REMARK    7  A    between atoms: C_14  and  O_15
REMARK                            x       y       z     vdW  Elec       q    Type
REMARK                         _______ _______ _______ _____ _____    ______ ____
ROOT
ATOM      1  C   LIG A   1     -10.353   5.316 130.043  0.00  0.00    +0.190 C 
ATOM      2  O   LIG A   1     -10.961   4.250 130.034  0.00  0.00    -0.287 OA
ENDROOT
BRANCH   1   6
ATOM      3  C   LIG A   1     -12.379   9.014 129.232  0.00  0.00    +0.120 A 
ATOM      4  C   LIG A   1     -12.758   8.288 130.356  0.00  0.00    +0.091 A 
ATOM      5  C   LIG A   1     -12.114   7.079 130.645  0.00  0.00    +0.131 A 
ATOM      6  C   LIG A   1     -11.101   6.591 129.808  0.00  0.00    +0.063 A 
ATOM      7  C   LIG A   1     -10.731   7.348 128.681  0.00  0.00    +0.019 A 
ATOM      8  C   LIG A   1     -11.373   8.556 128.395  0.00  0.00    +0.046 A 
BRANCH   3   9
ATOM      9  O   LIG A   1     -12.978  10.198 128.918  0.00  0.00    -0.507 OA
ATOM     10  H   LIG A   1     -12.562  10.568 128.121  0.00  0.00    +0.292 HD
ENDBRANCH   3   9
BRANCH   5  11
ATOM     11  O   LIG A   1     -12.479   6.405 131.778  0.00  0.00    -0.506 OA
ATOM     12  H   LIG A   1     -13.141   6.919 132.270  0.00  0.00    +0.292 HD
ENDBRANCH   5  11
ENDBRANCH   1   6
BRANCH   1  13
ATOM     13  C   LIG A   1      -8.901   5.380 130.370  0.00  0.00    +0.052 C 
ATOM     14  C   LIG A   1      -8.463   6.176 131.356  0.00  0.00    +0.012 C 
BRANCH  14  15
ATOM     15  C   LIG A   1      -7.047   6.358 131.704  0.00  0.00    -0.021 A 
ATOM     16  C   LIG A   1      -6.590   5.807 132.912  0.00  0.00    +0.057 A 
ATOM     17  C   LIG A   1      -5.250   5.922 133.263  0.00  0.00    +0.159 A 
ATOM     18  C   LIG A   1      -4.354   6.572 132.422  0.00  0.00    +0.158 A 
ATOM     19  C   LIG A   1      -4.781   7.123 131.224  0.00  0.00    +0.050 A 
ATOM     20  C   LIG A   1      -6.130   7.013 130.862  0.00  0.00    +0.012 A 
BRANCH  17  21
ATOM     21  O   LIG A   1      -4.764   5.403 134.433  0.00  0.00    -0.503 OA
ATOM     22  H   LIG A   1      -4.446   4.501 134.252  0.00  0.00    +0.292 HD
ENDBRANCH  17  21
BRANCH  18  23
ATOM     23  O   LIG A   1      -3.036   6.663 132.769  0.00  0.00    -0.503 OA
ATOM     24  H   LIG A   1      -2.649   5.812 132.478  0.00  0.00    +0.292 HD
ENDBRANCH  18  23
ENDBRANCH  14  15
ENDBRANCH   1  13
TORSDOF 7
ENDMDL
MODEL 7
REMARK VINA RESULT:      -7.0      4.397      7.222
REMARK  Name = NuBBE_566
REMARK  7 active torsions:
REMARK  status: ('A' for Active; 'I' for Inactive)
REMARK    1  A    between atoms: O_1  and  C_2
REMARK    2  A    between atoms: C_4  and  O_5
REMARK    3  A    between atoms: C_6  and  C_7
REMARK    4  A    between atoms: C_7  and  C_8
REMARK    5  A    between atoms: C_9  and  C_10
REMARK    6  A    between atoms: C_12  and  O_13
REMARK    7  A    between atoms: C_14  and  O_15
REMARK                            x       y       z     vdW  Elec       q    Type
REMARK                         _______ _______ _______ _____ _____    ______ ____
ROOT
ATOM      1  C   LIG A   1      -6.483   3.335 122.974  0.00  0.00    +0.190 C 
ATOM      2  O   LIG A   1      -7.223   2.377 123.172  0.00  0.00    -0.287 OA
ENDROOT
BRANCH   1   6
ATOM      3  C   LIG A   1      -6.048   5.085 119.076  0.00  0.00    +0.120 A 
ATOM      4  C   LIG A   1      -7.263   4.490 119.400  0.00  0.00    +0.091 A 
ATOM      5  C   LIG A   1      -7.432   3.913 120.663  0.00  0.00    +0.131 A 
ATOM      6  C   LIG A   1      -6.388   3.920 121.599  0.00  0.00    +0.063 A 
ATOM      7  C   LIG A   1      -5.171   4.534 121.250  0.00  0.00    +0.019 A 
ATOM      8  C   LIG A   1      -5.003   5.112 119.989  0.00  0.00    +0.046 A 
BRANCH   3   9
ATOM      9  O   LIG A   1      -5.843   5.662 117.859  0.00  0.00    -0.507 OA
ATOM     10  H   LIG A   1      -5.390   5.031 117.275  0.00  0.00    +0.292 HD
ENDBRANCH   3   9
BRANCH   5  11
ATOM     11  O   LIG A   1      -8.651   3.370 120.971  0.00  0.00    -0.506 OA
ATOM     12  H   LIG A   1      -9.021   2.926 120.189  0.00  0.00    +0.292 HD
ENDBRANCH   5  11
ENDBRANCH   1   6
BRANCH   1  13
ATOM     13  C   LIG A   1      -5.739   3.987 124.088  0.00  0.00    +0.052 C 
ATOM     14  C   LIG A   1      -5.106   3.242 125.007  0.00  0.00    +0.012 C 
BRANCH  14  15
ATOM     15  C   LIG A   1      -4.407   3.792 126.177  0.00  0.00    -0.021 A 
ATOM     16  C   LIG A   1      -5.153   4.553 127.092  0.00  0.00    +0.057 A 
ATOM     17  C   LIG A   1      -4.541   5.060 128.233  0.00  0.00    +0.159 A 
ATOM     18  C   LIG A   1      -3.196   4.812 128.480  0.00  0.00    +0.158 A 
ATOM     19  C   LIG A   1      -2.440   4.063 127.593  0.00  0.00    +0.050 A 
ATOM     20  C   LIG A   1      -3.047   3.548 126.441  0.00  0.00    +0.012 A 
BRANCH  17  21
ATOM     21  O   LIG A   1      -5.230   5.810 129.147  0.00  0.00    -0.503 OA
ATOM     22  H   LIG A   1      -6.159   5.854 128.860  0.00  0.00    +0.292 HD
ENDBRANCH  17  21
BRANCH  18  23
ATOM     23  O   LIG A   1      -2.610   5.300 129.613  0.00  0.00    -0.503 OA
ATOM     24  H   LIG A   1      -3.245   5.088 130.327  0.00  0.00    +0.292 HD
ENDBRANCH  18  23
ENDBRANCH  14  15
ENDBRANCH   1  13
TORSDOF 7
ENDMDL
MODEL 8
REMARK VINA RESULT:      -6.9      3.260      8.124
REMARK  Name = NuBBE_566
REMARK  7 active torsions:
REMARK  status: ('A' for Active; 'I' for Inactive)
REMARK    1  A    between atoms: O_1  and  C_2
REMARK    2  A    between atoms: C_4  and  O_5
REMARK    3  A    between atoms: C_6  and  C_7
REMARK    4  A    between atoms: C_7  and  C_8
REMARK    5  A    between atoms: C_9  and  C_10
REMARK    6  A    between atoms: C_12  and  O_13
REMARK    7  A    between atoms: C_14  and  O_15
REMARK                            x       y       z     vdW  Elec       q    Type
REMARK                         _______ _______ _______ _____ _____    ______ ____
ROOT
ATOM      1  C   LIG A   1      -8.892  -1.584 123.870  0.00  0.00    +0.190 C 
ATOM      2  O   LIG A   1      -9.754  -2.252 123.309  0.00  0.00    -0.287 OA
ENDROOT
BRANCH   1   6
ATOM      3  C   LIG A   1      -8.229   2.543 122.883  0.00  0.00    +0.120 A 
ATOM      4  C   LIG A   1      -9.468   1.985 122.587  0.00  0.00    +0.091 A 
ATOM      5  C   LIG A   1      -9.711   0.643 122.899  0.00  0.00    +0.131 A 
ATOM      6  C   LIG A   1      -8.717  -0.146 123.495  0.00  0.00    +0.063 A 
ATOM      7  C   LIG A   1      -7.474   0.444 123.791  0.00  0.00    +0.019 A 
ATOM      8  C   LIG A   1      -7.232   1.785 123.482  0.00  0.00    +0.046 A 
BRANCH   3   9
ATOM      9  O   LIG A   1      -7.952   3.847 122.601  0.00  0.00    -0.507 OA
ATOM     10  H   LIG A   1      -8.381   4.418 123.259  0.00  0.00    +0.292 HD
ENDBRANCH   3   9
BRANCH   5  11
ATOM     11  O   LIG A   1     -10.952   0.130 122.633  0.00  0.00    -0.506 OA
ATOM     12  H   LIG A   1     -11.636   0.710 123.009  0.00  0.00    +0.292 HD
ENDBRANCH   5  11
ENDBRANCH   1   6
BRANCH   1  13
ATOM     13  C   LIG A   1      -8.070  -2.146 124.979  0.00  0.00    +0.052 C 
ATOM     14  C   LIG A   1      -8.471  -2.015 126.252  0.00  0.00    +0.012 C 
BRANCH  14  15
ATOM     15  C   LIG A   1      -7.695  -2.474 127.414  0.00  0.00    -0.021 A 
ATOM     16  C   LIG A   1      -6.344  -2.101 127.490  0.00  0.00    +0.057 A 
ATOM     17  C   LIG A   1      -5.582  -2.481 128.590  0.00  0.00    +0.159 A 
ATOM     18  C   LIG A   1      -6.152  -3.221 129.620  0.00  0.00    +0.158 A 
ATOM     19  C   LIG A   1      -7.483  -3.600 129.567  0.00  0.00    +0.050 A 
ATOM     20  C   LIG A   1      -8.258  -3.222 128.463  0.00  0.00    +0.012 A 
BRANCH  17  21
ATOM     21  O   LIG A   1      -4.260  -2.143 128.703  0.00  0.00    -0.503 OA
ATOM     22  H   LIG A   1      -4.190  -1.418 129.349  0.00  0.00    +0.292 HD
ENDBRANCH  17  21
BRANCH  18  23
ATOM     23  O   LIG A   1      -5.398  -3.573 130.704  0.00  0.00    -0.503 OA
ATOM     24  H   LIG A   1      -5.464  -2.804 131.307  0.00  0.00    +0.292 HD
ENDBRANCH  18  23
ENDBRANCH  14  15
ENDBRANCH   1  13
TORSDOF 7
ENDMDL
MODEL 9
REMARK VINA RESULT:      -6.9      1.548      7.332
REMARK  Name = NuBBE_566
REMARK  7 active torsions:
REMARK  status: ('A' for Active; 'I' for Inactive)
REMARK    1  A    between atoms: O_1  and  C_2
REMARK    2  A    between atoms: C_4  and  O_5
REMARK    3  A    between atoms: C_6  and  C_7
REMARK    4  A    between atoms: C_7  and  C_8
REMARK    5  A    between atoms: C_9  and  C_10
REMARK    6  A    between atoms: C_12  and  O_13
REMARK    7  A    between atoms: C_14  and  O_15
REMARK                            x       y       z     vdW  Elec       q    Type
REMARK                         _______ _______ _______ _____ _____    ______ ____
ROOT
ATOM      1  C   LIG A   1      -7.242   3.206 123.773  0.00  0.00    +0.190 C 
ATOM      2  O   LIG A   1      -7.672   4.014 124.590  0.00  0.00    -0.287 OA
ENDROOT
BRANCH   1   6
ATOM      3  C   LIG A   1      -5.752   4.656 120.016  0.00  0.00    +0.120 A 
ATOM      4  C   LIG A   1      -7.057   4.178 120.067  0.00  0.00    +0.091 A 
ATOM      5  C   LIG A   1      -7.569   3.700 121.279  0.00  0.00    +0.131 A 
ATOM      6  C   LIG A   1      -6.776   3.689 122.436  0.00  0.00    +0.063 A 
ATOM      7  C   LIG A   1      -5.461   4.184 122.359  0.00  0.00    +0.019 A 
ATOM      8  C   LIG A   1      -4.951   4.663 121.149  0.00  0.00    +0.046 A 
BRANCH   3   9
ATOM      9  O   LIG A   1      -5.216   5.134 118.857  0.00  0.00    -0.507 OA
ATOM     10  H   LIG A   1      -4.266   4.929 118.832  0.00  0.00    +0.292 HD
ENDBRANCH   3   9
BRANCH   5  11
ATOM     11  O   LIG A   1      -8.868   3.274 121.311  0.00  0.00    -0.506 OA
ATOM     12  H   LIG A   1      -8.921   2.351 121.010  0.00  0.00    +0.292 HD
ENDBRANCH   5  11
ENDBRANCH   1   6
BRANCH   1  13
ATOM     13  C   LIG A   1      -7.093   1.762 124.111  0.00  0.00    +0.052 C 
ATOM     14  C   LIG A   1      -7.874   0.844 123.521  0.00  0.00    +0.012 C 
BRANCH  14  15
ATOM     15  C   LIG A   1      -7.847  -0.590 123.840  0.00  0.00    -0.021 A 
ATOM     16  C   LIG A   1      -8.986  -1.353 123.533  0.00  0.00    +0.057 A 
ATOM     17  C   LIG A   1      -8.990  -2.721 123.782  0.00  0.00    +0.159 A 
ATOM     18  C   LIG A   1      -7.872  -3.342 124.326  0.00  0.00    +0.158 A 
ATOM     19  C   LIG A   1      -6.736  -2.610 124.635  0.00  0.00    +0.050 A 
ATOM     20  C   LIG A   1      -6.722  -1.232 124.388  0.00  0.00    +0.012 A 
BRANCH  17  21
ATOM     21  O   LIG A   1     -10.080  -3.500 123.503  0.00  0.00    -0.503 OA
ATOM     22  H   LIG A   1     -10.308  -3.373 122.565  0.00  0.00    +0.292 HD
ENDBRANCH  17  21
BRANCH  18  23
ATOM     23  O   LIG A   1      -7.882  -4.690 124.549  0.00  0.00    -0.503 OA
ATOM     24  H   LIG A   1      -8.632  -5.020 124.014  0.00  0.00    +0.292 HD
ENDBRANCH  18  23
ENDBRANCH  14  15
ENDBRANCH   1  13
TORSDOF 7
ENDMDL
