MODEL 1
REMARK VINA RESULT:      -7.4      0.000      0.000
REMARK  Name = NuBBE_376
REMARK  4 active torsions:
REMARK  status: ('A' for Active; 'I' for Inactive)
REMARK    1  A    between atoms: O_1  and  C_2
REMARK    2  A    between atoms: C_4  and  C_5
REMARK    3  A    between atoms: C_5  and  O_6
REMARK    4  A    between atoms: C_17  and  O_18
REMARK                            x       y       z     vdW  Elec       q    Type
REMARK                         _______ _______ _______ _____ _____    ______ ____
ROOT
ATOM      1  C   LIG A   1     -10.635   7.066 127.737  0.00  0.00    +0.129 A 
ATOM      2  C   LIG A   1     -11.641   8.032 127.604  0.00  0.00    +0.052 A 
ATOM      3  C   LIG A   1     -12.354   8.477 128.723  0.00  0.00    -0.018 A 
ATOM      4  C   LIG A   1     -12.042   7.940 129.975  0.00  0.00    +0.018 A 
ATOM      5  C   LIG A   1     -11.033   6.971 130.108  0.00  0.00    +0.037 A 
ATOM      6  C   LIG A   1     -10.318   6.523 128.992  0.00  0.00    +0.074 A 
ATOM      7  C   LIG A   1      -9.256   5.496 129.173  0.00  0.00    +0.198 C 
ATOM      8  C   LIG A   1      -8.980   4.968 130.526  0.00  0.00    +0.037 A 
ATOM      9  C   LIG A   1      -9.701   5.422 131.627  0.00  0.00    +0.033 A 
ATOM     10  C   LIG A   1     -10.752   6.436 131.456  0.00  0.00    +0.195 C 
ATOM     11  O   LIG A   1     -11.389   6.834 132.425  0.00  0.00    -0.287 OA
ATOM     12  C   LIG A   1      -9.431   4.913 132.906  0.00  0.00    +0.016 A 
ATOM     13  C   LIG A   1      -8.437   3.949 133.082  0.00  0.00    +0.046 A 
ATOM     14  C   LIG A   1      -7.721   3.500 131.977  0.00  0.00    +0.118 A 
ATOM     15  C   LIG A   1      -7.982   4.000 130.704  0.00  0.00    +0.057 A 
ATOM     16  O   LIG A   1      -8.592   5.064 128.239  0.00  0.00    -0.286 OA
ENDROOT
BRANCH   1  17
ATOM     17  O   LIG A   1      -9.976   6.667 126.611  0.00  0.00    -0.506 OA
ATOM     18  H   LIG A   1      -9.326   7.333 126.335  0.00  0.00    +0.292 HD
ENDBRANCH   1  17
BRANCH  14  19
ATOM     19  O   LIG A   1      -6.742   2.561 132.102  0.00  0.00    -0.507 OA
ATOM     20  H   LIG A   1      -5.961   2.843 131.600  0.00  0.00    +0.292 HD
ENDBRANCH  14  19
BRANCH   3  21
ATOM     21  C   LIG A   1     -13.431   9.516 128.571  0.00  0.00    +0.191 C 
BRANCH  21  22
ATOM     22  O   LIG A   1     -13.066  10.698 129.270  0.00  0.00    -0.390 OA
ATOM     23  H   LIG A   1     -13.866  11.243 129.354  0.00  0.00    +0.210 HD
ENDBRANCH  21  22
ENDBRANCH   3  21
TORSDOF 4
ENDMDL
MODEL 2
REMARK VINA RESULT:      -6.9      7.281      9.934
REMARK  Name = NuBBE_376
REMARK  4 active torsions:
REMARK  status: ('A' for Active; 'I' for Inactive)
REMARK    1  A    between atoms: O_1  and  C_2
REMARK    2  A    between atoms: C_4  and  C_5
REMARK    3  A    between atoms: C_5  and  O_6
REMARK    4  A    between atoms: C_17  and  O_18
REMARK                            x       y       z     vdW  Elec       q    Type
REMARK                         _______ _______ _______ _____ _____    ______ ____
ROOT
ATOM      1  C   LIG A   1      -9.257  -2.636 125.441  0.00  0.00    +0.129 A 
ATOM      2  C   LIG A   1      -8.994  -3.391 126.591  0.00  0.00    +0.052 A 
ATOM      3  C   LIG A   1      -8.287  -2.834 127.663  0.00  0.00    -0.018 A 
ATOM      4  C   LIG A   1      -7.850  -1.511 127.564  0.00  0.00    +0.018 A 
ATOM      5  C   LIG A   1      -8.115  -0.753 126.409  0.00  0.00    +0.037 A 
ATOM      6  C   LIG A   1      -8.821  -1.306 125.336  0.00  0.00    +0.074 A 
ATOM      7  C   LIG A   1      -9.083  -0.472 124.131  0.00  0.00    +0.198 C 
ATOM      8  C   LIG A   1      -8.590   0.921 124.091  0.00  0.00    +0.037 A 
ATOM      9  C   LIG A   1      -7.886   1.457 125.166  0.00  0.00    +0.033 A 
ATOM     10  C   LIG A   1      -7.624   0.639 126.360  0.00  0.00    +0.195 C 
ATOM     11  O   LIG A   1      -7.002   1.110 127.306  0.00  0.00    -0.287 OA
ATOM     12  C   LIG A   1      -7.422   2.780 125.118  0.00  0.00    +0.016 A 
ATOM     13  C   LIG A   1      -7.663   3.566 123.990  0.00  0.00    +0.046 A 
ATOM     14  C   LIG A   1      -8.366   3.024 122.920  0.00  0.00    +0.118 A 
ATOM     15  C   LIG A   1      -8.831   1.712 122.960  0.00  0.00    +0.057 A 
ATOM     16  O   LIG A   1      -9.697  -0.894 123.159  0.00  0.00    -0.286 OA
ENDROOT
BRANCH   1  17
ATOM     17  O   LIG A   1      -9.948  -3.232 124.426  0.00  0.00    -0.506 OA
ATOM     18  H   LIG A   1     -10.411  -2.572 123.887  0.00  0.00    +0.292 HD
ENDBRANCH   1  17
BRANCH  14  19
ATOM     19  O   LIG A   1      -8.624   3.754 121.799  0.00  0.00    -0.507 OA
ATOM     20  H   LIG A   1      -7.868   3.691 121.193  0.00  0.00    +0.292 HD
ENDBRANCH  14  19
BRANCH   3  21
ATOM     21  C   LIG A   1      -8.010  -3.653 128.895  0.00  0.00    +0.191 C 
BRANCH  21  22
ATOM     22  O   LIG A   1      -7.974  -2.809 130.037  0.00  0.00    -0.390 OA
ATOM     23  H   LIG A   1      -7.068  -2.465 130.113  0.00  0.00    +0.210 HD
ENDBRANCH  21  22
ENDBRANCH   3  21
TORSDOF 4
ENDMDL
MODEL 3
REMARK VINA RESULT:      -6.9      1.006      6.595
REMARK  Name = NuBBE_376
REMARK  4 active torsions:
REMARK  status: ('A' for Active; 'I' for Inactive)
REMARK    1  A    between atoms: O_1  and  C_2
REMARK    2  A    between atoms: C_4  and  C_5
REMARK    3  A    between atoms: C_5  and  O_6
REMARK    4  A    between atoms: C_17  and  O_18
REMARK                            x       y       z     vdW  Elec       q    Type
REMARK                         _______ _______ _______ _____ _____    ______ ____
ROOT
ATOM      1  C   LIG A   1      -9.368   4.362 132.524  0.00  0.00    +0.129 A 
ATOM      2  C   LIG A   1      -8.462   3.295 132.500  0.00  0.00    +0.052 A 
ATOM      3  C   LIG A   1      -7.820   2.931 131.311  0.00  0.00    -0.018 A 
ATOM      4  C   LIG A   1      -8.101   3.653 130.149  0.00  0.00    +0.018 A 
ATOM      5  C   LIG A   1      -9.011   4.725 130.172  0.00  0.00    +0.037 A 
ATOM      6  C   LIG A   1      -9.654   5.092 131.359  0.00  0.00    +0.074 A 
ATOM      7  C   LIG A   1     -10.610   6.233 131.345  0.00  0.00    +0.198 C 
ATOM      8  C   LIG A   1     -10.863   6.953 130.079  0.00  0.00    +0.037 A 
ATOM      9  C   LIG A   1     -10.217   6.574 128.905  0.00  0.00    +0.033 A 
ATOM     10  C   LIG A   1      -9.271   5.448 128.912  0.00  0.00    +0.195 C 
ATOM     11  O   LIG A   1      -8.704   5.113 127.877  0.00  0.00    -0.287 OA
ATOM     12  C   LIG A   1     -10.465   7.264 127.709  0.00  0.00    +0.016 A 
ATOM     13  C   LIG A   1     -11.362   8.333 127.689  0.00  0.00    +0.046 A 
ATOM     14  C   LIG A   1     -12.004   8.705 128.865  0.00  0.00    +0.118 A 
ATOM     15  C   LIG A   1     -11.763   8.027 130.057  0.00  0.00    +0.057 A 
ATOM     16  O   LIG A   1     -11.204   6.606 132.349  0.00  0.00    -0.286 OA
ENDROOT
BRANCH   1  17
ATOM     17  O   LIG A   1      -9.966   4.671 133.711  0.00  0.00    -0.506 OA
ATOM     18  H   LIG A   1     -10.036   5.631 133.825  0.00  0.00    +0.292 HD
ENDBRANCH   1  17
BRANCH  14  19
ATOM     19  O   LIG A   1     -12.886   9.742 128.893  0.00  0.00    -0.507 OA
ATOM     20  H   LIG A   1     -12.940  10.142 128.010  0.00  0.00    +0.292 HD
ENDBRANCH  14  19
BRANCH   3  21
ATOM     21  C   LIG A   1      -6.847   1.783 131.296  0.00  0.00    +0.191 C 
BRANCH  21  22
ATOM     22  O   LIG A   1      -7.073   0.943 132.418  0.00  0.00    -0.390 OA
ATOM     23  H   LIG A   1      -7.961   0.561 132.319  0.00  0.00    +0.210 HD
ENDBRANCH  21  22
ENDBRANCH   3  21
TORSDOF 4
ENDMDL
MODEL 4
REMARK VINA RESULT:      -6.8      3.297      4.913
REMARK  Name = NuBBE_376
REMARK  4 active torsions:
REMARK  status: ('A' for Active; 'I' for Inactive)
REMARK    1  A    between atoms: O_1  and  C_2
REMARK    2  A    between atoms: C_4  and  C_5
REMARK    3  A    between atoms: C_5  and  O_6
REMARK    4  A    between atoms: C_17  and  O_18
REMARK                            x       y       z     vdW  Elec       q    Type
REMARK                         _______ _______ _______ _____ _____    ______ ____
ROOT
ATOM      1  C   LIG A   1      -9.637   5.396 132.653  0.00  0.00    +0.129 A 
ATOM      2  C   LIG A   1     -10.599   5.897 131.769  0.00  0.00    +0.052 A 
ATOM      3  C   LIG A   1     -10.229   6.737 130.713  0.00  0.00    -0.018 A 
ATOM      4  C   LIG A   1      -8.880   7.065 130.558  0.00  0.00    +0.018 A 
ATOM      5  C   LIG A   1      -7.913   6.562 131.446  0.00  0.00    +0.037 A 
ATOM      6  C   LIG A   1      -8.279   5.722 132.503  0.00  0.00    +0.074 A 
ATOM      7  C   LIG A   1      -7.227   5.209 133.422  0.00  0.00    +0.198 C 
ATOM      8  C   LIG A   1      -5.818   5.598 133.202  0.00  0.00    +0.037 A 
ATOM      9  C   LIG A   1      -5.469   6.437 132.147  0.00  0.00    +0.033 A 
ATOM     10  C   LIG A   1      -6.503   6.948 131.235  0.00  0.00    +0.195 C 
ATOM     11  O   LIG A   1      -6.196   7.689 130.308  0.00  0.00    -0.287 OA
ATOM     12  C   LIG A   1      -4.129   6.801 131.949  0.00  0.00    +0.016 A 
ATOM     13  C   LIG A   1      -3.138   6.324 132.808  0.00  0.00    +0.046 A 
ATOM     14  C   LIG A   1      -3.495   5.487 133.860  0.00  0.00    +0.118 A 
ATOM     15  C   LIG A   1      -4.822   5.120 134.064  0.00  0.00    +0.057 A 
ATOM     16  O   LIG A   1      -7.480   4.468 134.364  0.00  0.00    -0.286 OA
ENDROOT
BRANCH   1  17
ATOM     17  O   LIG A   1     -10.056   4.583 133.667  0.00  0.00    -0.506 OA
ATOM     18  H   LIG A   1     -10.951   4.250 133.496  0.00  0.00    +0.292 HD
ENDBRANCH   1  17
BRANCH  14  19
ATOM     19  O   LIG A   1      -2.561   4.997 134.723  0.00  0.00    -0.507 OA
ATOM     20  H   LIG A   1      -2.957   4.290 135.257  0.00  0.00    +0.292 HD
ENDBRANCH  14  19
BRANCH   3  21
ATOM     21  C   LIG A   1     -11.271   7.269 129.766  0.00  0.00    +0.191 C 
BRANCH  21  22
ATOM     22  O   LIG A   1     -11.700   6.237 128.891  0.00  0.00    -0.390 OA
ATOM     23  H   LIG A   1     -10.958   5.618 128.787  0.00  0.00    +0.210 HD
ENDBRANCH  21  22
ENDBRANCH   3  21
TORSDOF 4
ENDMDL
MODEL 5
REMARK VINA RESULT:      -6.8      7.925      9.647
REMARK  Name = NuBBE_376
REMARK  4 active torsions:
REMARK  status: ('A' for Active; 'I' for Inactive)
REMARK    1  A    between atoms: O_1  and  C_2
REMARK    2  A    between atoms: C_4  and  C_5
REMARK    3  A    between atoms: C_5  and  O_6
REMARK    4  A    between atoms: C_17  and  O_18
REMARK                            x       y       z     vdW  Elec       q    Type
REMARK                         _______ _______ _______ _____ _____    ______ ____
ROOT
ATOM      1  C   LIG A   1      -6.473   2.836 124.513  0.00  0.00    +0.129 A 
ATOM      2  C   LIG A   1      -5.436   3.504 125.175  0.00  0.00    +0.052 A 
ATOM      3  C   LIG A   1      -4.594   2.817 126.057  0.00  0.00    -0.018 A 
ATOM      4  C   LIG A   1      -4.808   1.452 126.263  0.00  0.00    +0.018 A 
ATOM      5  C   LIG A   1      -5.850   0.781 125.599  0.00  0.00    +0.037 A 
ATOM      6  C   LIG A   1      -6.693   1.465 124.716  0.00  0.00    +0.074 A 
ATOM      7  C   LIG A   1      -7.785   0.721 124.030  0.00  0.00    +0.198 C 
ATOM      8  C   LIG A   1      -7.958  -0.723 124.297  0.00  0.00    +0.037 A 
ATOM      9  C   LIG A   1      -7.112  -1.390 125.179  0.00  0.00    +0.033 A 
ATOM     10  C   LIG A   1      -6.031  -0.661 125.860  0.00  0.00    +0.195 C 
ATOM     11  O   LIG A   1      -5.288  -1.247 126.640  0.00  0.00    -0.287 OA
ATOM     12  C   LIG A   1      -7.286  -2.760 125.425  0.00  0.00    +0.016 A 
ATOM     13  C   LIG A   1      -8.308  -3.462 124.786  0.00  0.00    +0.046 A 
ATOM     14  C   LIG A   1      -9.149  -2.790 123.906  0.00  0.00    +0.118 A 
ATOM     15  C   LIG A   1      -8.984  -1.431 123.655  0.00  0.00    +0.057 A 
ATOM     16  O   LIG A   1      -8.556   1.258 123.245  0.00  0.00    -0.286 OA
ENDROOT
BRANCH   1  17
ATOM     17  O   LIG A   1      -7.264   3.558 123.667  0.00  0.00    -0.506 OA
ATOM     18  H   LIG A   1      -7.926   4.068 124.161  0.00  0.00    +0.292 HD
ENDBRANCH   1  17
BRANCH  14  19
ATOM     19  O   LIG A   1     -10.160  -3.436 123.260  0.00  0.00    -0.507 OA
ATOM     20  H   LIG A   1     -10.558  -2.838 122.607  0.00  0.00    +0.292 HD
ENDBRANCH  14  19
BRANCH   3  21
ATOM     21  C   LIG A   1      -3.481   3.543 126.763  0.00  0.00    +0.191 C 
BRANCH  21  22
ATOM     22  O   LIG A   1      -2.416   2.644 127.039  0.00  0.00    -0.390 OA
ATOM     23  H   LIG A   1      -1.759   2.748 126.330  0.00  0.00    +0.210 HD
ENDBRANCH  21  22
ENDBRANCH   3  21
TORSDOF 4
ENDMDL
MODEL 6
REMARK VINA RESULT:      -6.7      7.230      9.093
REMARK  Name = NuBBE_376
REMARK  4 active torsions:
REMARK  status: ('A' for Active; 'I' for Inactive)
REMARK    1  A    between atoms: O_1  and  C_2
REMARK    2  A    between atoms: C_4  and  C_5
REMARK    3  A    between atoms: C_5  and  O_6
REMARK    4  A    between atoms: C_17  and  O_18
REMARK                            x       y       z     vdW  Elec       q    Type
REMARK                         _______ _______ _______ _____ _____    ______ ____
ROOT
ATOM      1  C   LIG A   1      -5.182   4.425 121.860  0.00  0.00    +0.129 A 
ATOM      2  C   LIG A   1      -5.346   4.788 120.518  0.00  0.00    +0.052 A 
ATOM      3  C   LIG A   1      -6.524   4.470 119.832  0.00  0.00    -0.018 A 
ATOM      4  C   LIG A   1      -7.533   3.786 120.514  0.00  0.00    +0.018 A 
ATOM      5  C   LIG A   1      -7.369   3.421 121.861  0.00  0.00    +0.037 A 
ATOM      6  C   LIG A   1      -6.193   3.737 122.550  0.00  0.00    +0.074 A 
ATOM      7  C   LIG A   1      -6.055   3.335 123.977  0.00  0.00    +0.198 C 
ATOM      8  C   LIG A   1      -7.161   2.610 124.637  0.00  0.00    +0.037 A 
ATOM      9  C   LIG A   1      -8.325   2.301 123.938  0.00  0.00    +0.033 A 
ATOM     10  C   LIG A   1      -8.468   2.694 122.528  0.00  0.00    +0.195 C 
ATOM     11  O   LIG A   1      -9.492   2.420 121.911  0.00  0.00    -0.287 OA
ATOM     12  C   LIG A   1      -9.368   1.611 124.573  0.00  0.00    +0.016 A 
ATOM     13  C   LIG A   1      -9.244   1.230 125.910  0.00  0.00    +0.046 A 
ATOM     14  C   LIG A   1      -8.079   1.542 126.602  0.00  0.00    +0.118 A 
ATOM     15  C   LIG A   1      -7.039   2.227 125.979  0.00  0.00    +0.057 A 
ATOM     16  O   LIG A   1      -5.054   3.583 124.637  0.00  0.00    -0.286 OA
ENDROOT
BRANCH   1  17
ATOM     17  O   LIG A   1      -4.011   4.758 122.477  0.00  0.00    -0.506 OA
ATOM     18  H   LIG A   1      -3.632   5.563 122.090  0.00  0.00    +0.292 HD
ENDBRANCH   1  17
BRANCH  14  19
ATOM     19  O   LIG A   1      -7.915   1.191 127.908  0.00  0.00    -0.507 OA
ATOM     20  H   LIG A   1      -7.362   0.395 127.959  0.00  0.00    +0.292 HD
ENDBRANCH  14  19
BRANCH   3  21
ATOM     21  C   LIG A   1      -6.692   4.866 118.390  0.00  0.00    +0.191 C 
BRANCH  21  22
ATOM     22  O   LIG A   1      -5.762   5.887 118.058  0.00  0.00    -0.390 OA
ATOM     23  H   LIG A   1      -5.035   5.467 117.567  0.00  0.00    +0.210 HD
ENDBRANCH  21  22
ENDBRANCH   3  21
TORSDOF 4
ENDMDL
MODEL 7
REMARK VINA RESULT:      -6.7      3.554      7.420
REMARK  Name = NuBBE_376
REMARK  4 active torsions:
REMARK  status: ('A' for Active; 'I' for Inactive)
REMARK    1  A    between atoms: O_1  and  C_2
REMARK    2  A    between atoms: C_4  and  C_5
REMARK    3  A    between atoms: C_5  and  O_6
REMARK    4  A    between atoms: C_17  and  O_18
REMARK                            x       y       z     vdW  Elec       q    Type
REMARK                         _______ _______ _______ _____ _____    ______ ____
ROOT
ATOM      1  C   LIG A   1      -5.430   4.975 134.439  0.00  0.00    +0.129 A 
ATOM      2  C   LIG A   1      -4.045   5.139 134.317  0.00  0.00    +0.052 A 
ATOM      3  C   LIG A   1      -3.503   5.835 133.230  0.00  0.00    -0.018 A 
ATOM      4  C   LIG A   1      -4.371   6.364 132.271  0.00  0.00    +0.018 A 
ATOM      5  C   LIG A   1      -5.762   6.199 132.394  0.00  0.00    +0.037 A 
ATOM      6  C   LIG A   1      -6.307   5.504 133.479  0.00  0.00    +0.074 A 
ATOM      7  C   LIG A   1      -7.785   5.351 133.576  0.00  0.00    +0.198 C 
ATOM      8  C   LIG A   1      -8.645   5.933 132.523  0.00  0.00    +0.037 A 
ATOM      9  C   LIG A   1      -8.088   6.620 131.449  0.00  0.00    +0.033 A 
ATOM     10  C   LIG A   1      -6.628   6.775 131.347  0.00  0.00    +0.195 C 
ATOM     11  O   LIG A   1      -6.137   7.378 130.399  0.00  0.00    -0.287 OA
ATOM     12  C   LIG A   1      -8.913   7.168 130.456  0.00  0.00    +0.016 A 
ATOM     13  C   LIG A   1     -10.299   7.026 130.540  0.00  0.00    +0.046 A 
ATOM     14  C   LIG A   1     -10.849   6.338 131.616  0.00  0.00    +0.118 A 
ATOM     15  C   LIG A   1     -10.037   5.793 132.607  0.00  0.00    +0.057 A 
ATOM     16  O   LIG A   1      -8.326   4.757 134.500  0.00  0.00    -0.286 OA
ENDROOT
BRANCH   1  17
ATOM     17  O   LIG A   1      -5.902   4.285 135.518  0.00  0.00    -0.506 OA
ATOM     18  H   LIG A   1      -5.176   4.012 136.100  0.00  0.00    +0.292 HD
ENDBRANCH   1  17
BRANCH  14  19
ATOM     19  O   LIG A   1     -12.196   6.176 131.739  0.00  0.00    -0.507 OA
ATOM     20  H   LIG A   1     -12.378   5.507 132.419  0.00  0.00    +0.292 HD
ENDBRANCH  14  19
BRANCH   3  21
ATOM     21  C   LIG A   1      -2.013   6.008 133.108  0.00  0.00    +0.191 C 
BRANCH  21  22
ATOM     22  O   LIG A   1      -1.421   6.027 134.399  0.00  0.00    -0.390 OA
ATOM     23  H   LIG A   1      -0.767   6.746 134.406  0.00  0.00    +0.210 HD
ENDBRANCH  21  22
ENDBRANCH   3  21
TORSDOF 4
ENDMDL
MODEL 8
REMARK VINA RESULT:      -6.7      9.602     10.990
REMARK  Name = NuBBE_376
REMARK  4 active torsions:
REMARK  status: ('A' for Active; 'I' for Inactive)
REMARK    1  A    between atoms: O_1  and  C_2
REMARK    2  A    between atoms: C_4  and  C_5
REMARK    3  A    between atoms: C_5  and  O_6
REMARK    4  A    between atoms: C_17  and  O_18
REMARK                            x       y       z     vdW  Elec       q    Type
REMARK                         _______ _______ _______ _____ _____    ______ ____
ROOT
ATOM      1  C   LIG A   1      -5.567  -1.742 129.132  0.00  0.00    +0.129 A 
ATOM      2  C   LIG A   1      -5.768  -2.086 130.474  0.00  0.00    +0.052 A 
ATOM      3  C   LIG A   1      -6.875  -2.853 130.856  0.00  0.00    -0.018 A 
ATOM      4  C   LIG A   1      -7.774  -3.269 129.872  0.00  0.00    +0.018 A 
ATOM      5  C   LIG A   1      -7.573  -2.924 128.524  0.00  0.00    +0.037 A 
ATOM      6  C   LIG A   1      -6.468  -2.157 128.138  0.00  0.00    +0.074 A 
ATOM      7  C   LIG A   1      -6.288  -1.812 126.701  0.00  0.00    +0.198 C 
ATOM      8  C   LIG A   1      -7.280  -2.283 125.712  0.00  0.00    +0.037 A 
ATOM      9  C   LIG A   1      -8.376  -3.043 126.111  0.00  0.00    +0.033 A 
ATOM     10  C   LIG A   1      -8.560  -3.388 127.529  0.00  0.00    +0.195 C 
ATOM     11  O   LIG A   1      -9.527  -4.055 127.880  0.00  0.00    -0.287 OA
ATOM     12  C   LIG A   1      -9.312  -3.484 125.163  0.00  0.00    +0.016 A 
ATOM     13  C   LIG A   1      -9.149  -3.162 123.815  0.00  0.00    +0.046 A 
ATOM     14  C   LIG A   1      -8.053  -2.402 123.425  0.00  0.00    +0.118 A 
ATOM     15  C   LIG A   1      -7.118  -1.961 124.357  0.00  0.00    +0.057 A 
ATOM     16  O   LIG A   1      -5.342  -1.147 126.298  0.00  0.00    -0.286 OA
ENDROOT
BRANCH   1  17
ATOM     17  O   LIG A   1      -4.473  -0.989 128.818  0.00  0.00    -0.506 OA
ATOM     18  H   LIG A   1      -4.076  -1.285 127.984  0.00  0.00    +0.292 HD
ENDBRANCH   1  17
BRANCH  14  19
ATOM     19  O   LIG A   1      -7.854  -2.065 122.119  0.00  0.00    -0.507 OA
ATOM     20  H   LIG A   1      -6.914  -1.867 121.978  0.00  0.00    +0.292 HD
ENDBRANCH  14  19
BRANCH   3  21
ATOM     21  C   LIG A   1      -7.081  -3.219 132.301  0.00  0.00    +0.191 C 
BRANCH  21  22
ATOM     22  O   LIG A   1      -7.789  -2.182 132.966  0.00  0.00    -0.390 OA
ATOM     23  H   LIG A   1      -8.295  -2.594 133.686  0.00  0.00    +0.210 HD
ENDBRANCH  21  22
ENDBRANCH   3  21
TORSDOF 4
ENDMDL
MODEL 9
REMARK VINA RESULT:      -6.6      6.768      9.581
REMARK  Name = NuBBE_376
REMARK  4 active torsions:
REMARK  status: ('A' for Active; 'I' for Inactive)
REMARK    1  A    between atoms: O_1  and  C_2
REMARK    2  A    between atoms: C_4  and  C_5
REMARK    3  A    between atoms: C_5  and  O_6
REMARK    4  A    between atoms: C_17  and  O_18
REMARK                            x       y       z     vdW  Elec       q    Type
REMARK                         _______ _______ _______ _____ _____    ______ ____
ROOT
ATOM      1  C   LIG A   1      -9.317   1.612 124.627  0.00  0.00    +0.129 A 
ATOM      2  C   LIG A   1      -9.170   1.234 125.967  0.00  0.00    +0.052 A 
ATOM      3  C   LIG A   1      -7.997   1.535 126.668  0.00  0.00    -0.018 A 
ATOM      4  C   LIG A   1      -6.976   2.222 126.006  0.00  0.00    +0.018 A 
ATOM      5  C   LIG A   1      -7.124   2.602 124.660  0.00  0.00    +0.037 A 
ATOM      6  C   LIG A   1      -8.295   2.303 123.956  0.00  0.00    +0.074 A 
ATOM      7  C   LIG A   1      -8.415   2.722 122.533  0.00  0.00    +0.198 C 
ATOM      8  C   LIG A   1      -7.295   3.443 121.891  0.00  0.00    +0.037 A 
ATOM      9  C   LIG A   1      -6.135   3.733 122.605  0.00  0.00    +0.033 A 
ATOM     10  C   LIG A   1      -6.010   3.321 124.011  0.00  0.00    +0.195 C 
ATOM     11  O   LIG A   1      -4.987   3.574 124.639  0.00  0.00    -0.287 OA
ATOM     12  C   LIG A   1      -5.078   4.417 121.986  0.00  0.00    +0.016 A 
ATOM     13  C   LIG A   1      -5.184   4.811 120.652  0.00  0.00    +0.046 A 
ATOM     14  C   LIG A   1      -6.346   4.519 119.946  0.00  0.00    +0.118 A 
ATOM     15  C   LIG A   1      -7.400   3.841 120.552  0.00  0.00    +0.057 A 
ATOM     16  O   LIG A   1      -9.413   2.493 121.861  0.00  0.00    -0.286 OA
ENDROOT
BRANCH   1  17
ATOM     17  O   LIG A   1     -10.481   1.289 123.992  0.00  0.00    -0.506 OA
ATOM     18  H   LIG A   1     -11.062   0.775 124.575  0.00  0.00    +0.292 HD
ENDBRANCH   1  17
BRANCH  14  19
ATOM     19  O   LIG A   1      -6.493   4.885 118.642  0.00  0.00    -0.507 OA
ATOM     20  H   LIG A   1      -5.648   4.770 118.178  0.00  0.00    +0.292 HD
ENDBRANCH  14  19
BRANCH   3  21
ATOM     21  C   LIG A   1      -7.848   1.126 128.109  0.00  0.00    +0.191 C 
BRANCH  21  22
ATOM     22  O   LIG A   1      -6.588   1.554 128.605  0.00  0.00    -0.390 OA
ATOM     23  H   LIG A   1      -6.659   2.505 128.792  0.00  0.00    +0.210 HD
ENDBRANCH  21  22
ENDBRANCH   3  21
TORSDOF 4
ENDMDL
