MODEL 1
REMARK VINA RESULT:      -6.6      0.000      0.000
REMARK  Name = NuBBE_2350
REMARK  13 active torsions:
REMARK  status: ('A' for Active; 'I' for Inactive)
REMARK    1  A    between atoms: C_1  and  O_2
REMARK    2  A    between atoms: O_2  and  C_3
REMARK    3  A    between atoms: C_4  and  O_5
REMARK    4  A    between atoms: O_5  and  C_6
REMARK    5  A    between atoms: C_7  and  O_8
REMARK    6  A    between atoms: O_8  and  C_9
REMARK    7  A    between atoms: C_11  and  C_12
REMARK    8  A    between atoms: C_16  and  C_17
REMARK    9  A    between atoms: C_17  and  C_18
REMARK   10  A    between atoms: C_20  and  O_21
REMARK   11  A    between atoms: C_22  and  O_23
REMARK   12  A    between atoms: O_23  and  C_24
REMARK   13  A    between atoms: C_27  and  C_29
REMARK                            x       y       z     vdW  Elec       q    Type
REMARK                         _______ _______ _______ _____ _____    ______ ____
ROOT
ATOM      1  C   LIG A   1      -7.856   5.717 133.008  0.00  0.00    +0.211 C 
ATOM      2  O   LIG A   1      -6.655   6.445 132.583  0.00  0.00    -0.483 OA
ATOM      3  C   LIG A   1      -5.857   5.447 132.056  0.00  0.00    +0.132 A 
ATOM      4  C   LIG A   1      -4.801   5.670 131.180  0.00  0.00    +0.043 A 
ATOM      5  C   LIG A   1      -4.164   4.505 130.709  0.00  0.00    +0.166 A 
ATOM      6  C   LIG A   1      -4.584   3.206 131.067  0.00  0.00    +0.162 A 
ATOM      7  C   LIG A   1      -5.627   3.044 131.990  0.00  0.00    +0.057 A 
ATOM      8  C   LIG A   1      -6.250   4.175 132.488  0.00  0.00    +0.005 A 
ATOM      9  C   LIG A   1      -7.335   4.343 133.497  0.00  0.00    +0.065 C 
ATOM     10  C   LIG A   1      -8.330   3.218 133.753  0.00  0.00    +0.016 C 
ENDROOT
BRANCH   1  15
ATOM     11  C   LIG A   1     -11.208   6.244 131.213  0.00  0.00    +0.166 A 
ATOM     12  C   LIG A   1     -10.894   5.986 129.862  0.00  0.00    +0.203 A 
ATOM     13  C   LIG A   1      -9.563   5.667 129.534  0.00  0.00    +0.166 A 
ATOM     14  C   LIG A   1      -8.578   5.645 130.530  0.00  0.00    +0.057 A 
ATOM     15  C   LIG A   1      -8.875   5.830 131.878  0.00  0.00    +0.000 A 
ATOM     16  C   LIG A   1     -10.202   6.148 132.196  0.00  0.00    +0.057 A 
BRANCH  11  18
ATOM     17  C   LIG A   1     -12.970   7.812 131.553  0.00  0.00    +0.277 C 
ATOM     18  O   LIG A   1     -12.514   6.459 131.576  0.00  0.00    -0.491 OA
ENDBRANCH  11  18
BRANCH  12  19
ATOM     19  O   LIG A   1     -11.743   6.032 128.798  0.00  0.00    -0.488 OA
ATOM     20  C   LIG A   1     -12.027   7.202 128.065  0.00  0.00    +0.277 C 
ENDBRANCH  12  19
BRANCH  13  21
ATOM     21  O   LIG A   1      -9.028   5.340 128.309  0.00  0.00    -0.491 OA
ATOM     22  C   LIG A   1      -8.024   4.342 128.236  0.00  0.00    +0.277 C 
ENDBRANCH  13  21
ENDBRANCH   1  15
BRANCH   5  23
ATOM     23  O   LIG A   1      -3.082   4.676 129.887  0.00  0.00    -0.503 OA
ATOM     24  H   LIG A   1      -3.331   5.388 129.275  0.00  0.00    +0.292 HD
ENDBRANCH   5  23
BRANCH   6  25
ATOM     25  O   LIG A   1      -4.064   2.019 130.605  0.00  0.00    -0.491 OA
ATOM     26  C   LIG A   1      -4.223   0.869 131.429  0.00  0.00    +0.277 C 
ENDBRANCH   6  25
BRANCH   4  27
ATOM     27  C   LIG A   1      -4.342   7.093 130.859  0.00  0.00    +0.069 C 
BRANCH  27  28
ATOM     28  C   LIG A   1      -3.280   7.684 131.789  0.00  0.00    -0.030 C 
ATOM     29  C   LIG A   1      -2.936   7.217 133.007  0.00  0.00    +0.004 C 
ENDBRANCH  27  28
ENDBRANCH   4  27
TORSDOF 8
ENDMDL
MODEL 2
REMARK VINA RESULT:      -6.5      5.971      9.117
REMARK  Name = NuBBE_2350
REMARK  13 active torsions:
REMARK  status: ('A' for Active; 'I' for Inactive)
REMARK    1  A    between atoms: C_1  and  O_2
REMARK    2  A    between atoms: O_2  and  C_3
REMARK    3  A    between atoms: C_4  and  O_5
REMARK    4  A    between atoms: O_5  and  C_6
REMARK    5  A    between atoms: C_7  and  O_8
REMARK    6  A    between atoms: O_8  and  C_9
REMARK    7  A    between atoms: C_11  and  C_12
REMARK    8  A    between atoms: C_16  and  C_17
REMARK    9  A    between atoms: C_17  and  C_18
REMARK   10  A    between atoms: C_20  and  O_21
REMARK   11  A    between atoms: C_22  and  O_23
REMARK   12  A    between atoms: O_23  and  C_24
REMARK   13  A    between atoms: C_27  and  C_29
REMARK                            x       y       z     vdW  Elec       q    Type
REMARK                         _______ _______ _______ _____ _____    ______ ____
ROOT
ATOM      1  C   LIG A   1      -9.345   1.276 124.819  0.00  0.00    +0.211 C 
ATOM      2  O   LIG A   1      -9.778  -0.091 125.129  0.00  0.00    -0.483 OA
ATOM      3  C   LIG A   1      -8.801  -0.869 124.538  0.00  0.00    +0.132 A 
ATOM      4  C   LIG A   1      -8.544  -2.193 124.875  0.00  0.00    +0.043 A 
ATOM      5  C   LIG A   1      -7.455  -2.778 124.198  0.00  0.00    +0.166 A 
ATOM      6  C   LIG A   1      -6.659  -2.067 123.274  0.00  0.00    +0.162 A 
ATOM      7  C   LIG A   1      -6.994  -0.748 122.940  0.00  0.00    +0.057 A 
ATOM      8  C   LIG A   1      -8.077  -0.161 123.571  0.00  0.00    +0.005 A 
ATOM      9  C   LIG A   1      -8.708   1.180 123.410  0.00  0.00    +0.065 C 
ATOM     10  C   LIG A   1      -7.897   2.355 122.880  0.00  0.00    +0.016 C 
ENDROOT
BRANCH   1  15
ATOM     11  C   LIG A   1      -7.909   1.454 128.374  0.00  0.00    +0.166 A 
ATOM     12  C   LIG A   1      -7.184   2.664 128.369  0.00  0.00    +0.203 A 
ATOM     13  C   LIG A   1      -7.140   3.412 127.177  0.00  0.00    +0.166 A 
ATOM     14  C   LIG A   1      -7.777   2.936 126.023  0.00  0.00    +0.057 A 
ATOM     15  C   LIG A   1      -8.554   1.781 126.022  0.00  0.00    +0.000 A 
ATOM     16  C   LIG A   1      -8.591   1.042 127.211  0.00  0.00    +0.057 A 
BRANCH  11  18
ATOM     17  C   LIG A   1      -7.414  -0.520 129.614  0.00  0.00    +0.277 C 
ATOM     18  O   LIG A   1      -8.052   0.755 129.547  0.00  0.00    -0.491 OA
ENDBRANCH  11  18
BRANCH  12  19
ATOM     19  O   LIG A   1      -6.478   3.204 129.401  0.00  0.00    -0.488 OA
ATOM     20  C   LIG A   1      -7.038   4.040 130.388  0.00  0.00    +0.277 C 
ENDBRANCH  12  19
BRANCH  13  21
ATOM     21  O   LIG A   1      -6.540   4.628 126.939  0.00  0.00    -0.491 OA
ATOM     22  C   LIG A   1      -5.275   4.662 126.298  0.00  0.00    +0.277 C 
ENDBRANCH  13  21
ENDBRANCH   1  15
BRANCH   5  23
ATOM     23  O   LIG A   1      -7.198  -4.098 124.456  0.00  0.00    -0.503 OA
ATOM     24  H   LIG A   1      -7.496  -4.247 125.368  0.00  0.00    +0.292 HD
ENDBRANCH   5  23
BRANCH   6  25
ATOM     25  O   LIG A   1      -5.544  -2.538 122.620  0.00  0.00    -0.491 OA
ATOM     26  C   LIG A   1      -4.497  -3.081 123.418  0.00  0.00    +0.277 C 
ENDBRANCH   6  25
BRANCH   4  27
ATOM     27  C   LIG A   1      -9.462  -2.944 125.841  0.00  0.00    +0.069 C 
BRANCH  27  28
ATOM     28  C   LIG A   1      -8.955  -3.089 127.277  0.00  0.00    -0.030 C 
ATOM     29  C   LIG A   1      -9.015  -4.203 128.036  0.00  0.00    +0.004 C 
ENDBRANCH  27  28
ENDBRANCH   4  27
TORSDOF 8
ENDMDL
MODEL 3
REMARK VINA RESULT:      -6.5      5.570      8.737
REMARK  Name = NuBBE_2350
REMARK  13 active torsions:
REMARK  status: ('A' for Active; 'I' for Inactive)
REMARK    1  A    between atoms: C_1  and  O_2
REMARK    2  A    between atoms: O_2  and  C_3
REMARK    3  A    between atoms: C_4  and  O_5
REMARK    4  A    between atoms: O_5  and  C_6
REMARK    5  A    between atoms: C_7  and  O_8
REMARK    6  A    between atoms: O_8  and  C_9
REMARK    7  A    between atoms: C_11  and  C_12
REMARK    8  A    between atoms: C_16  and  C_17
REMARK    9  A    between atoms: C_17  and  C_18
REMARK   10  A    between atoms: C_20  and  O_21
REMARK   11  A    between atoms: C_22  and  O_23
REMARK   12  A    between atoms: O_23  and  C_24
REMARK   13  A    between atoms: C_27  and  C_29
REMARK                            x       y       z     vdW  Elec       q    Type
REMARK                         _______ _______ _______ _____ _____    ______ ____
ROOT
ATOM      1  C   LIG A   1      -6.078   0.775 126.060  0.00  0.00    +0.211 C 
ATOM      2  O   LIG A   1      -6.721   1.633 125.058  0.00  0.00    -0.483 OA
ATOM      3  C   LIG A   1      -7.571   0.763 124.402  0.00  0.00    +0.132 A 
ATOM      4  C   LIG A   1      -8.668   1.160 123.646  0.00  0.00    +0.043 A 
ATOM      5  C   LIG A   1      -9.442   0.106 123.122  0.00  0.00    +0.166 A 
ATOM      6  C   LIG A   1      -9.152  -1.253 123.373  0.00  0.00    +0.162 A 
ATOM      7  C   LIG A   1      -8.006  -1.594 124.105  0.00  0.00    +0.057 A 
ATOM      8  C   LIG A   1      -7.215  -0.576 124.606  0.00  0.00    +0.005 A 
ATOM      9  C   LIG A   1      -5.933  -0.603 125.368  0.00  0.00    +0.065 C 
ATOM     10  C   LIG A   1      -5.560  -1.820 126.205  0.00  0.00    +0.016 C 
ENDROOT
BRANCH   1  15
ATOM     11  C   LIG A   1      -8.432   2.290 128.686  0.00  0.00    +0.166 A 
ATOM     12  C   LIG A   1      -8.311   1.403 129.777  0.00  0.00    +0.203 A 
ATOM     13  C   LIG A   1      -7.473   0.281 129.636  0.00  0.00    +0.166 A 
ATOM     14  C   LIG A   1      -6.810   0.044 128.426  0.00  0.00    +0.057 A 
ATOM     15  C   LIG A   1      -6.860   0.938 127.360  0.00  0.00    +0.000 A 
ATOM     16  C   LIG A   1      -7.697   2.052 127.507  0.00  0.00    +0.057 A 
BRANCH  11  18
ATOM     17  C   LIG A   1      -8.433   4.626 129.152  0.00  0.00    +0.277 C 
ATOM     18  O   LIG A   1      -9.162   3.443 128.829  0.00  0.00    -0.491 OA
ENDBRANCH  11  18
BRANCH  12  19
ATOM     19  O   LIG A   1      -8.944   1.489 130.980  0.00  0.00    -0.488 OA
ATOM     20  C   LIG A   1      -8.437   2.196 132.089  0.00  0.00    +0.277 C 
ENDBRANCH  12  19
BRANCH  13  21
ATOM     21  O   LIG A   1      -7.166  -0.691 130.561  0.00  0.00    -0.491 OA
ATOM     22  C   LIG A   1      -7.714  -1.991 130.408  0.00  0.00    +0.277 C 
ENDBRANCH  13  21
ENDBRANCH   1  15
BRANCH   5  23
ATOM     23  O   LIG A   1     -10.501   0.448 122.325  0.00  0.00    -0.503 OA
ATOM     24  H   LIG A   1     -10.312   0.054 121.458  0.00  0.00    +0.292 HD
ENDBRANCH   5  23
BRANCH   6  25
ATOM     25  O   LIG A   1      -9.889  -2.338 122.958  0.00  0.00    -0.491 OA
ATOM     26  C   LIG A   1      -9.622  -3.589 123.585  0.00  0.00    +0.277 C 
ENDBRANCH   6  25
BRANCH   4  27
ATOM     27  C   LIG A   1      -8.917   2.640 123.353  0.00  0.00    +0.069 C 
BRANCH  27  28
ATOM     28  C   LIG A   1      -8.198   3.215 122.131  0.00  0.00    -0.030 C 
ATOM     29  C   LIG A   1      -8.765   3.547 120.954  0.00  0.00    +0.004 C 
ENDBRANCH  27  28
ENDBRANCH   4  27
TORSDOF 8
ENDMDL
MODEL 4
REMARK VINA RESULT:      -6.5      6.589      9.731
REMARK  Name = NuBBE_2350
REMARK  13 active torsions:
REMARK  status: ('A' for Active; 'I' for Inactive)
REMARK    1  A    between atoms: C_1  and  O_2
REMARK    2  A    between atoms: O_2  and  C_3
REMARK    3  A    between atoms: C_4  and  O_5
REMARK    4  A    between atoms: O_5  and  C_6
REMARK    5  A    between atoms: C_7  and  O_8
REMARK    6  A    between atoms: O_8  and  C_9
REMARK    7  A    between atoms: C_11  and  C_12
REMARK    8  A    between atoms: C_16  and  C_17
REMARK    9  A    between atoms: C_17  and  C_18
REMARK   10  A    between atoms: C_20  and  O_21
REMARK   11  A    between atoms: C_22  and  O_23
REMARK   12  A    between atoms: O_23  and  C_24
REMARK   13  A    between atoms: C_27  and  C_29
REMARK                            x       y       z     vdW  Elec       q    Type
REMARK                         _______ _______ _______ _____ _____    ______ ____
ROOT
ATOM      1  C   LIG A   1      -5.240  -1.553 125.901  0.00  0.00    +0.211 C 
ATOM      2  O   LIG A   1      -5.186  -0.088 125.975  0.00  0.00    -0.483 OA
ATOM      3  C   LIG A   1      -6.409   0.295 125.458  0.00  0.00    +0.132 A 
ATOM      4  C   LIG A   1      -6.995   1.537 125.673  0.00  0.00    +0.043 A 
ATOM      5  C   LIG A   1      -8.278   1.693 125.111  0.00  0.00    +0.166 A 
ATOM      6  C   LIG A   1      -8.939   0.658 124.415  0.00  0.00    +0.162 A 
ATOM      7  C   LIG A   1      -8.279  -0.558 124.191  0.00  0.00    +0.057 A 
ATOM      8  C   LIG A   1      -7.007  -0.725 124.708  0.00  0.00    +0.005 A 
ATOM      9  C   LIG A   1      -6.039  -1.855 124.609  0.00  0.00    +0.065 C 
ATOM     10  C   LIG A   1      -6.534  -3.273 124.356  0.00  0.00    +0.016 C 
ENDROOT
BRANCH   1  15
ATOM     11  C   LIG A   1      -5.103  -2.667 129.572  0.00  0.00    +0.166 A 
ATOM     12  C   LIG A   1      -6.431  -3.066 129.837  0.00  0.00    +0.203 A 
ATOM     13  C   LIG A   1      -7.385  -2.938 128.810  0.00  0.00    +0.166 A 
ATOM     14  C   LIG A   1      -7.020  -2.393 127.573  0.00  0.00    +0.057 A 
ATOM     15  C   LIG A   1      -5.704  -2.055 127.265  0.00  0.00    +0.000 A 
ATOM     16  C   LIG A   1      -4.761  -2.185 128.292  0.00  0.00    +0.057 A 
BRANCH  11  18
ATOM     17  C   LIG A   1      -3.414  -1.721 130.960  0.00  0.00    +0.277 C 
ATOM     18  O   LIG A   1      -4.133  -2.873 130.519  0.00  0.00    -0.491 OA
ENDBRANCH  11  18
BRANCH  12  19
ATOM     19  O   LIG A   1      -6.924  -3.554 131.009  0.00  0.00    -0.488 OA
ATOM     20  C   LIG A   1      -7.251  -2.752 132.122  0.00  0.00    +0.277 C 
ENDBRANCH  12  19
BRANCH  13  21
ATOM     21  O   LIG A   1      -8.715  -3.293 128.816  0.00  0.00    -0.491 OA
ATOM     22  C   LIG A   1      -9.233  -4.053 127.737  0.00  0.00    +0.277 C 
ENDBRANCH  13  21
ENDBRANCH   1  15
BRANCH   5  23
ATOM     23  O   LIG A   1      -8.873   2.919 125.249  0.00  0.00    -0.503 OA
ATOM     24  H   LIG A   1      -8.760   3.360 124.391  0.00  0.00    +0.292 HD
ENDBRANCH   5  23
BRANCH   6  25
ATOM     25  O   LIG A   1     -10.212   0.702 123.894  0.00  0.00    -0.491 OA
ATOM     26  C   LIG A   1     -10.347   0.570 122.483  0.00  0.00    +0.277 C 
ENDBRANCH   6  25
BRANCH   4  27
ATOM     27  C   LIG A   1      -6.226   2.650 126.385  0.00  0.00    +0.069 C 
BRANCH  27  28
ATOM     28  C   LIG A   1      -5.205   3.412 125.539  0.00  0.00    -0.030 C 
ATOM     29  C   LIG A   1      -5.457   4.081 124.394  0.00  0.00    +0.004 C 
ENDBRANCH  27  28
ENDBRANCH   4  27
TORSDOF 8
ENDMDL
MODEL 5
REMARK VINA RESULT:      -6.4      2.645      6.410
REMARK  Name = NuBBE_2350
REMARK  13 active torsions:
REMARK  status: ('A' for Active; 'I' for Inactive)
REMARK    1  A    between atoms: C_1  and  O_2
REMARK    2  A    between atoms: O_2  and  C_3
REMARK    3  A    between atoms: C_4  and  O_5
REMARK    4  A    between atoms: O_5  and  C_6
REMARK    5  A    between atoms: C_7  and  O_8
REMARK    6  A    between atoms: O_8  and  C_9
REMARK    7  A    between atoms: C_11  and  C_12
REMARK    8  A    between atoms: C_16  and  C_17
REMARK    9  A    between atoms: C_17  and  C_18
REMARK   10  A    between atoms: C_20  and  O_21
REMARK   11  A    between atoms: C_22  and  O_23
REMARK   12  A    between atoms: O_23  and  C_24
REMARK   13  A    between atoms: C_27  and  C_29
REMARK                            x       y       z     vdW  Elec       q    Type
REMARK                         _______ _______ _______ _____ _____    ______ ____
ROOT
ATOM      1  C   LIG A   1      -8.825   2.356 129.305  0.00  0.00    +0.211 C 
ATOM      2  O   LIG A   1      -9.650   3.560 129.452  0.00  0.00    -0.483 OA
ATOM      3  C   LIG A   1      -9.515   3.869 130.792  0.00  0.00    +0.132 A 
ATOM      4  C   LIG A   1      -9.777   5.121 131.337  0.00  0.00    +0.043 A 
ATOM      5  C   LIG A   1      -9.506   5.237 132.715  0.00  0.00    +0.166 A 
ATOM      6  C   LIG A   1      -8.974   4.177 133.481  0.00  0.00    +0.162 A 
ATOM      7  C   LIG A   1      -8.772   2.924 132.887  0.00  0.00    +0.057 A 
ATOM      8  C   LIG A   1      -9.058   2.777 131.541  0.00  0.00    +0.005 A 
ATOM      9  C   LIG A   1      -9.000   1.590 130.640  0.00  0.00    +0.065 C 
ATOM     10  C   LIG A   1      -8.068   0.428 130.958  0.00  0.00    +0.016 C 
ENDROOT
BRANCH   1  15
ATOM     11  C   LIG A   1      -6.153   4.275 127.328  0.00  0.00    +0.166 A 
ATOM     12  C   LIG A   1      -4.946   3.684 127.759  0.00  0.00    +0.203 A 
ATOM     13  C   LIG A   1      -5.010   2.667 128.731  0.00  0.00    +0.166 A 
ATOM     14  C   LIG A   1      -6.244   2.287 129.273  0.00  0.00    +0.057 A 
ATOM     15  C   LIG A   1      -7.452   2.808 128.816  0.00  0.00    +0.000 A 
ATOM     16  C   LIG A   1      -7.380   3.820 127.850  0.00  0.00    +0.057 A 
BRANCH  11  18
ATOM     17  C   LIG A   1      -6.233   4.687 124.982  0.00  0.00    +0.277 C 
ATOM     18  O   LIG A   1      -6.130   5.197 126.312  0.00  0.00    -0.491 OA
ENDBRANCH  11  18
BRANCH  12  19
ATOM     19  O   LIG A   1      -3.685   4.002 127.355  0.00  0.00    -0.488 OA
ATOM     20  C   LIG A   1      -2.942   5.085 127.867  0.00  0.00    +0.277 C 
ENDBRANCH  12  19
BRANCH  13  21
ATOM     21  O   LIG A   1      -3.986   1.922 129.271  0.00  0.00    -0.491 OA
ATOM     22  C   LIG A   1      -4.299   0.793 130.070  0.00  0.00    +0.277 C 
ENDBRANCH  13  21
ENDBRANCH   1  15
BRANCH   5  23
ATOM     23  O   LIG A   1      -9.801   6.435 133.309  0.00  0.00    -0.503 OA
ATOM     24  H   LIG A   1      -9.569   7.113 132.654  0.00  0.00    +0.292 HD
ENDBRANCH   5  23
BRANCH   6  25
ATOM     25  O   LIG A   1      -8.619   4.223 134.810  0.00  0.00    -0.491 OA
ATOM     26  C   LIG A   1      -7.328   4.734 135.125  0.00  0.00    +0.277 C 
ENDBRANCH   6  25
BRANCH   4  27
ATOM     27  C   LIG A   1     -10.404   6.226 130.486  0.00  0.00    +0.069 C 
BRANCH  27  28
ATOM     28  C   LIG A   1     -11.929   6.332 130.537  0.00  0.00    -0.030 C 
ATOM     29  C   LIG A   1     -12.643   7.253 131.217  0.00  0.00    +0.004 C 
ENDBRANCH  27  28
ENDBRANCH   4  27
TORSDOF 8
ENDMDL
MODEL 6
REMARK VINA RESULT:      -6.4      2.317      6.741
REMARK  Name = NuBBE_2350
REMARK  13 active torsions:
REMARK  status: ('A' for Active; 'I' for Inactive)
REMARK    1  A    between atoms: C_1  and  O_2
REMARK    2  A    between atoms: O_2  and  C_3
REMARK    3  A    between atoms: C_4  and  O_5
REMARK    4  A    between atoms: O_5  and  C_6
REMARK    5  A    between atoms: C_7  and  O_8
REMARK    6  A    between atoms: O_8  and  C_9
REMARK    7  A    between atoms: C_11  and  C_12
REMARK    8  A    between atoms: C_16  and  C_17
REMARK    9  A    between atoms: C_17  and  C_18
REMARK   10  A    between atoms: C_20  and  O_21
REMARK   11  A    between atoms: C_22  and  O_23
REMARK   12  A    between atoms: O_23  and  C_24
REMARK   13  A    between atoms: C_27  and  C_29
REMARK                            x       y       z     vdW  Elec       q    Type
REMARK                         _______ _______ _______ _____ _____    ______ ____
ROOT
ATOM      1  C   LIG A   1      -8.009   3.684 128.464  0.00  0.00    +0.211 C 
ATOM      2  O   LIG A   1      -8.903   4.820 128.715  0.00  0.00    -0.483 OA
ATOM      3  C   LIG A   1      -9.127   4.746 130.076  0.00  0.00    +0.132 A 
ATOM      4  C   LIG A   1      -9.579   5.806 130.854  0.00  0.00    +0.043 A 
ATOM      5  C   LIG A   1      -9.671   5.533 132.234  0.00  0.00    +0.166 A 
ATOM      6  C   LIG A   1      -9.299   4.292 132.794  0.00  0.00    +0.162 A 
ATOM      7  C   LIG A   1      -8.893   3.245 131.954  0.00  0.00    +0.057 A 
ATOM      8  C   LIG A   1      -8.821   3.481 130.592  0.00  0.00    +0.005 A 
ATOM      9  C   LIG A   1      -8.479   2.585 129.450  0.00  0.00    +0.065 C 
ATOM     10  C   LIG A   1      -7.602   1.359 129.669  0.00  0.00    +0.016 C 
ENDROOT
BRANCH   1  15
ATOM     11  C   LIG A   1      -4.426   4.447 127.319  0.00  0.00    +0.166 A 
ATOM     12  C   LIG A   1      -3.863   5.100 128.436  0.00  0.00    +0.203 A 
ATOM     13  C   LIG A   1      -4.678   5.320 129.563  0.00  0.00    +0.166 A 
ATOM     14  C   LIG A   1      -6.022   4.926 129.548  0.00  0.00    +0.057 A 
ATOM     15  C   LIG A   1      -6.581   4.220 128.486  0.00  0.00    +0.000 A 
ATOM     16  C   LIG A   1      -5.764   4.007 127.368  0.00  0.00    +0.057 A 
BRANCH  11  18
ATOM     17  C   LIG A   1      -2.764   3.006 126.402  0.00  0.00    +0.277 C 
ATOM     18  O   LIG A   1      -3.629   4.131 126.247  0.00  0.00    -0.491 OA
ENDBRANCH  11  18
BRANCH  12  19
ATOM     19  O   LIG A   1      -2.594   5.582 128.554  0.00  0.00    -0.488 OA
ATOM     20  C   LIG A   1      -2.205   6.882 128.173  0.00  0.00    +0.277 C 
ENDBRANCH  12  19
BRANCH  13  21
ATOM     21  O   LIG A   1      -4.349   5.892 130.771  0.00  0.00    -0.491 OA
ATOM     22  C   LIG A   1      -5.051   5.497 131.938  0.00  0.00    +0.277 C 
ENDBRANCH  13  21
ENDBRANCH   1  15
BRANCH   5  23
ATOM     23  O   LIG A   1     -10.165   6.529 133.033  0.00  0.00    -0.503 OA
ATOM     24  H   LIG A   1      -9.387   7.015 133.352  0.00  0.00    +0.292 HD
ENDBRANCH   5  23
BRANCH   6  25
ATOM     25  O   LIG A   1      -9.294   3.963 134.130  0.00  0.00    -0.491 OA
ATOM     26  C   LIG A   1      -8.158   4.352 134.896  0.00  0.00    +0.277 C 
ENDBRANCH   6  25
BRANCH   4  27
ATOM     27  C   LIG A   1     -10.023   7.116 130.204  0.00  0.00    +0.069 C 
BRANCH  27  28
ATOM     28  C   LIG A   1     -11.492   7.197 129.786  0.00  0.00    -0.030 C 
ATOM     29  C   LIG A   1     -12.547   7.378 130.607  0.00  0.00    +0.004 C 
ENDBRANCH  27  28
ENDBRANCH   4  27
TORSDOF 8
ENDMDL
MODEL 7
REMARK VINA RESULT:      -6.4      5.226      8.759
REMARK  Name = NuBBE_2350
REMARK  13 active torsions:
REMARK  status: ('A' for Active; 'I' for Inactive)
REMARK    1  A    between atoms: C_1  and  O_2
REMARK    2  A    between atoms: O_2  and  C_3
REMARK    3  A    between atoms: C_4  and  O_5
REMARK    4  A    between atoms: O_5  and  C_6
REMARK    5  A    between atoms: C_7  and  O_8
REMARK    6  A    between atoms: O_8  and  C_9
REMARK    7  A    between atoms: C_11  and  C_12
REMARK    8  A    between atoms: C_16  and  C_17
REMARK    9  A    between atoms: C_17  and  C_18
REMARK   10  A    between atoms: C_20  and  O_21
REMARK   11  A    between atoms: C_22  and  O_23
REMARK   12  A    between atoms: O_23  and  C_24
REMARK   13  A    between atoms: C_27  and  C_29
REMARK                            x       y       z     vdW  Elec       q    Type
REMARK                         _______ _______ _______ _____ _____    ______ ____
ROOT
ATOM      1  C   LIG A   1      -5.795  -0.217 128.304  0.00  0.00    +0.211 C 
ATOM      2  O   LIG A   1      -5.465  -1.089 127.171  0.00  0.00    -0.483 OA
ATOM      3  C   LIG A   1      -6.535  -0.907 126.315  0.00  0.00    +0.132 A 
ATOM      4  C   LIG A   1      -6.509  -1.201 124.957  0.00  0.00    +0.043 A 
ATOM      5  C   LIG A   1      -7.686  -0.872 124.256  0.00  0.00    +0.166 A 
ATOM      6  C   LIG A   1      -8.797  -0.257 124.873  0.00  0.00    +0.162 A 
ATOM      7  C   LIG A   1      -8.782  -0.026 126.256  0.00  0.00    +0.057 A 
ATOM      8  C   LIG A   1      -7.647  -0.366 126.971  0.00  0.00    +0.005 A 
ATOM      9  C   LIG A   1      -7.338  -0.294 128.428  0.00  0.00    +0.065 C 
ATOM     10  C   LIG A   1      -8.063   0.703 129.321  0.00  0.00    +0.016 C 
ENDROOT
BRANCH   1  15
ATOM     11  C   LIG A   1      -3.849   3.006 129.050  0.00  0.00    +0.166 A 
ATOM     12  C   LIG A   1      -3.780   3.640 127.791  0.00  0.00    +0.203 A 
ATOM     13  C   LIG A   1      -4.351   2.987 126.682  0.00  0.00    +0.166 A 
ATOM     14  C   LIG A   1      -4.938   1.724 126.833  0.00  0.00    +0.057 A 
ATOM     15  C   LIG A   1      -5.077   1.110 128.075  0.00  0.00    +0.000 A 
ATOM     16  C   LIG A   1      -4.506   1.765 129.173  0.00  0.00    +0.057 A 
BRANCH  11  18
ATOM     17  C   LIG A   1      -4.375   4.269 131.000  0.00  0.00    +0.277 C 
ATOM     18  O   LIG A   1      -3.390   3.663 130.164  0.00  0.00    -0.491 OA
ENDBRANCH  11  18
BRANCH  12  19
ATOM     19  O   LIG A   1      -3.190   4.833 127.502  0.00  0.00    -0.488 OA
ATOM     20  C   LIG A   1      -3.795   6.087 127.728  0.00  0.00    +0.277 C 
ENDBRANCH  12  19
BRANCH  13  21
ATOM     21  O   LIG A   1      -4.444   3.418 125.378  0.00  0.00    -0.491 OA
ATOM     22  C   LIG A   1      -5.619   4.089 124.953  0.00  0.00    +0.277 C 
ENDBRANCH  13  21
ENDBRANCH   1  15
BRANCH   5  23
ATOM     23  O   LIG A   1      -7.729  -1.194 122.926  0.00  0.00    -0.503 OA
ATOM     24  H   LIG A   1      -6.966  -1.775 122.774  0.00  0.00    +0.292 HD
ENDBRANCH   5  23
BRANCH   6  25
ATOM     25  O   LIG A   1      -9.954   0.157 124.255  0.00  0.00    -0.491 OA
ATOM     26  C   LIG A   1      -9.997   1.496 123.773  0.00  0.00    +0.277 C 
ENDBRANCH   6  25
BRANCH   4  27
ATOM     27  C   LIG A   1      -5.308  -1.917 124.337  0.00  0.00    +0.069 C 
BRANCH  27  28
ATOM     28  C   LIG A   1      -5.448  -3.429 124.151  0.00  0.00    -0.030 C 
ATOM     29  C   LIG A   1      -4.461  -4.287 123.822  0.00  0.00    +0.004 C 
ENDBRANCH  27  28
ENDBRANCH   4  27
TORSDOF 8
ENDMDL
MODEL 8
REMARK VINA RESULT:      -6.3      4.648      7.807
REMARK  Name = NuBBE_2350
REMARK  13 active torsions:
REMARK  status: ('A' for Active; 'I' for Inactive)
REMARK    1  A    between atoms: C_1  and  O_2
REMARK    2  A    between atoms: O_2  and  C_3
REMARK    3  A    between atoms: C_4  and  O_5
REMARK    4  A    between atoms: O_5  and  C_6
REMARK    5  A    between atoms: C_7  and  O_8
REMARK    6  A    between atoms: O_8  and  C_9
REMARK    7  A    between atoms: C_11  and  C_12
REMARK    8  A    between atoms: C_16  and  C_17
REMARK    9  A    between atoms: C_17  and  C_18
REMARK   10  A    between atoms: C_20  and  O_21
REMARK   11  A    between atoms: C_22  and  O_23
REMARK   12  A    between atoms: O_23  and  C_24
REMARK   13  A    between atoms: C_27  and  C_29
REMARK                            x       y       z     vdW  Elec       q    Type
REMARK                         _______ _______ _______ _____ _____    ______ ____
ROOT
ATOM      1  C   LIG A   1      -6.826   1.747 127.973  0.00  0.00    +0.211 C 
ATOM      2  O   LIG A   1      -6.782   1.395 129.397  0.00  0.00    -0.483 OA
ATOM      3  C   LIG A   1      -7.821   2.132 129.933  0.00  0.00    +0.132 A 
ATOM      4  C   LIG A   1      -8.433   1.853 131.149  0.00  0.00    +0.043 A 
ATOM      5  C   LIG A   1      -9.520   2.688 131.473  0.00  0.00    +0.166 A 
ATOM      6  C   LIG A   1      -9.982   3.709 130.614  0.00  0.00    +0.162 A 
ATOM      7  C   LIG A   1      -9.297   3.974 129.420  0.00  0.00    +0.057 A 
ATOM      8  C   LIG A   1      -8.208   3.184 129.094  0.00  0.00    +0.005 A 
ATOM      9  C   LIG A   1      -7.258   3.235 127.946  0.00  0.00    +0.065 C 
ATOM     10  C   LIG A   1      -7.680   3.862 126.623  0.00  0.00    +0.016 C 
ENDROOT
BRANCH   1  15
ATOM     11  C   LIG A   1      -8.111  -1.734 126.991  0.00  0.00    +0.166 A 
ATOM     12  C   LIG A   1      -9.034  -1.457 125.960  0.00  0.00    +0.203 A 
ATOM     13  C   LIG A   1      -9.260  -0.113 125.607  0.00  0.00    +0.166 A 
ATOM     14  C   LIG A   1      -8.603   0.915 126.294  0.00  0.00    +0.057 A 
ATOM     15  C   LIG A   1      -7.639   0.666 127.267  0.00  0.00    +0.000 A 
ATOM     16  C   LIG A   1      -7.421  -0.674 127.614  0.00  0.00    +0.057 A 
BRANCH  11  18
ATOM     17  C   LIG A   1      -8.645  -3.700 128.226  0.00  0.00    +0.277 C 
ATOM     18  O   LIG A   1      -7.798  -3.036 127.287  0.00  0.00    -0.491 OA
ENDBRANCH  11  18
BRANCH  12  19
ATOM     19  O   LIG A   1      -9.777  -2.358 125.258  0.00  0.00    -0.488 OA
ATOM     20  C   LIG A   1      -9.296  -3.081 124.147  0.00  0.00    +0.277 C 
ENDBRANCH  12  19
BRANCH  13  21
ATOM     21  O   LIG A   1     -10.071   0.398 124.620  0.00  0.00    -0.491 OA
ATOM     22  C   LIG A   1      -9.756   1.655 124.046  0.00  0.00    +0.277 C 
ENDBRANCH  13  21
ENDBRANCH   1  15
BRANCH   5  23
ATOM     23  O   LIG A   1     -10.119   2.488 132.687  0.00  0.00    -0.503 OA
ATOM     24  H   LIG A   1     -10.357   1.547 132.707  0.00  0.00    +0.292 HD
ENDBRANCH   5  23
BRANCH   6  25
ATOM     25  O   LIG A   1     -11.071   4.524 130.819  0.00  0.00    -0.491 OA
ATOM     26  C   LIG A   1     -11.097   5.769 130.130  0.00  0.00    +0.277 C 
ENDBRANCH   6  25
BRANCH   4  27
ATOM     27  C   LIG A   1      -7.869   0.774 132.076  0.00  0.00    +0.069 C 
BRANCH  27  28
ATOM     28  C   LIG A   1      -8.367  -0.651 131.831  0.00  0.00    -0.030 C 
ATOM     29  C   LIG A   1      -7.704  -1.627 131.177  0.00  0.00    +0.004 C 
ENDBRANCH  27  28
ENDBRANCH   4  27
TORSDOF 8
ENDMDL
MODEL 9
REMARK VINA RESULT:      -6.3      5.716      9.058
REMARK  Name = NuBBE_2350
REMARK  13 active torsions:
REMARK  status: ('A' for Active; 'I' for Inactive)
REMARK    1  A    between atoms: C_1  and  O_2
REMARK    2  A    between atoms: O_2  and  C_3
REMARK    3  A    between atoms: C_4  and  O_5
REMARK    4  A    between atoms: O_5  and  C_6
REMARK    5  A    between atoms: C_7  and  O_8
REMARK    6  A    between atoms: O_8  and  C_9
REMARK    7  A    between atoms: C_11  and  C_12
REMARK    8  A    between atoms: C_16  and  C_17
REMARK    9  A    between atoms: C_17  and  C_18
REMARK   10  A    between atoms: C_20  and  O_21
REMARK   11  A    between atoms: C_22  and  O_23
REMARK   12  A    between atoms: O_23  and  C_24
REMARK   13  A    between atoms: C_27  and  C_29
REMARK                            x       y       z     vdW  Elec       q    Type
REMARK                         _______ _______ _______ _____ _____    ______ ____
ROOT
ATOM      1  C   LIG A   1      -5.302   0.474 126.638  0.00  0.00    +0.211 C 
ATOM      2  O   LIG A   1      -5.499  -0.093 127.976  0.00  0.00    -0.483 OA
ATOM      3  C   LIG A   1      -6.489   0.708 128.512  0.00  0.00    +0.132 A 
ATOM      4  C   LIG A   1      -7.292   0.348 129.588  0.00  0.00    +0.043 A 
ATOM      5  C   LIG A   1      -8.287   1.286 129.928  0.00  0.00    +0.166 A 
ATOM      6  C   LIG A   1      -8.483   2.486 129.210  0.00  0.00    +0.162 A 
ATOM      7  C   LIG A   1      -7.613   2.817 128.162  0.00  0.00    +0.057 A 
ATOM      8  C   LIG A   1      -6.610   1.924 127.828  0.00  0.00    +0.005 A 
ATOM      9  C   LIG A   1      -5.516   1.998 126.818  0.00  0.00    +0.065 C 
ATOM     10  C   LIG A   1      -5.665   2.878 125.584  0.00  0.00    +0.016 C 
ENDROOT
BRANCH   1  15
ATOM     11  C   LIG A   1      -6.509  -2.486 124.513  0.00  0.00    +0.166 A 
ATOM     12  C   LIG A   1      -7.617  -1.955 123.820  0.00  0.00    +0.203 A 
ATOM     13  C   LIG A   1      -7.990  -0.622 124.077  0.00  0.00    +0.166 A 
ATOM     14  C   LIG A   1      -7.290   0.135 125.025  0.00  0.00    +0.057 A 
ATOM     15  C   LIG A   1      -6.154  -0.344 125.672  0.00  0.00    +0.000 A 
ATOM     16  C   LIG A   1      -5.791  -1.672 125.412  0.00  0.00    +0.057 A 
BRANCH  11  18
ATOM     17  C   LIG A   1      -4.738  -3.851 123.691  0.00  0.00    +0.277 C 
ATOM     18  O   LIG A   1      -6.063  -3.748 124.211  0.00  0.00    -0.491 OA
ENDBRANCH  11  18
BRANCH  12  19
ATOM     19  O   LIG A   1      -8.411  -2.600 122.921  0.00  0.00    -0.488 OA
ATOM     20  C   LIG A   1      -9.566  -3.329 123.269  0.00  0.00    +0.277 C 
ENDBRANCH  12  19
BRANCH  13  21
ATOM     21  O   LIG A   1      -8.996   0.122 123.502  0.00  0.00    -0.491 OA
ATOM     22  C   LIG A   1      -8.811   1.516 123.323  0.00  0.00    +0.277 C 
ENDBRANCH  13  21
ENDBRANCH   1  15
BRANCH   5  23
ATOM     23  O   LIG A   1      -9.067   1.000 131.016  0.00  0.00    -0.503 OA
ATOM     24  H   LIG A   1      -8.446   0.802 131.736  0.00  0.00    +0.292 HD
ENDBRANCH   5  23
BRANCH   6  25
ATOM     25  O   LIG A   1      -9.467   3.422 129.431  0.00  0.00    -0.491 OA
ATOM     26  C   LIG A   1      -9.056   4.712 129.873  0.00  0.00    +0.277 C 
ENDBRANCH   6  25
BRANCH   4  27
ATOM     27  C   LIG A   1      -7.014  -0.935 130.373  0.00  0.00    +0.069 C 
BRANCH  27  28
ATOM     28  C   LIG A   1      -7.833  -2.162 129.970  0.00  0.00    -0.030 C 
ATOM     29  C   LIG A   1      -7.951  -2.670 128.726  0.00  0.00    +0.004 C 
ENDBRANCH  27  28
ENDBRANCH   4  27
TORSDOF 8
ENDMDL
