MODEL 1
REMARK VINA RESULT:      -4.9      0.000      0.000
REMARK  Name = NuBBE_655
REMARK  4 active torsions:
REMARK  status: ('A' for Active; 'I' for Inactive)
REMARK    1  A    between atoms: O_1  and  C_2
REMARK    2  A    between atoms: C_5  and  C_6
REMARK    3  A    between atoms: C_6  and  C_7
REMARK    4  A    between atoms: C_6  and  O_8
REMARK                            x       y       z     vdW  Elec       q    Type
REMARK                         _______ _______ _______ _____ _____    ______ ____
ROOT
ATOM      1  C   LIG A   1     -11.316   7.089 127.030  0.00  0.00    +0.115 C 
ATOM      2  C   LIG A   1     -10.361   6.803 128.184  0.00  0.00    +0.032 C 
ATOM      3  C   LIG A   1     -10.494   7.832 129.308  0.00  0.00    +0.009 C 
ATOM      4  C   LIG A   1     -11.933   8.019 129.827  0.00  0.00    +0.017 C 
ATOM      5  C   LIG A   1     -12.905   8.234 128.651  0.00  0.00    +0.009 C 
ATOM      6  C   LIG A   1     -12.759   7.228 127.507  0.00  0.00    +0.032 C 
ENDROOT
BRANCH   1   7
ATOM      7  O   LIG A   1     -10.937   8.302 126.380  0.00  0.00    -0.392 OA
ATOM      8  H   LIG A   1     -11.748   8.816 126.229  0.00  0.00    +0.210 HD
ENDBRANCH   1   7
BRANCH   4   9
ATOM      9  C   LIG A   1     -12.339   6.904 130.824  0.00  0.00    +0.115 C 
ATOM     10  C   LIG A   1     -11.182   6.442 131.708  0.00  0.00    +0.038 C 
BRANCH   9  11
ATOM     11  O   LIG A   1     -13.432   7.288 131.647  0.00  0.00    -0.392 OA
ATOM     12  H   LIG A   1     -13.446   6.706 132.425  0.00  0.00    +0.210 HD
ENDBRANCH   9  11
ENDBRANCH   4   9
TORSDOF 3
ENDMDL
MODEL 2
REMARK VINA RESULT:      -4.9      1.476      4.035
REMARK  Name = NuBBE_655
REMARK  4 active torsions:
REMARK  status: ('A' for Active; 'I' for Inactive)
REMARK    1  A    between atoms: O_1  and  C_2
REMARK    2  A    between atoms: C_5  and  C_6
REMARK    3  A    between atoms: C_6  and  C_7
REMARK    4  A    between atoms: C_6  and  O_8
REMARK                            x       y       z     vdW  Elec       q    Type
REMARK                         _______ _______ _______ _____ _____    ______ ____
ROOT
ATOM      1  C   LIG A   1     -11.687   6.151 131.507  0.00  0.00    +0.115 C 
ATOM      2  C   LIG A   1     -12.722   7.188 131.082  0.00  0.00    +0.032 C 
ATOM      3  C   LIG A   1     -12.188   8.121 129.995  0.00  0.00    +0.009 C 
ATOM      4  C   LIG A   1     -11.611   7.392 128.764  0.00  0.00    +0.017 C 
ATOM      5  C   LIG A   1     -10.622   6.296 129.203  0.00  0.00    +0.009 C 
ATOM      6  C   LIG A   1     -11.136   5.377 130.314  0.00  0.00    +0.032 C 
ENDROOT
BRANCH   1   7
ATOM      7  O   LIG A   1     -10.599   6.799 132.166  0.00  0.00    -0.392 OA
ATOM      8  H   LIG A   1     -10.870   6.954 133.087  0.00  0.00    +0.210 HD
ENDBRANCH   1   7
BRANCH   4   9
ATOM      9  C   LIG A   1     -12.726   6.926 127.793  0.00  0.00    +0.115 C 
ATOM     10  C   LIG A   1     -13.866   7.934 127.662  0.00  0.00    +0.038 C 
BRANCH   9  11
ATOM     11  O   LIG A   1     -12.220   6.620 126.500  0.00  0.00    -0.392 OA
ATOM     12  H   LIG A   1     -12.939   6.742 125.856  0.00  0.00    +0.210 HD
ENDBRANCH   9  11
ENDBRANCH   4   9
TORSDOF 3
ENDMDL
MODEL 3
REMARK VINA RESULT:      -4.8      1.274      2.218
REMARK  Name = NuBBE_655
REMARK  4 active torsions:
REMARK  status: ('A' for Active; 'I' for Inactive)
REMARK    1  A    between atoms: O_1  and  C_2
REMARK    2  A    between atoms: C_5  and  C_6
REMARK    3  A    between atoms: C_6  and  C_7
REMARK    4  A    between atoms: C_6  and  O_8
REMARK                            x       y       z     vdW  Elec       q    Type
REMARK                         _______ _______ _______ _____ _____    ______ ____
ROOT
ATOM      1  C   LIG A   1     -11.633   7.827 127.281  0.00  0.00    +0.115 C 
ATOM      2  C   LIG A   1     -12.932   7.691 128.069  0.00  0.00    +0.032 C 
ATOM      3  C   LIG A   1     -12.992   6.379 128.853  0.00  0.00    +0.009 C 
ATOM      4  C   LIG A   1     -11.774   6.130 129.764  0.00  0.00    +0.017 C 
ATOM      5  C   LIG A   1     -10.465   6.342 128.981  0.00  0.00    +0.009 C 
ATOM      6  C   LIG A   1     -10.407   7.637 128.168  0.00  0.00    +0.032 C 
ENDROOT
BRANCH   1   7
ATOM      7  O   LIG A   1     -11.595   6.849 126.242  0.00  0.00    -0.392 OA
ATOM      8  H   LIG A   1     -10.747   6.380 126.317  0.00  0.00    +0.210 HD
ENDBRANCH   1   7
BRANCH   4   9
ATOM      9  C   LIG A   1     -11.880   6.911 131.098  0.00  0.00    +0.115 C 
ATOM     10  C   LIG A   1     -13.126   7.791 131.179  0.00  0.00    +0.038 C 
BRANCH   9  11
ATOM     11  O   LIG A   1     -11.839   6.053 132.231  0.00  0.00    -0.392 OA
ATOM     12  H   LIG A   1     -11.550   5.173 131.935  0.00  0.00    +0.210 HD
ENDBRANCH   9  11
ENDBRANCH   4   9
TORSDOF 3
ENDMDL
MODEL 4
REMARK VINA RESULT:      -4.8      1.986      2.307
REMARK  Name = NuBBE_655
REMARK  4 active torsions:
REMARK  status: ('A' for Active; 'I' for Inactive)
REMARK    1  A    between atoms: O_1  and  C_2
REMARK    2  A    between atoms: C_5  and  C_6
REMARK    3  A    between atoms: C_6  and  C_7
REMARK    4  A    between atoms: C_6  and  O_8
REMARK                            x       y       z     vdW  Elec       q    Type
REMARK                         _______ _______ _______ _____ _____    ______ ____
ROOT
ATOM      1  C   LIG A   1     -12.486   8.311 128.164  0.00  0.00    +0.115 C 
ATOM      2  C   LIG A   1     -11.018   7.943 127.971  0.00  0.00    +0.032 C 
ATOM      3  C   LIG A   1     -10.268   7.859 129.300  0.00  0.00    +0.009 C 
ATOM      4  C   LIG A   1     -10.927   6.934 130.342  0.00  0.00    +0.017 C 
ATOM      5  C   LIG A   1     -12.426   7.261 130.479  0.00  0.00    +0.009 C 
ATOM      6  C   LIG A   1     -13.181   7.379 129.152  0.00  0.00    +0.032 C 
ENDROOT
BRANCH   1   7
ATOM      7  O   LIG A   1     -12.587   9.647 128.657  0.00  0.00    -0.392 OA
ATOM      8  H   LIG A   1     -13.326   9.668 129.289  0.00  0.00    +0.210 HD
ENDBRANCH   1   7
BRANCH   4   9
ATOM      9  C   LIG A   1     -10.598   5.442 130.081  0.00  0.00    +0.115 C 
ATOM     10  C   LIG A   1      -9.101   5.175 129.939  0.00  0.00    +0.038 C 
BRANCH   9  11
ATOM     11  O   LIG A   1     -11.133   4.589 131.086  0.00  0.00    -0.392 OA
ATOM     12  H   LIG A   1     -11.085   5.055 131.938  0.00  0.00    +0.210 HD
ENDBRANCH   9  11
ENDBRANCH   4   9
TORSDOF 3
ENDMDL
MODEL 5
REMARK VINA RESULT:      -4.7      1.360      4.068
REMARK  Name = NuBBE_655
REMARK  4 active torsions:
REMARK  status: ('A' for Active; 'I' for Inactive)
REMARK    1  A    between atoms: O_1  and  C_2
REMARK    2  A    between atoms: C_5  and  C_6
REMARK    3  A    between atoms: C_6  and  C_7
REMARK    4  A    between atoms: C_6  and  O_8
REMARK                            x       y       z     vdW  Elec       q    Type
REMARK                         _______ _______ _______ _____ _____    ______ ____
ROOT
ATOM      1  C   LIG A   1     -13.040   7.195 130.696  0.00  0.00    +0.115 C 
ATOM      2  C   LIG A   1     -13.276   7.892 129.360  0.00  0.00    +0.032 C 
ATOM      3  C   LIG A   1     -12.048   8.677 128.898  0.00  0.00    +0.009 C 
ATOM      4  C   LIG A   1     -10.747   7.852 128.859  0.00  0.00    +0.017 C 
ATOM      5  C   LIG A   1     -10.553   7.091 130.184  0.00  0.00    +0.009 C 
ATOM      6  C   LIG A   1     -11.786   6.327 130.671  0.00  0.00    +0.032 C 
ENDROOT
BRANCH   1   7
ATOM      7  O   LIG A   1     -12.895   8.169 131.729  0.00  0.00    -0.392 OA
ATOM      8  H   LIG A   1     -13.436   8.938 131.480  0.00  0.00    +0.210 HD
ENDBRANCH   1   7
BRANCH   4   9
ATOM      9  C   LIG A   1     -10.651   6.983 127.579  0.00  0.00    +0.115 C 
ATOM     10  C   LIG A   1     -10.849   7.786 126.295  0.00  0.00    +0.038 C 
BRANCH   9  11
ATOM     11  O   LIG A   1      -9.422   6.272 127.501  0.00  0.00    -0.392 OA
ATOM     12  H   LIG A   1      -9.133   6.064 128.406  0.00  0.00    +0.210 HD
ENDBRANCH   9  11
ENDBRANCH   4   9
TORSDOF 3
ENDMDL
MODEL 6
REMARK VINA RESULT:      -4.6      2.103      2.910
REMARK  Name = NuBBE_655
REMARK  4 active torsions:
REMARK  status: ('A' for Active; 'I' for Inactive)
REMARK    1  A    between atoms: O_1  and  C_2
REMARK    2  A    between atoms: C_5  and  C_6
REMARK    3  A    between atoms: C_6  and  C_7
REMARK    4  A    between atoms: C_6  and  O_8
REMARK                            x       y       z     vdW  Elec       q    Type
REMARK                         _______ _______ _______ _____ _____    ______ ____
ROOT
ATOM      1  C   LIG A   1     -12.624   8.948 128.867  0.00  0.00    +0.115 C 
ATOM      2  C   LIG A   1     -12.688   8.438 130.303  0.00  0.00    +0.032 C 
ATOM      3  C   LIG A   1     -12.370   6.946 130.397  0.00  0.00    +0.009 C 
ATOM      4  C   LIG A   1     -11.039   6.540 129.734  0.00  0.00    +0.017 C 
ATOM      5  C   LIG A   1     -10.948   7.120 128.311  0.00  0.00    +0.009 C 
ATOM      6  C   LIG A   1     -11.295   8.607 128.201  0.00  0.00    +0.032 C 
ENDROOT
BRANCH   1   7
ATOM      7  O   LIG A   1     -13.677   8.363 128.101  0.00  0.00    -0.392 OA
ATOM      8  H   LIG A   1     -13.888   8.980 127.380  0.00  0.00    +0.210 HD
ENDBRANCH   1   7
BRANCH   4   9
ATOM      9  C   LIG A   1      -9.823   6.838 130.648  0.00  0.00    +0.115 C 
ATOM     10  C   LIG A   1      -9.898   6.126 131.997  0.00  0.00    +0.038 C 
BRANCH   9  11
ATOM     11  O   LIG A   1      -8.586   6.523 130.021  0.00  0.00    -0.392 OA
ATOM     12  H   LIG A   1      -7.923   7.171 130.312  0.00  0.00    +0.210 HD
ENDBRANCH   9  11
ENDBRANCH   4   9
TORSDOF 3
ENDMDL
MODEL 7
REMARK VINA RESULT:      -4.5      1.981      3.268
REMARK  Name = NuBBE_655
REMARK  4 active torsions:
REMARK  status: ('A' for Active; 'I' for Inactive)
REMARK    1  A    between atoms: O_1  and  C_2
REMARK    2  A    between atoms: C_5  and  C_6
REMARK    3  A    between atoms: C_6  and  C_7
REMARK    4  A    between atoms: C_6  and  O_8
REMARK                            x       y       z     vdW  Elec       q    Type
REMARK                         _______ _______ _______ _____ _____    ______ ____
ROOT
ATOM      1  C   LIG A   1     -10.649   6.224 129.922  0.00  0.00    +0.115 C 
ATOM      2  C   LIG A   1     -10.829   7.007 128.625  0.00  0.00    +0.032 C 
ATOM      3  C   LIG A   1     -12.304   7.232 128.291  0.00  0.00    +0.009 C 
ATOM      4  C   LIG A   1     -13.121   7.872 129.431  0.00  0.00    +0.017 C 
ATOM      5  C   LIG A   1     -12.877   7.122 130.754  0.00  0.00    +0.009 C 
ATOM      6  C   LIG A   1     -11.404   6.865 131.083  0.00  0.00    +0.032 C 
ENDROOT
BRANCH   1   7
ATOM      7  O   LIG A   1     -11.130   4.892 129.751  0.00  0.00    -0.392 OA
ATOM      8  H   LIG A   1     -11.274   4.756 128.799  0.00  0.00    +0.210 HD
ENDBRANCH   1   7
BRANCH   4   9
ATOM      9  C   LIG A   1     -12.919   9.408 129.496  0.00  0.00    +0.115 C 
ATOM     10  C   LIG A   1     -13.810  10.170 128.517  0.00  0.00    +0.038 C 
BRANCH   9  11
ATOM     11  O   LIG A   1     -13.117   9.923 130.806  0.00  0.00    -0.392 OA
ATOM     12  H   LIG A   1     -12.462  10.624 130.959  0.00  0.00    +0.210 HD
ENDBRANCH   9  11
ENDBRANCH   4   9
TORSDOF 3
ENDMDL
MODEL 8
REMARK VINA RESULT:      -4.5      1.216      3.829
REMARK  Name = NuBBE_655
REMARK  4 active torsions:
REMARK  status: ('A' for Active; 'I' for Inactive)
REMARK    1  A    between atoms: O_1  and  C_2
REMARK    2  A    between atoms: C_5  and  C_6
REMARK    3  A    between atoms: C_6  and  C_7
REMARK    4  A    between atoms: C_6  and  O_8
REMARK                            x       y       z     vdW  Elec       q    Type
REMARK                         _______ _______ _______ _____ _____    ______ ____
ROOT
ATOM      1  C   LIG A   1     -12.330   7.752 130.893  0.00  0.00    +0.115 C 
ATOM      2  C   LIG A   1     -11.695   6.591 130.135  0.00  0.00    +0.032 C 
ATOM      3  C   LIG A   1     -12.532   6.167 128.927  0.00  0.00    +0.009 C 
ATOM      4  C   LIG A   1     -12.881   7.319 127.964  0.00  0.00    +0.017 C 
ATOM      5  C   LIG A   1     -13.453   8.517 128.745  0.00  0.00    +0.009 C 
ATOM      6  C   LIG A   1     -12.639   8.930 129.974  0.00  0.00    +0.032 C 
ENDROOT
BRANCH   1   7
ATOM      7  O   LIG A   1     -13.547   7.322 131.501  0.00  0.00    -0.392 OA
ATOM      8  H   LIG A   1     -13.422   6.398 131.778  0.00  0.00    +0.210 HD
ENDBRANCH   1   7
BRANCH   4   9
ATOM      9  C   LIG A   1     -11.706   7.653 127.011  0.00  0.00    +0.115 C 
ATOM     10  C   LIG A   1     -10.548   8.359 127.712  0.00  0.00    +0.038 C 
BRANCH   9  11
ATOM     11  O   LIG A   1     -11.213   6.501 126.339  0.00  0.00    -0.392 OA
ATOM     12  H   LIG A   1     -11.931   6.136 125.794  0.00  0.00    +0.210 HD
ENDBRANCH   9  11
ENDBRANCH   4   9
TORSDOF 3
ENDMDL
MODEL 9
REMARK VINA RESULT:      -4.5     11.039     11.757
REMARK  Name = NuBBE_655
REMARK  4 active torsions:
REMARK  status: ('A' for Active; 'I' for Inactive)
REMARK    1  A    between atoms: O_1  and  C_2
REMARK    2  A    between atoms: C_5  and  C_6
REMARK    3  A    between atoms: C_6  and  C_7
REMARK    4  A    between atoms: C_6  and  O_8
REMARK                            x       y       z     vdW  Elec       q    Type
REMARK                         _______ _______ _______ _____ _____    ______ ____
ROOT
ATOM      1  C   LIG A   1      -6.907  -1.298 123.205  0.00  0.00    +0.115 C 
ATOM      2  C   LIG A   1      -8.417  -1.369 123.003  0.00  0.00    +0.032 C 
ATOM      3  C   LIG A   1      -8.948  -2.796 123.140  0.00  0.00    +0.009 C 
ATOM      4  C   LIG A   1      -8.539  -3.500 124.449  0.00  0.00    +0.017 C 
ATOM      5  C   LIG A   1      -7.024  -3.361 124.685  0.00  0.00    +0.009 C 
ATOM      6  C   LIG A   1      -6.477  -1.941 124.519  0.00  0.00    +0.032 C 
ENDROOT
BRANCH   1   7
ATOM      7  O   LIG A   1      -6.246  -1.973 122.134  0.00  0.00    -0.392 OA
ATOM      8  H   LIG A   1      -6.817  -1.901 121.350  0.00  0.00    +0.210 HD
ENDBRANCH   1   7
BRANCH   4   9
ATOM      9  C   LIG A   1      -9.435  -3.072 125.640  0.00  0.00    +0.115 C 
ATOM     10  C   LIG A   1      -8.858  -3.471 126.997  0.00  0.00    +0.038 C 
BRANCH   9  11
ATOM     11  O   LIG A   1      -9.703  -1.676 125.638  0.00  0.00    -0.392 OA
ATOM     12  H   LIG A   1     -10.370  -1.496 124.954  0.00  0.00    +0.210 HD
ENDBRANCH   9  11
ENDBRANCH   4   9
TORSDOF 3
ENDMDL
