MODEL 1
REMARK VINA RESULT:      -9.0      0.000      0.000
REMARK  Name = NuBBE_1609
REMARK  11 active torsions:
REMARK  status: ('A' for Active; 'I' for Inactive)
REMARK    1  A    between atoms: C_1  and  C_2
REMARK    2  A    between atoms: C_4  and  C_5
REMARK    3  A    between atoms: C_6  and  C_14
REMARK    4  A    between atoms: C_23  and  C_24
REMARK    5  A    between atoms: C_28  and  O_30
REMARK    6  A    between atoms: O_30  and  C_31
REMARK    7  A    between atoms: C_31  and  C_33
REMARK    8  A    between atoms: C_34  and  C_35
REMARK    9  A    between atoms: C_34  and  C_36
REMARK   10  A    between atoms: C_40  and  O_42
REMARK   11  A    between atoms: O_42  and  C_43
REMARK                            x       y       z     vdW  Elec       q    Type
REMARK                         _______ _______ _______ _____ _____    ______ ____
ROOT
ATOM      1  C   LIG A   1      -5.575   0.362 128.441  0.00  0.00    +0.018 C 
ATOM      2  C   LIG A   1      -7.062  -0.040 128.620  0.00  0.00    +0.041 C 
ATOM      3  C   LIG A   1      -7.548   0.564 129.997  0.00  0.00    +0.125 C 
ATOM      4  C   LIG A   1      -7.798   2.084 130.115  0.00  0.00    +0.042 C 
ATOM      5  C   LIG A   1      -6.462   2.864 130.141  0.00  0.00    +0.018 C 
ATOM      6  C   LIG A   1      -8.568   2.355 131.467  0.00  0.00    +0.218 C 
ATOM      7  O   LIG A   1      -7.808   1.866 132.595  0.00  0.00    -0.454 OA
ATOM      8  C   LIG A   1      -7.348   0.585 132.607  0.00  0.00    +0.340 C 
ATOM      9  O   LIG A   1      -6.877   0.073 133.609  0.00  0.00    -0.248 OA
ATOM     10  C   LIG A   1      -7.332  -0.150 131.318  0.00  0.00    +0.260 C 
ATOM     11  O   LIG A   1      -8.584  -0.226 130.615  0.00  0.00    -0.351 OA
ATOM     12  C   LIG A   1      -8.669   2.530 128.929  0.00  0.00    +0.014 C 
ATOM     13  C   LIG A   1      -8.172   2.049 127.566  0.00  0.00    +0.006 C 
ATOM     14  C   LIG A   1      -8.036   0.511 127.488  0.00  0.00    +0.010 C 
ATOM     15  C   LIG A   1      -7.792  -0.079 126.008  0.00  0.00    +0.002 C 
ATOM     16  C   LIG A   1      -6.426   0.398 125.456  0.00  0.00    +0.014 C 
ATOM     17  C   LIG A   1      -7.910  -1.647 126.137  0.00  0.00    +0.014 C 
ATOM     18  C   LIG A   1      -6.941  -2.204 127.186  0.00  0.00    +0.050 C 
ATOM     19  C   LIG A   1      -7.135  -1.615 128.595  0.00  0.00    +0.186 C 
ATOM     20  C   LIG A   1      -7.885  -2.467 124.801  0.00  0.00    +0.027 C 
ATOM     21  C   LIG A   1      -6.548  -2.464 124.042  0.00  0.00    +0.019 C 
ATOM     22  C   LIG A   1      -8.241  -3.952 125.067  0.00  0.00    +0.019 C 
ATOM     23  C   LIG A   1      -8.968  -1.875 123.900  0.00  0.00    +0.142 C 
ATOM     24  O   LIG A   1      -9.780  -2.574 123.289  0.00  0.00    -0.297 OA
ATOM     25  C   LIG A   1      -8.958  -0.389 123.692  0.00  0.00    +0.107 C 
ATOM     26  C   LIG A   1      -8.918   0.405 125.002  0.00  0.00    +0.131 C 
ENDROOT
BRANCH   6  27
ATOM     27  C   LIG A   1      -8.921   3.804 131.709  0.00  0.00    +0.031 A 
ATOM     28  C   LIG A   1     -10.043   4.529 131.202  0.00  0.00    +0.048 A 
ATOM     29  C   LIG A   1      -9.937   5.811 131.684  0.00  0.00    +0.195 A 
ATOM     30  O   LIG A   1      -8.826   5.935 132.452  0.00  0.00    -0.471 OA
ATOM     31  C   LIG A   1      -8.213   4.725 132.459  0.00  0.00    +0.202 A 
ENDBRANCH   6  27
BRANCH  26  32
ATOM     32  O   LIG A   1      -8.686   1.791 124.692  0.00  0.00    -0.379 OA
ATOM     33  C   LIG A   1      -9.098   2.193 123.391  0.00  0.00    +0.194 C 
ENDBRANCH  26  32
BRANCH  19  34
ATOM     34  O   LIG A   1      -6.063  -2.164 129.407  0.00  0.00    -0.461 OA
BRANCH  34  35
ATOM     35  C   LIG A   1      -6.335  -3.287 130.129  0.00  0.00    +0.304 C 
ATOM     36  O   LIG A   1      -7.416  -3.572 130.622  0.00  0.00    -0.251 OA
ATOM     37  C   LIG A   1      -5.099  -4.126 130.248  0.00  0.00    +0.136 C 
ENDBRANCH  34  35
ENDBRANCH  19  34
TORSDOF 4
ENDMDL
MODEL 2
REMARK VINA RESULT:      -8.3      2.936      8.367
REMARK  Name = NuBBE_1609
REMARK  11 active torsions:
REMARK  status: ('A' for Active; 'I' for Inactive)
REMARK    1  A    between atoms: C_1  and  C_2
REMARK    2  A    between atoms: C_4  and  C_5
REMARK    3  A    between atoms: C_6  and  C_14
REMARK    4  A    between atoms: C_23  and  C_24
REMARK    5  A    between atoms: C_28  and  O_30
REMARK    6  A    between atoms: O_30  and  C_31
REMARK    7  A    between atoms: C_31  and  C_33
REMARK    8  A    between atoms: C_34  and  C_35
REMARK    9  A    between atoms: C_34  and  C_36
REMARK   10  A    between atoms: C_40  and  O_42
REMARK   11  A    between atoms: O_42  and  C_43
REMARK                            x       y       z     vdW  Elec       q    Type
REMARK                         _______ _______ _______ _____ _____    ______ ____
ROOT
ATOM      1  C   LIG A   1      -4.404   2.442 128.223  0.00  0.00    +0.018 C 
ATOM      2  C   LIG A   1      -5.679   3.309 128.382  0.00  0.00    +0.041 C 
ATOM      3  C   LIG A   1      -6.329   3.455 126.949  0.00  0.00    +0.125 C 
ATOM      4  C   LIG A   1      -7.058   2.247 126.319  0.00  0.00    +0.042 C 
ATOM      5  C   LIG A   1      -6.047   1.174 125.850  0.00  0.00    +0.018 C 
ATOM      6  C   LIG A   1      -7.868   2.760 125.063  0.00  0.00    +0.218 C 
ATOM      7  O   LIG A   1      -6.987   3.389 124.107  0.00  0.00    -0.454 OA
ATOM      8  C   LIG A   1      -6.135   4.374 124.506  0.00  0.00    +0.340 C 
ATOM      9  O   LIG A   1      -5.520   5.063 123.709  0.00  0.00    -0.248 OA
ATOM     10  C   LIG A   1      -5.888   4.519 125.962  0.00  0.00    +0.260 C 
ATOM     11  O   LIG A   1      -7.050   4.693 126.790  0.00  0.00    -0.351 OA
ATOM     12  C   LIG A   1      -8.031   1.666 127.357  0.00  0.00    +0.014 C 
ATOM     13  C   LIG A   1      -7.412   1.416 128.731  0.00  0.00    +0.006 C 
ATOM     14  C   LIG A   1      -6.784   2.688 129.345  0.00  0.00    +0.010 C 
ATOM     15  C   LIG A   1      -6.368   2.564 130.897  0.00  0.00    +0.002 C 
ATOM     16  C   LIG A   1      -5.233   1.525 131.070  0.00  0.00    +0.014 C 
ATOM     17  C   LIG A   1      -5.970   4.018 131.362  0.00  0.00    +0.014 C 
ATOM     18  C   LIG A   1      -4.869   4.615 130.478  0.00  0.00    +0.050 C 
ATOM     19  C   LIG A   1      -5.237   4.697 128.986  0.00  0.00    +0.186 C 
ATOM     20  C   LIG A   1      -5.687   4.215 132.891  0.00  0.00    +0.027 C 
ATOM     21  C   LIG A   1      -4.426   3.520 133.430  0.00  0.00    +0.019 C 
ATOM     22  C   LIG A   1      -5.540   5.721 133.228  0.00  0.00    +0.019 C 
ATOM     23  C   LIG A   1      -6.907   3.681 133.639  0.00  0.00    +0.142 C 
ATOM     24  O   LIG A   1      -7.451   4.301 134.555  0.00  0.00    -0.297 OA
ATOM     25  C   LIG A   1      -7.381   2.300 133.290  0.00  0.00    +0.107 C 
ATOM     26  C   LIG A   1      -7.594   2.095 131.787  0.00  0.00    +0.131 C 
ENDROOT
BRANCH   6  27
ATOM     27  C   LIG A   1      -8.672   1.693 124.356  0.00  0.00    +0.031 A 
ATOM     28  C   LIG A   1      -8.195   0.679 123.471  0.00  0.00    +0.048 A 
ATOM     29  C   LIG A   1      -9.290  -0.048 123.073  0.00  0.00    +0.195 A 
ATOM     30  O   LIG A   1     -10.416   0.446 123.646  0.00  0.00    -0.471 OA
ATOM     31  C   LIG A   1     -10.040   1.500 124.412  0.00  0.00    +0.202 A 
ENDBRANCH   6  27
BRANCH  26  32
ATOM     32  O   LIG A   1      -7.826   0.696 131.542  0.00  0.00    -0.379 OA
ATOM     33  C   LIG A   1      -9.163   0.261 131.757  0.00  0.00    +0.194 C 
ENDBRANCH  26  32
BRANCH  19  34
ATOM     34  O   LIG A   1      -4.042   5.164 128.307  0.00  0.00    -0.461 OA
BRANCH  34  35
ATOM     35  C   LIG A   1      -3.588   6.411 128.620  0.00  0.00    +0.304 C 
ATOM     36  O   LIG A   1      -4.277   7.415 128.720  0.00  0.00    -0.251 OA
ATOM     37  C   LIG A   1      -2.102   6.376 128.810  0.00  0.00    +0.136 C 
ENDBRANCH  34  35
ENDBRANCH  19  34
TORSDOF 4
ENDMDL
MODEL 3
REMARK VINA RESULT:      -8.3      2.000      7.163
REMARK  Name = NuBBE_1609
REMARK  11 active torsions:
REMARK  status: ('A' for Active; 'I' for Inactive)
REMARK    1  A    between atoms: C_1  and  C_2
REMARK    2  A    between atoms: C_4  and  C_5
REMARK    3  A    between atoms: C_6  and  C_14
REMARK    4  A    between atoms: C_23  and  C_24
REMARK    5  A    between atoms: C_28  and  O_30
REMARK    6  A    between atoms: O_30  and  C_31
REMARK    7  A    between atoms: C_31  and  C_33
REMARK    8  A    between atoms: C_34  and  C_35
REMARK    9  A    between atoms: C_34  and  C_36
REMARK   10  A    between atoms: C_40  and  O_42
REMARK   11  A    between atoms: O_42  and  C_43
REMARK                            x       y       z     vdW  Elec       q    Type
REMARK                         _______ _______ _______ _____ _____    ______ ____
ROOT
ATOM      1  C   LIG A   1      -7.550  -2.361 128.855  0.00  0.00    +0.018 C 
ATOM      2  C   LIG A   1      -6.631  -1.223 128.340  0.00  0.00    +0.041 C 
ATOM      3  C   LIG A   1      -6.636  -1.293 126.762  0.00  0.00    +0.125 C 
ATOM      4  C   LIG A   1      -7.887  -0.826 125.984  0.00  0.00    +0.042 C 
ATOM      5  C   LIG A   1      -9.040  -1.848 126.124  0.00  0.00    +0.018 C 
ATOM      6  C   LIG A   1      -7.502  -0.703 124.457  0.00  0.00    +0.218 C 
ATOM      7  O   LIG A   1      -7.019  -1.967 123.949  0.00  0.00    -0.454 OA
ATOM      8  C   LIG A   1      -6.020  -2.628 124.597  0.00  0.00    +0.340 C 
ATOM      9  O   LIG A   1      -5.451  -3.588 124.104  0.00  0.00    -0.248 OA
ATOM     10  C   LIG A   1      -5.711  -2.213 125.987  0.00  0.00    +0.260 C 
ATOM     11  O   LIG A   1      -5.404  -0.822 126.181  0.00  0.00    -0.351 OA
ATOM     12  C   LIG A   1      -8.310   0.552 126.521  0.00  0.00    +0.014 C 
ATOM     13  C   LIG A   1      -8.415   0.631 128.043  0.00  0.00    +0.006 C 
ATOM     14  C   LIG A   1      -7.098   0.242 128.754  0.00  0.00    +0.010 C 
ATOM     15  C   LIG A   1      -7.050   0.572 130.330  0.00  0.00    +0.002 C 
ATOM     16  C   LIG A   1      -8.096  -0.279 131.092  0.00  0.00    +0.014 C 
ATOM     17  C   LIG A   1      -5.564   0.306 130.788  0.00  0.00    +0.014 C 
ATOM     18  C   LIG A   1      -5.111  -1.118 130.446  0.00  0.00    +0.050 C 
ATOM     19  C   LIG A   1      -5.195  -1.461 128.948  0.00  0.00    +0.186 C 
ATOM     20  C   LIG A   1      -5.195   0.718 132.255  0.00  0.00    +0.027 C 
ATOM     21  C   LIG A   1      -5.861  -0.109 133.367  0.00  0.00    +0.019 C 
ATOM     22  C   LIG A   1      -3.665   0.615 132.481  0.00  0.00    +0.019 C 
ATOM     23  C   LIG A   1      -5.599   2.182 132.418  0.00  0.00    +0.142 C 
ATOM     24  O   LIG A   1      -4.857   3.025 132.927  0.00  0.00    -0.297 OA
ATOM     25  C   LIG A   1      -6.996   2.562 132.021  0.00  0.00    +0.107 C 
ATOM     26  C   LIG A   1      -7.372   2.099 130.609  0.00  0.00    +0.131 C 
ENDROOT
BRANCH   6  27
ATOM     27  C   LIG A   1      -8.620  -0.215 123.565  0.00  0.00    +0.031 A 
ATOM     28  C   LIG A   1      -9.022   1.134 123.323  0.00  0.00    +0.048 A 
ATOM     29  C   LIG A   1     -10.083   1.081 122.452  0.00  0.00    +0.195 A 
ATOM     30  O   LIG A   1     -10.371  -0.207 122.139  0.00  0.00    -0.471 OA
ATOM     31  C   LIG A   1      -9.492  -0.985 122.818  0.00  0.00    +0.202 A 
ENDBRANCH   6  27
BRANCH  26  32
ATOM     32  O   LIG A   1      -8.782   2.311 130.417  0.00  0.00    -0.379 OA
ATOM     33  C   LIG A   1      -9.165   3.665 130.214  0.00  0.00    +0.194 C 
ENDBRANCH  26  32
BRANCH  19  34
ATOM     34  O   LIG A   1      -4.849  -2.867 128.842  0.00  0.00    -0.461 OA
BRANCH  34  35
ATOM     35  C   LIG A   1      -3.866  -3.336 129.660  0.00  0.00    +0.304 C 
ATOM     36  O   LIG A   1      -2.673  -3.091 129.552  0.00  0.00    -0.251 OA
ATOM     37  C   LIG A   1      -4.461  -4.219 130.714  0.00  0.00    +0.136 C 
ENDBRANCH  34  35
ENDBRANCH  19  34
TORSDOF 4
ENDMDL
MODEL 4
REMARK VINA RESULT:      -8.0      1.901      3.406
REMARK  Name = NuBBE_1609
REMARK  11 active torsions:
REMARK  status: ('A' for Active; 'I' for Inactive)
REMARK    1  A    between atoms: C_1  and  C_2
REMARK    2  A    between atoms: C_4  and  C_5
REMARK    3  A    between atoms: C_6  and  C_14
REMARK    4  A    between atoms: C_23  and  C_24
REMARK    5  A    between atoms: C_28  and  O_30
REMARK    6  A    between atoms: O_30  and  C_31
REMARK    7  A    between atoms: C_31  and  C_33
REMARK    8  A    between atoms: C_34  and  C_35
REMARK    9  A    between atoms: C_34  and  C_36
REMARK   10  A    between atoms: C_40  and  O_42
REMARK   11  A    between atoms: O_42  and  C_43
REMARK                            x       y       z     vdW  Elec       q    Type
REMARK                         _______ _______ _______ _____ _____    ______ ____
ROOT
ATOM      1  C   LIG A   1      -5.962   2.230 130.532  0.00  0.00    +0.018 C 
ATOM      2  C   LIG A   1      -7.359   1.606 130.782  0.00  0.00    +0.041 C 
ATOM      3  C   LIG A   1      -8.219   2.678 131.561  0.00  0.00    +0.125 C 
ATOM      4  C   LIG A   1      -8.752   3.917 130.808  0.00  0.00    +0.042 C 
ATOM      5  C   LIG A   1      -7.610   4.917 130.510  0.00  0.00    +0.018 C 
ATOM      6  C   LIG A   1      -9.821   4.631 131.726  0.00  0.00    +0.218 C 
ATOM      7  O   LIG A   1      -9.238   5.007 132.994  0.00  0.00    -0.454 OA
ATOM      8  C   LIG A   1      -8.572   4.083 133.741  0.00  0.00    +0.340 C 
ATOM      9  O   LIG A   1      -8.236   4.301 134.894  0.00  0.00    -0.248 OA
ATOM     10  C   LIG A   1      -8.159   2.826 133.070  0.00  0.00    +0.260 C 
ATOM     11  O   LIG A   1      -9.204   2.078 132.426  0.00  0.00    -0.351 OA
ATOM     12  C   LIG A   1      -9.422   3.448 129.507  0.00  0.00    +0.014 C 
ATOM     13  C   LIG A   1      -8.577   2.486 128.673  0.00  0.00    +0.006 C 
ATOM     14  C   LIG A   1      -8.158   1.223 129.460  0.00  0.00    +0.010 C 
ATOM     15  C   LIG A   1      -7.512   0.046 128.569  0.00  0.00    +0.002 C 
ATOM     16  C   LIG A   1      -6.168   0.509 127.956  0.00  0.00    +0.014 C 
ATOM     17  C   LIG A   1      -7.376  -1.202 129.523  0.00  0.00    +0.014 C 
ATOM     18  C   LIG A   1      -6.563  -0.869 130.780  0.00  0.00    +0.050 C 
ATOM     19  C   LIG A   1      -7.145   0.284 131.617  0.00  0.00    +0.186 C 
ATOM     20  C   LIG A   1      -6.930  -2.551 128.860  0.00  0.00    +0.027 C 
ATOM     21  C   LIG A   1      -5.487  -2.589 128.332  0.00  0.00    +0.019 C 
ATOM     22  C   LIG A   1      -7.065  -3.723 129.865  0.00  0.00    +0.019 C 
ATOM     23  C   LIG A   1      -7.889  -2.810 127.700  0.00  0.00    +0.142 C 
ATOM     24  O   LIG A   1      -8.421  -3.906 127.508  0.00  0.00    -0.297 OA
ATOM     25  C   LIG A   1      -8.099  -1.698 126.714  0.00  0.00    +0.107 C 
ATOM     26  C   LIG A   1      -8.472  -0.366 127.375  0.00  0.00    +0.131 C 
ENDROOT
BRANCH   6  27
ATOM     27  C   LIG A   1     -10.467   5.849 131.108  0.00  0.00    +0.031 A 
ATOM     28  C   LIG A   1     -11.856   6.180 131.069  0.00  0.00    +0.048 A 
ATOM     29  C   LIG A   1     -11.961   7.373 130.397  0.00  0.00    +0.195 A 
ATOM     30  O   LIG A   1     -10.735   7.805 130.012  0.00  0.00    -0.471 OA
ATOM     31  C   LIG A   1      -9.838   6.880 130.435  0.00  0.00    +0.202 A 
ENDBRANCH   6  27
BRANCH  26  32
ATOM     32  O   LIG A   1      -8.429   0.670 126.378  0.00  0.00    -0.379 OA
ATOM     33  C   LIG A   1      -9.516   0.666 125.460  0.00  0.00    +0.194 C 
ENDBRANCH  26  32
BRANCH  19  34
ATOM     34  O   LIG A   1      -6.186   0.530 132.679  0.00  0.00    -0.461 OA
BRANCH  34  35
ATOM     35  C   LIG A   1      -6.090  -0.404 133.667  0.00  0.00    +0.304 C 
ATOM     36  O   LIG A   1      -7.031  -0.940 134.233  0.00  0.00    -0.251 OA
ATOM     37  C   LIG A   1      -4.648  -0.670 133.975  0.00  0.00    +0.136 C 
ENDBRANCH  34  35
ENDBRANCH  19  34
TORSDOF 4
ENDMDL
MODEL 5
REMARK VINA RESULT:      -8.0      4.314      7.451
REMARK  Name = NuBBE_1609
REMARK  11 active torsions:
REMARK  status: ('A' for Active; 'I' for Inactive)
REMARK    1  A    between atoms: C_1  and  C_2
REMARK    2  A    between atoms: C_4  and  C_5
REMARK    3  A    between atoms: C_6  and  C_14
REMARK    4  A    between atoms: C_23  and  C_24
REMARK    5  A    between atoms: C_28  and  O_30
REMARK    6  A    between atoms: O_30  and  C_31
REMARK    7  A    between atoms: C_31  and  C_33
REMARK    8  A    between atoms: C_34  and  C_35
REMARK    9  A    between atoms: C_34  and  C_36
REMARK   10  A    between atoms: C_40  and  O_42
REMARK   11  A    between atoms: O_42  and  C_43
REMARK                            x       y       z     vdW  Elec       q    Type
REMARK                         _______ _______ _______ _____ _____    ______ ____
ROOT
ATOM      1  C   LIG A   1      -6.131   2.991 130.850  0.00  0.00    +0.018 C 
ATOM      2  C   LIG A   1      -4.706   2.615 130.369  0.00  0.00    +0.041 C 
ATOM      3  C   LIG A   1      -3.943   3.964 130.062  0.00  0.00    +0.125 C 
ATOM      4  C   LIG A   1      -3.466   4.851 131.234  0.00  0.00    +0.042 C 
ATOM      5  C   LIG A   1      -4.659   5.572 131.904  0.00  0.00    +0.018 C 
ATOM      6  C   LIG A   1      -2.476   5.939 130.659  0.00  0.00    +0.218 C 
ATOM      7  O   LIG A   1      -3.124   6.733 129.640  0.00  0.00    -0.454 OA
ATOM      8  C   LIG A   1      -3.754   6.125 128.598  0.00  0.00    +0.340 C 
ATOM      9  O   LIG A   1      -4.141   6.747 127.622  0.00  0.00    -0.248 OA
ATOM     10  C   LIG A   1      -4.062   4.680 128.730  0.00  0.00    +0.260 C 
ATOM     11  O   LIG A   1      -2.950   3.819 129.027  0.00  0.00    -0.351 OA
ATOM     12  C   LIG A   1      -2.723   3.964 132.247  0.00  0.00    +0.014 C 
ATOM     13  C   LIG A   1      -3.477   2.696 132.647  0.00  0.00    +0.006 C 
ATOM     14  C   LIG A   1      -3.840   1.809 131.433  0.00  0.00    +0.010 C 
ATOM     15  C   LIG A   1      -4.379   0.336 131.801  0.00  0.00    +0.002 C 
ATOM     16  C   LIG A   1      -5.729   0.427 132.554  0.00  0.00    +0.014 C 
ATOM     17  C   LIG A   1      -4.467  -0.452 130.438  0.00  0.00    +0.014 C 
ATOM     18  C   LIG A   1      -5.340   0.282 129.414  0.00  0.00    +0.050 C 
ATOM     19  C   LIG A   1      -4.862   1.708 129.088  0.00  0.00    +0.186 C 
ATOM     20  C   LIG A   1      -4.802  -1.981 130.528  0.00  0.00    +0.027 C 
ATOM     21  C   LIG A   1      -6.222  -2.324 131.008  0.00  0.00    +0.019 C 
ATOM     22  C   LIG A   1      -4.626  -2.659 129.145  0.00  0.00    +0.019 C 
ATOM     23  C   LIG A   1      -3.790  -2.599 131.490  0.00  0.00    +0.142 C 
ATOM     24  O   LIG A   1      -3.183  -3.642 131.238  0.00  0.00    -0.297 OA
ATOM     25  C   LIG A   1      -3.619  -1.942 132.829  0.00  0.00    +0.107 C 
ATOM     26  C   LIG A   1      -3.355  -0.436 132.735  0.00  0.00    +0.131 C 
ENDROOT
BRANCH   6  27
ATOM     27  C   LIG A   1      -1.889   6.866 131.699  0.00  0.00    +0.031 A 
ATOM     28  C   LIG A   1      -0.640   6.739 132.381  0.00  0.00    +0.048 A 
ATOM     29  C   LIG A   1      -0.543   7.812 133.233  0.00  0.00    +0.195 A 
ATOM     30  O   LIG A   1      -1.647   8.594 133.132  0.00  0.00    -0.471 OA
ATOM     31  C   LIG A   1      -2.458   8.017 132.212  0.00  0.00    +0.202 A 
ENDBRANCH   6  27
BRANCH  26  32
ATOM     32  O   LIG A   1      -3.431   0.127 134.057  0.00  0.00    -0.379 OA
ATOM     33  C   LIG A   1      -3.198  -0.793 135.116  0.00  0.00    +0.194 C 
ENDBRANCH  26  32
BRANCH  19  34
ATOM     34  O   LIG A   1      -5.870   2.275 128.210  0.00  0.00    -0.461 OA
BRANCH  34  35
ATOM     35  C   LIG A   1      -5.902   1.833 126.921  0.00  0.00    +0.304 C 
ATOM     36  O   LIG A   1      -6.879   1.373 126.351  0.00  0.00    -0.251 OA
ATOM     37  C   LIG A   1      -4.545   1.978 126.302  0.00  0.00    +0.136 C 
ENDBRANCH  34  35
ENDBRANCH  19  34
TORSDOF 4
ENDMDL
MODEL 6
REMARK VINA RESULT:      -8.0      1.831      7.926
REMARK  Name = NuBBE_1609
REMARK  11 active torsions:
REMARK  status: ('A' for Active; 'I' for Inactive)
REMARK    1  A    between atoms: C_1  and  C_2
REMARK    2  A    between atoms: C_4  and  C_5
REMARK    3  A    between atoms: C_6  and  C_14
REMARK    4  A    between atoms: C_23  and  C_24
REMARK    5  A    between atoms: C_28  and  O_30
REMARK    6  A    between atoms: O_30  and  C_31
REMARK    7  A    between atoms: C_31  and  C_33
REMARK    8  A    between atoms: C_34  and  C_35
REMARK    9  A    between atoms: C_34  and  C_36
REMARK   10  A    between atoms: C_40  and  O_42
REMARK   11  A    between atoms: O_42  and  C_43
REMARK                            x       y       z     vdW  Elec       q    Type
REMARK                         _______ _______ _______ _____ _____    ______ ____
ROOT
ATOM      1  C   LIG A   1      -5.101   1.488 128.090  0.00  0.00    +0.018 C 
ATOM      2  C   LIG A   1      -6.510   1.176 128.656  0.00  0.00    +0.041 C 
ATOM      3  C   LIG A   1      -7.498   1.081 127.427  0.00  0.00    +0.125 C 
ATOM      4  C   LIG A   1      -7.442  -0.156 126.501  0.00  0.00    +0.042 C 
ATOM      5  C   LIG A   1      -6.184  -0.117 125.602  0.00  0.00    +0.018 C 
ATOM      6  C   LIG A   1      -8.724  -0.140 125.578  0.00  0.00    +0.218 C 
ATOM      7  O   LIG A   1      -8.784   1.082 124.807  0.00  0.00    -0.454 OA
ATOM      8  C   LIG A   1      -8.682   2.289 125.429  0.00  0.00    +0.340 C 
ATOM      9  O   LIG A   1      -8.921   3.338 124.854  0.00  0.00    -0.248 OA
ATOM     10  C   LIG A   1      -8.157   2.304 126.817  0.00  0.00    +0.260 C 
ATOM     11  O   LIG A   1      -8.845   1.470 127.765  0.00  0.00    -0.351 OA
ATOM     12  C   LIG A   1      -7.453  -1.421 127.375  0.00  0.00    +0.014 C 
ATOM     13  C   LIG A   1      -6.438  -1.408 128.516  0.00  0.00    +0.006 C 
ATOM     14  C   LIG A   1      -6.612  -0.194 129.458  0.00  0.00    +0.010 C 
ATOM     15  C   LIG A   1      -5.768  -0.267 130.828  0.00  0.00    +0.002 C 
ATOM     16  C   LIG A   1      -4.249  -0.232 130.529  0.00  0.00    +0.014 C 
ATOM     17  C   LIG A   1      -6.266   0.939 131.714  0.00  0.00    +0.014 C 
ATOM     18  C   LIG A   1      -6.127   2.278 130.979  0.00  0.00    +0.050 C 
ATOM     19  C   LIG A   1      -6.892   2.344 129.645  0.00  0.00    +0.186 C 
ATOM     20  C   LIG A   1      -5.727   1.003 133.185  0.00  0.00    +0.027 C 
ATOM     21  C   LIG A   1      -4.226   1.299 133.332  0.00  0.00    +0.019 C 
ATOM     22  C   LIG A   1      -6.475   2.094 133.992  0.00  0.00    +0.019 C 
ATOM     23  C   LIG A   1      -6.030  -0.350 133.825  0.00  0.00    +0.142 C 
ATOM     24  O   LIG A   1      -6.535  -0.459 134.945  0.00  0.00    -0.297 OA
ATOM     25  C   LIG A   1      -5.598  -1.580 133.080  0.00  0.00    +0.107 C 
ATOM     26  C   LIG A   1      -6.075  -1.604 131.624  0.00  0.00    +0.131 C 
ENDROOT
BRANCH   6  27
ATOM     27  C   LIG A   1      -8.834  -1.316 124.635  0.00  0.00    +0.031 A 
ATOM     28  C   LIG A   1      -9.241  -2.650 124.942  0.00  0.00    +0.048 A 
ATOM     29  C   LIG A   1      -9.176  -3.364 123.771  0.00  0.00    +0.195 A 
ATOM     30  O   LIG A   1      -8.752  -2.568 122.758  0.00  0.00    -0.471 OA
ATOM     31  C   LIG A   1      -8.540  -1.337 123.284  0.00  0.00    +0.202 A 
ENDBRANCH   6  27
BRANCH  26  32
ATOM     32  O   LIG A   1      -5.426  -2.696 130.947  0.00  0.00    -0.379 OA
ATOM     33  C   LIG A   1      -6.002  -3.976 131.183  0.00  0.00    +0.194 C 
ENDBRANCH  26  32
BRANCH  19  34
ATOM     34  O   LIG A   1      -6.544   3.621 129.049  0.00  0.00    -0.461 OA
BRANCH  34  35
ATOM     35  C   LIG A   1      -7.116   4.739 129.578  0.00  0.00    +0.304 C 
ATOM     36  O   LIG A   1      -6.517   5.733 129.958  0.00  0.00    -0.251 OA
ATOM     37  C   LIG A   1      -8.603   4.564 129.643  0.00  0.00    +0.136 C 
ENDBRANCH  34  35
ENDBRANCH  19  34
TORSDOF 4
ENDMDL
MODEL 7
REMARK VINA RESULT:      -7.8      2.291      4.883
REMARK  Name = NuBBE_1609
REMARK  11 active torsions:
REMARK  status: ('A' for Active; 'I' for Inactive)
REMARK    1  A    between atoms: C_1  and  C_2
REMARK    2  A    between atoms: C_4  and  C_5
REMARK    3  A    between atoms: C_6  and  C_14
REMARK    4  A    between atoms: C_23  and  C_24
REMARK    5  A    between atoms: C_28  and  O_30
REMARK    6  A    between atoms: O_30  and  C_31
REMARK    7  A    between atoms: C_31  and  C_33
REMARK    8  A    between atoms: C_34  and  C_35
REMARK    9  A    between atoms: C_34  and  C_36
REMARK   10  A    between atoms: C_40  and  O_42
REMARK   11  A    between atoms: O_42  and  C_43
REMARK                            x       y       z     vdW  Elec       q    Type
REMARK                         _______ _______ _______ _____ _____    ______ ____
ROOT
ATOM      1  C   LIG A   1      -5.180   2.328 131.511  0.00  0.00    +0.018 C 
ATOM      2  C   LIG A   1      -6.450   1.522 131.888  0.00  0.00    +0.041 C 
ATOM      3  C   LIG A   1      -7.537   2.561 132.374  0.00  0.00    +0.125 C 
ATOM      4  C   LIG A   1      -8.244   3.462 131.336  0.00  0.00    +0.042 C 
ATOM      5  C   LIG A   1      -7.291   4.564 130.818  0.00  0.00    +0.018 C 
ATOM      6  C   LIG A   1      -9.479   4.151 132.041  0.00  0.00    +0.218 C 
ATOM      7  O   LIG A   1      -9.050   4.920 133.187  0.00  0.00    -0.454 OA
ATOM      8  C   LIG A   1      -8.269   4.346 134.143  0.00  0.00    +0.340 C 
ATOM      9  O   LIG A   1      -8.047   4.889 135.213  0.00  0.00    -0.248 OA
ATOM     10  C   LIG A   1      -7.594   3.070 133.802  0.00  0.00    +0.260 C 
ATOM     11  O   LIG A   1      -8.444   2.003 133.346  0.00  0.00    -0.351 OA
ATOM     12  C   LIG A   1      -8.740   2.578 130.179  0.00  0.00    +0.014 C 
ATOM     13  C   LIG A   1      -7.685   1.629 129.614  0.00  0.00    +0.006 C 
ATOM     14  C   LIG A   1      -7.087   0.692 130.689  0.00  0.00    +0.010 C 
ATOM     15  C   LIG A   1      -6.184  -0.514 130.117  0.00  0.00    +0.002 C 
ATOM     16  C   LIG A   1      -4.914   0.042 129.427  0.00  0.00    +0.014 C 
ATOM     17  C   LIG A   1      -5.876  -1.452 131.347  0.00  0.00    +0.014 C 
ATOM     18  C   LIG A   1      -5.213  -0.681 132.496  0.00  0.00    +0.050 C 
ATOM     19  C   LIG A   1      -6.045   0.502 133.021  0.00  0.00    +0.186 C 
ATOM     20  C   LIG A   1      -5.151  -2.807 131.036  0.00  0.00    +0.027 C 
ATOM     21  C   LIG A   1      -3.697  -2.689 130.550  0.00  0.00    +0.019 C 
ATOM     22  C   LIG A   1      -5.126  -3.712 132.294  0.00  0.00    +0.019 C 
ATOM     23  C   LIG A   1      -5.977  -3.512 129.962  0.00  0.00    +0.142 C 
ATOM     24  O   LIG A   1      -6.285  -4.704 130.035  0.00  0.00    -0.297 OA
ATOM     25  C   LIG A   1      -6.330  -2.725 128.734  0.00  0.00    +0.107 C 
ATOM     26  C   LIG A   1      -6.980  -1.373 129.048  0.00  0.00    +0.131 C 
ENDROOT
BRANCH   6  27
ATOM     27  C   LIG A   1     -10.301   5.041 131.138  0.00  0.00    +0.031 A 
ATOM     28  C   LIG A   1     -10.265   6.466 131.042  0.00  0.00    +0.048 A 
ATOM     29  C   LIG A   1     -11.193   6.823 130.094  0.00  0.00    +0.195 A 
ATOM     30  O   LIG A   1     -11.806   5.720 129.597  0.00  0.00    -0.471 OA
ATOM     31  C   LIG A   1     -11.271   4.649 130.234  0.00  0.00    +0.202 A 
ENDBRANCH   6  27
BRANCH  26  32
ATOM     32  O   LIG A   1      -7.071  -0.613 127.829  0.00  0.00    -0.379 OA
ATOM     33  C   LIG A   1      -7.563  -1.335 126.707  0.00  0.00    +0.194 C 
ENDBRANCH  26  32
BRANCH  19  34
ATOM     34  O   LIG A   1      -5.212   1.171 134.003  0.00  0.00    -0.461 OA
BRANCH  34  35
ATOM     35  C   LIG A   1      -5.311   0.757 135.298  0.00  0.00    +0.304 C 
ATOM     36  O   LIG A   1      -6.033  -0.141 135.704  0.00  0.00    -0.251 OA
ATOM     37  C   LIG A   1      -4.409   1.581 136.164  0.00  0.00    +0.136 C 
ENDBRANCH  34  35
ENDBRANCH  19  34
TORSDOF 4
ENDMDL
MODEL 8
REMARK VINA RESULT:      -7.8      3.304      7.322
REMARK  Name = NuBBE_1609
REMARK  11 active torsions:
REMARK  status: ('A' for Active; 'I' for Inactive)
REMARK    1  A    between atoms: C_1  and  C_2
REMARK    2  A    between atoms: C_4  and  C_5
REMARK    3  A    between atoms: C_6  and  C_14
REMARK    4  A    between atoms: C_23  and  C_24
REMARK    5  A    between atoms: C_28  and  O_30
REMARK    6  A    between atoms: O_30  and  C_31
REMARK    7  A    between atoms: C_31  and  C_33
REMARK    8  A    between atoms: C_34  and  C_35
REMARK    9  A    between atoms: C_34  and  C_36
REMARK   10  A    between atoms: C_40  and  O_42
REMARK   11  A    between atoms: O_42  and  C_43
REMARK                            x       y       z     vdW  Elec       q    Type
REMARK                         _______ _______ _______ _____ _____    ______ ____
ROOT
ATOM      1  C   LIG A   1      -6.891   2.401 131.604  0.00  0.00    +0.018 C 
ATOM      2  C   LIG A   1      -5.588   1.895 130.934  0.00  0.00    +0.041 C 
ATOM      3  C   LIG A   1      -5.750   0.339 130.710  0.00  0.00    +0.125 C 
ATOM      4  C   LIG A   1      -6.690  -0.174 129.596  0.00  0.00    +0.042 C 
ATOM      5  C   LIG A   1      -8.173   0.015 129.993  0.00  0.00    +0.018 C 
ATOM      6  C   LIG A   1      -6.415  -1.716 129.390  0.00  0.00    +0.218 C 
ATOM      7  O   LIG A   1      -6.626  -2.443 130.621  0.00  0.00    -0.454 OA
ATOM      8  C   LIG A   1      -6.009  -2.042 131.767  0.00  0.00    +0.340 C 
ATOM      9  O   LIG A   1      -6.000  -2.729 132.774  0.00  0.00    -0.248 OA
ATOM     10  C   LIG A   1      -5.433  -0.675 131.793  0.00  0.00    +0.260 C 
ATOM     11  O   LIG A   1      -4.492  -0.363 130.752  0.00  0.00    -0.351 OA
ATOM     12  C   LIG A   1      -6.369   0.584 128.298  0.00  0.00    +0.014 C 
ATOM     13  C   LIG A   1      -6.304   2.102 128.454  0.00  0.00    +0.006 C 
ATOM     14  C   LIG A   1      -5.275   2.550 129.518  0.00  0.00    +0.010 C 
ATOM     15  C   LIG A   1      -4.953   4.129 129.534  0.00  0.00    +0.002 C 
ATOM     16  C   LIG A   1      -6.212   4.933 129.940  0.00  0.00    +0.014 C 
ATOM     17  C   LIG A   1      -3.737   4.317 130.521  0.00  0.00    +0.014 C 
ATOM     18  C   LIG A   1      -4.037   3.739 131.908  0.00  0.00    +0.050 C 
ATOM     19  C   LIG A   1      -4.391   2.241 131.901  0.00  0.00    +0.186 C 
ATOM     20  C   LIG A   1      -3.102   5.749 130.591  0.00  0.00    +0.027 C 
ATOM     21  C   LIG A   1      -3.989   6.841 131.212  0.00  0.00    +0.019 C 
ATOM     22  C   LIG A   1      -1.789   5.723 131.415  0.00  0.00    +0.019 C 
ATOM     23  C   LIG A   1      -2.754   6.149 129.159  0.00  0.00    +0.142 C 
ATOM     24  O   LIG A   1      -1.665   6.637 128.850  0.00  0.00    -0.297 OA
ATOM     25  C   LIG A   1      -3.833   6.021 128.124  0.00  0.00    +0.107 C 
ATOM     26  C   LIG A   1      -4.493   4.638 128.104  0.00  0.00    +0.131 C 
ENDROOT
BRANCH   6  27
ATOM     27  C   LIG A   1      -7.237  -2.360 128.297  0.00  0.00    +0.031 A 
ATOM     28  C   LIG A   1      -8.392  -3.188 128.442  0.00  0.00    +0.048 A 
ATOM     29  C   LIG A   1      -8.788  -3.541 127.175  0.00  0.00    +0.195 A 
ATOM     30  O   LIG A   1      -7.957  -2.994 126.253  0.00  0.00    -0.471 OA
ATOM     31  C   LIG A   1      -7.020  -2.290 126.934  0.00  0.00    +0.202 A 
ENDBRANCH   6  27
BRANCH  26  32
ATOM     32  O   LIG A   1      -5.647   4.691 127.247  0.00  0.00    -0.379 OA
ATOM     33  C   LIG A   1      -5.365   4.628 125.854  0.00  0.00    +0.194 C 
ENDBRANCH  26  32
BRANCH  19  34
ATOM     34  O   LIG A   1      -4.758   1.912 133.267  0.00  0.00    -0.461 OA
BRANCH  34  35
ATOM     35  C   LIG A   1      -3.750   1.775 134.173  0.00  0.00    +0.304 C 
ATOM     36  O   LIG A   1      -3.643   2.396 135.219  0.00  0.00    -0.251 OA
ATOM     37  C   LIG A   1      -2.768   0.751 133.687  0.00  0.00    +0.136 C 
ENDBRANCH  34  35
ENDBRANCH  19  34
TORSDOF 4
ENDMDL
MODEL 9
REMARK VINA RESULT:      -7.7      2.250      7.997
REMARK  Name = NuBBE_1609
REMARK  11 active torsions:
REMARK  status: ('A' for Active; 'I' for Inactive)
REMARK    1  A    between atoms: C_1  and  C_2
REMARK    2  A    between atoms: C_4  and  C_5
REMARK    3  A    between atoms: C_6  and  C_14
REMARK    4  A    between atoms: C_23  and  C_24
REMARK    5  A    between atoms: C_28  and  O_30
REMARK    6  A    between atoms: O_30  and  C_31
REMARK    7  A    between atoms: C_31  and  C_33
REMARK    8  A    between atoms: C_34  and  C_35
REMARK    9  A    between atoms: C_34  and  C_36
REMARK   10  A    between atoms: C_40  and  O_42
REMARK   11  A    between atoms: O_42  and  C_43
REMARK                            x       y       z     vdW  Elec       q    Type
REMARK                         _______ _______ _______ _____ _____    ______ ____
ROOT
ATOM      1  C   LIG A   1      -5.204   2.591 129.368  0.00  0.00    +0.018 C 
ATOM      2  C   LIG A   1      -6.682   2.162 129.555  0.00  0.00    +0.041 C 
ATOM      3  C   LIG A   1      -6.782   0.636 129.156  0.00  0.00    +0.125 C 
ATOM      4  C   LIG A   1      -6.203  -0.437 130.105  0.00  0.00    +0.042 C 
ATOM      5  C   LIG A   1      -4.657  -0.434 130.066  0.00  0.00    +0.018 C 
ATOM      6  C   LIG A   1      -6.718  -1.851 129.624  0.00  0.00    +0.218 C 
ATOM      7  O   LIG A   1      -6.323  -2.102 128.257  0.00  0.00    -0.454 OA
ATOM      8  C   LIG A   1      -6.598  -1.187 127.287  0.00  0.00    +0.340 C 
ATOM      9  O   LIG A   1      -6.461  -1.438 126.101  0.00  0.00    -0.248 OA
ATOM     10  C   LIG A   1      -6.968   0.183 127.720  0.00  0.00    +0.260 C 
ATOM     11  O   LIG A   1      -8.077   0.283 128.630  0.00  0.00    -0.351 OA
ATOM     12  C   LIG A   1      -6.716  -0.159 131.528  0.00  0.00    +0.014 C 
ATOM     13  C   LIG A   1      -6.544   1.288 131.988  0.00  0.00    +0.006 C 
ATOM     14  C   LIG A   1      -7.228   2.302 131.043  0.00  0.00    +0.010 C 
ATOM     15  C   LIG A   1      -7.328   3.806 131.612  0.00  0.00    +0.002 C 
ATOM     16  C   LIG A   1      -5.915   4.416 131.776  0.00  0.00    +0.014 C 
ATOM     17  C   LIG A   1      -8.245   4.597 130.602  0.00  0.00    +0.014 C 
ATOM     18  C   LIG A   1      -7.708   4.519 129.168  0.00  0.00    +0.050 C 
ATOM     19  C   LIG A   1      -7.565   3.084 128.628  0.00  0.00    +0.186 C 
ATOM     20  C   LIG A   1      -8.653   6.054 131.012  0.00  0.00    +0.027 C 
ATOM     21  C   LIG A   1      -7.510   7.083 131.038  0.00  0.00    +0.019 C 
ATOM     22  C   LIG A   1      -9.729   6.611 130.046  0.00  0.00    +0.019 C 
ATOM     23  C   LIG A   1      -9.270   5.964 132.406  0.00  0.00    +0.142 C 
ATOM     24  O   LIG A   1     -10.328   6.523 132.703  0.00  0.00    -0.297 OA
ATOM     25  C   LIG A   1      -8.488   5.239 133.463  0.00  0.00    +0.107 C 
ATOM     26  C   LIG A   1      -8.038   3.840 133.030  0.00  0.00    +0.131 C 
ENDROOT
BRANCH   6  27
ATOM     27  C   LIG A   1      -6.265  -3.009 130.483  0.00  0.00    +0.031 A 
ATOM     28  C   LIG A   1      -5.363  -4.059 130.132  0.00  0.00    +0.048 A 
ATOM     29  C   LIG A   1      -5.265  -4.881 131.229  0.00  0.00    +0.195 A 
ATOM     30  O   LIG A   1      -6.046  -4.416 132.236  0.00  0.00    -0.471 OA
ATOM     31  C   LIG A   1      -6.653  -3.293 131.779  0.00  0.00    +0.202 A 
ENDBRANCH   6  27
BRANCH  26  32
ATOM     32  O   LIG A   1      -7.119   3.328 134.012  0.00  0.00    -0.379 OA
ATOM     33  C   LIG A   1      -6.847   4.208 135.096  0.00  0.00    +0.194 C 
ENDBRANCH  26  32
BRANCH  19  34
ATOM     34  O   LIG A   1      -6.935   3.210 127.326  0.00  0.00    -0.461 OA
BRANCH  34  35
ATOM     35  C   LIG A   1      -7.752   3.378 126.247  0.00  0.00    +0.304 C 
ATOM     36  O   LIG A   1      -8.804   2.789 126.053  0.00  0.00    -0.251 OA
ATOM     37  C   LIG A   1      -7.157   4.390 125.315  0.00  0.00    +0.136 C 
ENDBRANCH  34  35
ENDBRANCH  19  34
TORSDOF 4
ENDMDL
