MODEL 1
REMARK VINA RESULT:      -7.6      0.000      0.000
REMARK  Name = NuBBE_2020
REMARK  7 active torsions:
REMARK  status: ('A' for Active; 'I' for Inactive)
REMARK    1  A    between atoms: C_6  and  O_7
REMARK    2  A    between atoms: C_8  and  O_9
REMARK    3  A    between atoms: O_9  and  C_10
REMARK    4  A    between atoms: C_14  and  C_15
REMARK    5  A    between atoms: C_17  and  O_18
REMARK    6  A    between atoms: C_19  and  O_20
REMARK    7  A    between atoms: O_20  and  C_21
REMARK                            x       y       z     vdW  Elec       q    Type
REMARK                         _______ _______ _______ _____ _____    ______ ____
ROOT
ATOM      1  O   LIG A   1     -11.072   3.868 130.012  0.00  0.00    -0.286 OA
ATOM      2  C   LIG A   1     -10.357   4.252 130.939  0.00  0.00    +0.200 A 
ATOM      3  C   LIG A   1      -9.502   3.281 131.637  0.00  0.00    +0.068 A 
ATOM      4  C   LIG A   1      -9.496   1.945 131.228  0.00  0.00    +0.019 A 
ATOM      5  C   LIG A   1      -8.681   1.026 131.881  0.00  0.00    +0.050 A 
ATOM      6  C   LIG A   1      -7.868   1.443 132.940  0.00  0.00    +0.162 A 
ATOM      7  C   LIG A   1      -7.861   2.784 133.360  0.00  0.00    +0.205 A 
ATOM      8  C   LIG A   1      -8.704   3.701 132.699  0.00  0.00    +0.183 A 
ATOM      9  O   LIG A   1      -8.712   5.010 133.120  0.00  0.00    -0.458 OA
ATOM     10  C   LIG A   1      -9.493   5.915 132.436  0.00  0.00    +0.208 A 
ATOM     11  C   LIG A   1     -10.306   5.673 131.392  0.00  0.00    +0.064 A 
ENDROOT
BRANCH  11  12
ATOM     12  C   LIG A   1     -11.075   6.759 130.724  0.00  0.00    -0.008 A 
ATOM     13  C   LIG A   1     -10.607   7.351 129.539  0.00  0.00    +0.058 A 
ATOM     14  C   LIG A   1     -11.323   8.362 128.881  0.00  0.00    +0.159 A 
ATOM     15  C   LIG A   1     -12.531   8.825 129.403  0.00  0.00    +0.161 A 
ATOM     16  C   LIG A   1     -13.005   8.245 130.585  0.00  0.00    +0.050 A 
ATOM     17  C   LIG A   1     -12.295   7.226 131.234  0.00  0.00    +0.012 A 
BRANCH  14  18
ATOM     18  O   LIG A   1     -10.796   8.874 127.727  0.00  0.00    -0.503 OA
ATOM     19  H   LIG A   1      -9.885   8.552 127.624  0.00  0.00    +0.292 HD
ENDBRANCH  14  18
BRANCH  15  20
ATOM     20  O   LIG A   1     -13.353   9.802 128.912  0.00  0.00    -0.491 OA
ATOM     21  C   LIG A   1     -13.531  10.977 129.693  0.00  0.00    +0.277 C 
ENDBRANCH  15  20
ENDBRANCH  11  12
BRANCH   6  22
ATOM     22  O   LIG A   1      -7.109   0.494 133.567  0.00  0.00    -0.503 OA
ATOM     23  H   LIG A   1      -6.724   0.866 134.378  0.00  0.00    +0.292 HD
ENDBRANCH   6  22
BRANCH   7  24
ATOM     24  O   LIG A   1      -7.150   3.288 134.422  0.00  0.00    -0.488 OA
ATOM     25  C   LIG A   1      -5.779   3.595 134.201  0.00  0.00    +0.277 C 
ENDBRANCH   7  24
TORSDOF 5
ENDMDL
MODEL 2
REMARK VINA RESULT:      -7.4      0.962      2.290
REMARK  Name = NuBBE_2020
REMARK  7 active torsions:
REMARK  status: ('A' for Active; 'I' for Inactive)
REMARK    1  A    between atoms: C_6  and  O_7
REMARK    2  A    between atoms: C_8  and  O_9
REMARK    3  A    between atoms: O_9  and  C_10
REMARK    4  A    between atoms: C_14  and  C_15
REMARK    5  A    between atoms: C_17  and  O_18
REMARK    6  A    between atoms: C_19  and  O_20
REMARK    7  A    between atoms: O_20  and  C_21
REMARK                            x       y       z     vdW  Elec       q    Type
REMARK                         _______ _______ _______ _____ _____    ______ ____
ROOT
ATOM      1  O   LIG A   1      -9.186   6.464 132.652  0.00  0.00    -0.286 OA
ATOM      2  C   LIG A   1      -9.498   5.426 132.067  0.00  0.00    +0.200 A 
ATOM      3  C   LIG A   1      -8.881   4.156 132.477  0.00  0.00    +0.068 A 
ATOM      4  C   LIG A   1      -7.968   4.140 133.534  0.00  0.00    +0.019 A 
ATOM      5  C   LIG A   1      -7.390   2.938 133.930  0.00  0.00    +0.050 A 
ATOM      6  C   LIG A   1      -7.727   1.751 133.272  0.00  0.00    +0.162 A 
ATOM      7  C   LIG A   1      -8.647   1.751 132.208  0.00  0.00    +0.205 A 
ATOM      8  C   LIG A   1      -9.213   2.979 131.809  0.00  0.00    +0.183 A 
ATOM      9  O   LIG A   1     -10.099   2.984 130.758  0.00  0.00    -0.458 OA
ATOM     10  C   LIG A   1     -10.694   4.175 130.406  0.00  0.00    +0.208 A 
ATOM     11  C   LIG A   1     -10.490   5.387 130.953  0.00  0.00    +0.064 A 
ENDROOT
BRANCH  11  12
ATOM     12  C   LIG A   1     -11.229   6.595 130.492  0.00  0.00    -0.008 A 
ATOM     13  C   LIG A   1     -10.846   7.272 129.323  0.00  0.00    +0.058 A 
ATOM     14  C   LIG A   1     -11.539   8.401 128.858  0.00  0.00    +0.159 A 
ATOM     15  C   LIG A   1     -12.634   8.898 129.564  0.00  0.00    +0.161 A 
ATOM     16  C   LIG A   1     -13.022   8.232 130.733  0.00  0.00    +0.050 A 
ATOM     17  C   LIG A   1     -12.338   7.098 131.188  0.00  0.00    +0.012 A 
BRANCH  14  18
ATOM     18  O   LIG A   1     -11.101   8.991 127.704  0.00  0.00    -0.503 OA
ATOM     19  H   LIG A   1     -11.446   9.898 127.660  0.00  0.00    +0.292 HD
ENDBRANCH  14  18
BRANCH  15  20
ATOM     20  O   LIG A   1     -13.416   9.982 129.275  0.00  0.00    -0.491 OA
ATOM     21  C   LIG A   1     -13.420  11.065 130.195  0.00  0.00    +0.277 C 
ENDBRANCH  15  20
ENDBRANCH  11  12
BRANCH   6  22
ATOM     22  O   LIG A   1      -7.108   0.603 133.680  0.00  0.00    -0.503 OA
ATOM     23  H   LIG A   1      -6.206   0.571 133.320  0.00  0.00    +0.292 HD
ENDBRANCH   6  22
BRANCH   7  24
ATOM     24  O   LIG A   1      -9.003   0.658 131.457  0.00  0.00    -0.488 OA
ATOM     25  C   LIG A   1      -8.101   0.247 130.437  0.00  0.00    +0.277 C 
ENDBRANCH   7  24
TORSDOF 5
ENDMDL
MODEL 3
REMARK VINA RESULT:      -6.8      1.761      7.748
REMARK  Name = NuBBE_2020
REMARK  7 active torsions:
REMARK  status: ('A' for Active; 'I' for Inactive)
REMARK    1  A    between atoms: C_6  and  O_7
REMARK    2  A    between atoms: C_8  and  O_9
REMARK    3  A    between atoms: O_9  and  C_10
REMARK    4  A    between atoms: C_14  and  C_15
REMARK    5  A    between atoms: C_17  and  O_18
REMARK    6  A    between atoms: C_19  and  O_20
REMARK    7  A    between atoms: O_20  and  C_21
REMARK                            x       y       z     vdW  Elec       q    Type
REMARK                         _______ _______ _______ _____ _____    ______ ____
ROOT
ATOM      1  O   LIG A   1     -10.447   6.424 132.881  0.00  0.00    -0.286 OA
ATOM      2  C   LIG A   1     -10.215   6.227 131.687  0.00  0.00    +0.200 A 
ATOM      3  C   LIG A   1     -11.164   6.723 130.678  0.00  0.00    +0.068 A 
ATOM      4  C   LIG A   1     -12.300   7.429 131.085  0.00  0.00    +0.019 A 
ATOM      5  C   LIG A   1     -13.193   7.907 130.133  0.00  0.00    +0.050 A 
ATOM      6  C   LIG A   1     -12.950   7.686 128.773  0.00  0.00    +0.162 A 
ATOM      7  C   LIG A   1     -11.810   6.980 128.350  0.00  0.00    +0.205 A 
ATOM      8  C   LIG A   1     -10.921   6.488 129.327  0.00  0.00    +0.183 A 
ATOM      9  O   LIG A   1      -9.815   5.783 128.915  0.00  0.00    -0.458 OA
ATOM     10  C   LIG A   1      -8.918   5.352 129.868  0.00  0.00    +0.208 A 
ATOM     11  C   LIG A   1      -9.002   5.506 131.202  0.00  0.00    +0.064 A 
ENDROOT
BRANCH  11  12
ATOM     12  C   LIG A   1      -7.939   5.013 132.120  0.00  0.00    -0.008 A 
ATOM     13  C   LIG A   1      -7.986   3.712 132.647  0.00  0.00    +0.058 A 
ATOM     14  C   LIG A   1      -6.985   3.220 133.499  0.00  0.00    +0.159 A 
ATOM     15  C   LIG A   1      -5.908   4.027 133.864  0.00  0.00    +0.161 A 
ATOM     16  C   LIG A   1      -5.853   5.327 133.349  0.00  0.00    +0.050 A 
ATOM     17  C   LIG A   1      -6.846   5.813 132.488  0.00  0.00    +0.012 A 
BRANCH  14  18
ATOM     18  O   LIG A   1      -7.108   1.936 133.955  0.00  0.00    -0.503 OA
ATOM     19  H   LIG A   1      -6.245   1.493 133.896  0.00  0.00    +0.292 HD
ENDBRANCH  14  18
BRANCH  15  20
ATOM     20  O   LIG A   1      -4.856   3.726 134.686  0.00  0.00    -0.491 OA
ATOM     21  C   LIG A   1      -3.594   3.472 134.084  0.00  0.00    +0.277 C 
ENDBRANCH  15  20
ENDBRANCH  11  12
BRANCH   6  22
ATOM     22  O   LIG A   1     -13.875   8.151 127.880  0.00  0.00    -0.503 OA
ATOM     23  H   LIG A   1     -13.423   8.569 127.129  0.00  0.00    +0.292 HD
ENDBRANCH   6  22
BRANCH   7  24
ATOM     24  O   LIG A   1     -11.506   6.656 127.050  0.00  0.00    -0.488 OA
ATOM     25  C   LIG A   1     -10.920   7.672 126.244  0.00  0.00    +0.277 C 
ENDBRANCH   7  24
TORSDOF 5
ENDMDL
MODEL 4
REMARK VINA RESULT:      -6.8      8.940     11.506
REMARK  Name = NuBBE_2020
REMARK  7 active torsions:
REMARK  status: ('A' for Active; 'I' for Inactive)
REMARK    1  A    between atoms: C_6  and  O_7
REMARK    2  A    between atoms: C_8  and  O_9
REMARK    3  A    between atoms: O_9  and  C_10
REMARK    4  A    between atoms: C_14  and  C_15
REMARK    5  A    between atoms: C_17  and  O_18
REMARK    6  A    between atoms: C_19  and  O_20
REMARK    7  A    between atoms: O_20  and  C_21
REMARK                            x       y       z     vdW  Elec       q    Type
REMARK                         _______ _______ _______ _____ _____    ______ ____
ROOT
ATOM      1  O   LIG A   1      -9.117  -3.743 128.627  0.00  0.00    -0.286 OA
ATOM      2  C   LIG A   1      -8.107  -3.293 128.083  0.00  0.00    +0.200 A 
ATOM      3  C   LIG A   1      -8.135  -3.001 126.642  0.00  0.00    +0.068 A 
ATOM      4  C   LIG A   1      -9.309  -3.218 125.915  0.00  0.00    +0.019 A 
ATOM      5  C   LIG A   1      -9.340  -2.935 124.554  0.00  0.00    +0.050 A 
ATOM      6  C   LIG A   1      -8.201  -2.430 123.919  0.00  0.00    +0.162 A 
ATOM      7  C   LIG A   1      -7.014  -2.204 124.638  0.00  0.00    +0.205 A 
ATOM      8  C   LIG A   1      -6.993  -2.510 126.015  0.00  0.00    +0.183 A 
ATOM      9  O   LIG A   1      -5.828  -2.306 126.716  0.00  0.00    -0.458 OA
ATOM     10  C   LIG A   1      -5.825  -2.553 128.071  0.00  0.00    +0.208 A 
ATOM     11  C   LIG A   1      -6.841  -3.016 128.822  0.00  0.00    +0.064 A 
ENDROOT
BRANCH  11  12
ATOM     12  C   LIG A   1      -6.709  -3.209 130.293  0.00  0.00    -0.008 A 
ATOM     13  C   LIG A   1      -7.384  -2.369 131.194  0.00  0.00    +0.058 A 
ATOM     14  C   LIG A   1      -7.290  -2.543 132.583  0.00  0.00    +0.159 A 
ATOM     15  C   LIG A   1      -6.499  -3.560 133.116  0.00  0.00    +0.161 A 
ATOM     16  C   LIG A   1      -5.818  -4.401 132.227  0.00  0.00    +0.050 A 
ATOM     17  C   LIG A   1      -5.923  -4.234 130.840  0.00  0.00    +0.012 A 
BRANCH  14  18
ATOM     18  O   LIG A   1      -7.991  -1.684 133.385  0.00  0.00    -0.503 OA
ATOM     19  H   LIG A   1      -8.306  -0.936 132.851  0.00  0.00    +0.292 HD
ENDBRANCH  14  18
BRANCH  15  20
ATOM     20  O   LIG A   1      -6.278  -3.871 134.430  0.00  0.00    -0.491 OA
ATOM     21  C   LIG A   1      -6.759  -5.120 134.908  0.00  0.00    +0.277 C 
ENDBRANCH  15  20
ENDBRANCH  11  12
BRANCH   6  22
ATOM     22  O   LIG A   1      -8.276  -2.197 122.574  0.00  0.00    -0.503 OA
ATOM     23  H   LIG A   1      -7.669  -1.478 122.332  0.00  0.00    +0.292 HD
ENDBRANCH   6  22
BRANCH   7  24
ATOM     24  O   LIG A   1      -5.825  -1.769 124.106  0.00  0.00    -0.488 OA
ATOM     25  C   LIG A   1      -4.992  -2.745 123.489  0.00  0.00    +0.277 C 
ENDBRANCH   7  24
TORSDOF 5
ENDMDL
MODEL 5
REMARK VINA RESULT:      -6.7      9.147     11.683
REMARK  Name = NuBBE_2020
REMARK  7 active torsions:
REMARK  status: ('A' for Active; 'I' for Inactive)
REMARK    1  A    between atoms: C_6  and  O_7
REMARK    2  A    between atoms: C_8  and  O_9
REMARK    3  A    between atoms: O_9  and  C_10
REMARK    4  A    between atoms: C_14  and  C_15
REMARK    5  A    between atoms: C_17  and  O_18
REMARK    6  A    between atoms: C_19  and  O_20
REMARK    7  A    between atoms: O_20  and  C_21
REMARK                            x       y       z     vdW  Elec       q    Type
REMARK                         _______ _______ _______ _____ _____    ______ ____
ROOT
ATOM      1  O   LIG A   1      -4.953  -2.026 128.441  0.00  0.00    -0.286 OA
ATOM      2  C   LIG A   1      -6.085  -2.332 128.064  0.00  0.00    +0.200 A 
ATOM      3  C   LIG A   1      -6.471  -2.078 126.667  0.00  0.00    +0.068 A 
ATOM      4  C   LIG A   1      -5.544  -1.515 125.785  0.00  0.00    +0.019 A 
ATOM      5  C   LIG A   1      -5.904  -1.283 124.462  0.00  0.00    +0.050 A 
ATOM      6  C   LIG A   1      -7.188  -1.617 124.018  0.00  0.00    +0.162 A 
ATOM      7  C   LIG A   1      -8.129  -2.187 124.894  0.00  0.00    +0.205 A 
ATOM      8  C   LIG A   1      -7.755  -2.403 126.236  0.00  0.00    +0.183 A 
ATOM      9  O   LIG A   1      -8.680  -2.943 127.098  0.00  0.00    -0.458 OA
ATOM     10  C   LIG A   1      -8.294  -3.205 128.394  0.00  0.00    +0.208 A 
ATOM     11  C   LIG A   1      -7.098  -2.962 128.959  0.00  0.00    +0.064 A 
ENDROOT
BRANCH  11  12
ATOM     12  C   LIG A   1      -6.806  -3.327 130.373  0.00  0.00    -0.008 A 
ATOM     13  C   LIG A   1      -7.427  -2.651 131.436  0.00  0.00    +0.058 A 
ATOM     14  C   LIG A   1      -7.181  -2.990 132.776  0.00  0.00    +0.159 A 
ATOM     15  C   LIG A   1      -6.289  -4.013 133.093  0.00  0.00    +0.161 A 
ATOM     16  C   LIG A   1      -5.662  -4.691 132.042  0.00  0.00    +0.050 A 
ATOM     17  C   LIG A   1      -5.917  -4.360 130.705  0.00  0.00    +0.012 A 
BRANCH  14  18
ATOM     18  O   LIG A   1      -7.839  -2.283 133.746  0.00  0.00    -0.503 OA
ATOM     19  H   LIG A   1      -7.189  -1.918 134.369  0.00  0.00    +0.292 HD
ENDBRANCH  14  18
BRANCH  15  20
ATOM     20  O   LIG A   1      -5.919  -4.470 134.329  0.00  0.00    -0.491 OA
ATOM     21  C   LIG A   1      -6.677  -5.527 134.902  0.00  0.00    +0.277 C 
ENDBRANCH  15  20
ENDBRANCH  11  12
BRANCH   6  22
ATOM     22  O   LIG A   1      -7.499  -1.340 122.716  0.00  0.00    -0.503 OA
ATOM     23  H   LIG A   1      -8.455  -1.190 122.633  0.00  0.00    +0.292 HD
ENDBRANCH   6  22
BRANCH   7  24
ATOM     24  O   LIG A   1      -9.429  -2.496 124.580  0.00  0.00    -0.488 OA
ATOM     25  C   LIG A   1      -9.641  -3.504 123.598  0.00  0.00    +0.277 C 
ENDBRANCH   7  24
TORSDOF 5
ENDMDL
MODEL 6
REMARK VINA RESULT:      -6.7      7.383      9.493
REMARK  Name = NuBBE_2020
REMARK  7 active torsions:
REMARK  status: ('A' for Active; 'I' for Inactive)
REMARK    1  A    between atoms: C_6  and  O_7
REMARK    2  A    between atoms: C_8  and  O_9
REMARK    3  A    between atoms: O_9  and  C_10
REMARK    4  A    between atoms: C_14  and  C_15
REMARK    5  A    between atoms: C_17  and  O_18
REMARK    6  A    between atoms: C_19  and  O_20
REMARK    7  A    between atoms: O_20  and  C_21
REMARK                            x       y       z     vdW  Elec       q    Type
REMARK                         _______ _______ _______ _____ _____    ______ ____
ROOT
ATOM      1  O   LIG A   1      -6.530   4.346 124.161  0.00  0.00    -0.286 OA
ATOM      2  C   LIG A   1      -6.819   3.294 124.733  0.00  0.00    +0.200 A 
ATOM      3  C   LIG A   1      -7.862   2.428 124.163  0.00  0.00    +0.068 A 
ATOM      4  C   LIG A   1      -8.494   2.797 122.973  0.00  0.00    +0.019 A 
ATOM      5  C   LIG A   1      -9.473   1.975 122.427  0.00  0.00    +0.050 A 
ATOM      6  C   LIG A   1      -9.819   0.781 123.067  0.00  0.00    +0.162 A 
ATOM      7  C   LIG A   1      -9.190   0.395 124.264  0.00  0.00    +0.205 A 
ATOM      8  C   LIG A   1      -8.209   1.246 124.813  0.00  0.00    +0.183 A 
ATOM      9  O   LIG A   1      -7.605   0.878 125.992  0.00  0.00    -0.458 OA
ATOM     10  C   LIG A   1      -6.607   1.683 126.497  0.00  0.00    +0.208 A 
ATOM     11  C   LIG A   1      -6.152   2.842 125.989  0.00  0.00    +0.064 A 
ENDROOT
BRANCH  11  12
ATOM     12  C   LIG A   1      -5.039   3.599 126.626  0.00  0.00    -0.008 A 
ATOM     13  C   LIG A   1      -3.701   3.229 126.413  0.00  0.00    +0.058 A 
ATOM     14  C   LIG A   1      -2.635   3.939 126.988  0.00  0.00    +0.159 A 
ATOM     15  C   LIG A   1      -2.880   5.037 127.811  0.00  0.00    +0.161 A 
ATOM     16  C   LIG A   1      -4.210   5.412 128.033  0.00  0.00    +0.050 A 
ATOM     17  C   LIG A   1      -5.272   4.710 127.449  0.00  0.00    +0.012 A 
BRANCH  14  18
ATOM     18  O   LIG A   1      -1.363   3.513 126.717  0.00  0.00    -0.503 OA
ATOM     19  H   LIG A   1      -1.385   2.570 126.485  0.00  0.00    +0.292 HD
ENDBRANCH  14  18
BRANCH  15  20
ATOM     20  O   LIG A   1      -1.978   5.834 128.462  0.00  0.00    -0.491 OA
ATOM     21  C   LIG A   1      -2.266   6.209 129.802  0.00  0.00    +0.277 C 
ENDBRANCH  15  20
ENDBRANCH  11  12
BRANCH   6  22
ATOM     22  O   LIG A   1     -10.810   0.025 122.505  0.00  0.00    -0.503 OA
ATOM     23  H   LIG A   1     -11.386  -0.330 123.201  0.00  0.00    +0.292 HD
ENDBRANCH   6  22
BRANCH   7  24
ATOM     24  O   LIG A   1      -9.492  -0.722 125.004  0.00  0.00    -0.488 OA
ATOM     25  C   LIG A   1      -8.847  -1.938 124.643  0.00  0.00    +0.277 C 
ENDBRANCH   7  24
TORSDOF 5
ENDMDL
MODEL 7
REMARK VINA RESULT:      -6.7      2.370      3.732
REMARK  Name = NuBBE_2020
REMARK  7 active torsions:
REMARK  status: ('A' for Active; 'I' for Inactive)
REMARK    1  A    between atoms: C_6  and  O_7
REMARK    2  A    between atoms: C_8  and  O_9
REMARK    3  A    between atoms: O_9  and  C_10
REMARK    4  A    between atoms: C_14  and  C_15
REMARK    5  A    between atoms: C_17  and  O_18
REMARK    6  A    between atoms: C_19  and  O_20
REMARK    7  A    between atoms: O_20  and  C_21
REMARK                            x       y       z     vdW  Elec       q    Type
REMARK                         _______ _______ _______ _____ _____    ______ ____
ROOT
ATOM      1  O   LIG A   1      -6.960   7.423 130.636  0.00  0.00    -0.286 OA
ATOM      2  C   LIG A   1      -7.237   6.609 131.519  0.00  0.00    +0.200 A 
ATOM      3  C   LIG A   1      -6.158   6.056 132.351  0.00  0.00    +0.068 A 
ATOM      4  C   LIG A   1      -4.841   6.474 132.143  0.00  0.00    +0.019 A 
ATOM      5  C   LIG A   1      -3.820   5.959 132.935  0.00  0.00    +0.050 A 
ATOM      6  C   LIG A   1      -4.114   5.029 133.937  0.00  0.00    +0.162 A 
ATOM      7  C   LIG A   1      -5.435   4.601 134.159  0.00  0.00    +0.205 A 
ATOM      8  C   LIG A   1      -6.458   5.121 133.339  0.00  0.00    +0.183 A 
ATOM      9  O   LIG A   1      -7.748   4.690 133.543  0.00  0.00    -0.458 OA
ATOM     10  C   LIG A   1      -8.752   5.241 132.778  0.00  0.00    +0.208 A 
ATOM     11  C   LIG A   1      -8.630   6.154 131.798  0.00  0.00    +0.064 A 
ENDROOT
BRANCH  11  12
ATOM     12  C   LIG A   1      -9.813   6.690 131.069  0.00  0.00    -0.008 A 
ATOM     13  C   LIG A   1     -11.092   6.657 131.647  0.00  0.00    +0.058 A 
ATOM     14  C   LIG A   1     -12.218   7.173 130.986  0.00  0.00    +0.159 A 
ATOM     15  C   LIG A   1     -12.098   7.727 129.712  0.00  0.00    +0.161 A 
ATOM     16  C   LIG A   1     -10.828   7.761 129.125  0.00  0.00    +0.050 A 
ATOM     17  C   LIG A   1      -9.702   7.257 129.791  0.00  0.00    +0.012 A 
BRANCH  14  18
ATOM     18  O   LIG A   1     -13.424   7.108 131.630  0.00  0.00    -0.503 OA
ATOM     19  H   LIG A   1     -13.818   6.233 131.480  0.00  0.00    +0.292 HD
ENDBRANCH  14  18
BRANCH  15  20
ATOM     20  O   LIG A   1     -13.075   8.261 128.918  0.00  0.00    -0.491 OA
ATOM     21  C   LIG A   1     -13.593   7.456 127.867  0.00  0.00    +0.277 C 
ENDBRANCH  15  20
ENDBRANCH  11  12
BRANCH   6  22
ATOM     22  O   LIG A   1      -3.070   4.531 134.666  0.00  0.00    -0.503 OA
ATOM     23  H   LIG A   1      -3.403   4.148 135.494  0.00  0.00    +0.292 HD
ENDBRANCH   6  22
BRANCH   7  24
ATOM     24  O   LIG A   1      -5.827   3.652 135.071  0.00  0.00    -0.488 OA
ATOM     25  C   LIG A   1      -5.674   2.287 134.698  0.00  0.00    +0.277 C 
ENDBRANCH   7  24
TORSDOF 5
ENDMDL
MODEL 8
REMARK VINA RESULT:      -6.6      9.067     11.503
REMARK  Name = NuBBE_2020
REMARK  7 active torsions:
REMARK  status: ('A' for Active; 'I' for Inactive)
REMARK    1  A    between atoms: C_6  and  O_7
REMARK    2  A    between atoms: C_8  and  O_9
REMARK    3  A    between atoms: O_9  and  C_10
REMARK    4  A    between atoms: C_14  and  C_15
REMARK    5  A    between atoms: C_17  and  O_18
REMARK    6  A    between atoms: C_19  and  O_20
REMARK    7  A    between atoms: O_20  and  C_21
REMARK                            x       y       z     vdW  Elec       q    Type
REMARK                         _______ _______ _______ _____ _____    ______ ____
ROOT
ATOM      1  O   LIG A   1      -9.189  -3.708 128.573  0.00  0.00    -0.286 OA
ATOM      2  C   LIG A   1      -8.172  -3.261 128.040  0.00  0.00    +0.200 A 
ATOM      3  C   LIG A   1      -8.172  -3.005 126.592  0.00  0.00    +0.068 A 
ATOM      4  C   LIG A   1      -9.328  -3.250 125.846  0.00  0.00    +0.019 A 
ATOM      5  C   LIG A   1      -9.333  -3.000 124.478  0.00  0.00    +0.050 A 
ATOM      6  C   LIG A   1      -8.185  -2.500 123.855  0.00  0.00    +0.162 A 
ATOM      7  C   LIG A   1      -7.016  -2.245 124.594  0.00  0.00    +0.205 A 
ATOM      8  C   LIG A   1      -7.021  -2.518 125.977  0.00  0.00    +0.183 A 
ATOM      9  O   LIG A   1      -5.873  -2.286 126.698  0.00  0.00    -0.458 OA
ATOM     10  C   LIG A   1      -5.897  -2.500 128.058  0.00  0.00    +0.208 A 
ATOM     11  C   LIG A   1      -6.924  -2.955 128.799  0.00  0.00    +0.064 A 
ENDROOT
BRANCH  11  12
ATOM     12  C   LIG A   1      -6.822  -3.111 130.276  0.00  0.00    -0.008 A 
ATOM     13  C   LIG A   1      -6.021  -4.116 130.842  0.00  0.00    +0.058 A 
ATOM     14  C   LIG A   1      -5.894  -4.270 132.231  0.00  0.00    +0.159 A 
ATOM     15  C   LIG A   1      -6.584  -3.426 133.101  0.00  0.00    +0.161 A 
ATOM     16  C   LIG A   1      -7.388  -2.423 132.548  0.00  0.00    +0.050 A 
ATOM     17  C   LIG A   1      -7.503  -2.262 131.161  0.00  0.00    +0.012 A 
BRANCH  14  18
ATOM     18  O   LIG A   1      -5.084  -5.271 132.693  0.00  0.00    -0.503 OA
ATOM     19  H   LIG A   1      -5.584  -5.824 133.316  0.00  0.00    +0.292 HD
ENDBRANCH  14  18
BRANCH  15  20
ATOM     20  O   LIG A   1      -6.593  -3.434 134.469  0.00  0.00    -0.491 OA
ATOM     21  C   LIG A   1      -7.852  -3.376 135.127  0.00  0.00    +0.277 C 
ENDBRANCH  15  20
ENDBRANCH  11  12
BRANCH   6  22
ATOM     22  O   LIG A   1      -8.233  -2.299 122.504  0.00  0.00    -0.503 OA
ATOM     23  H   LIG A   1      -7.503  -1.719 122.232  0.00  0.00    +0.292 HD
ENDBRANCH   6  22
BRANCH   7  24
ATOM     24  O   LIG A   1      -5.819  -1.812 124.076  0.00  0.00    -0.488 OA
ATOM     25  C   LIG A   1      -4.967  -2.794 123.498  0.00  0.00    +0.277 C 
ENDBRANCH   7  24
TORSDOF 5
ENDMDL
MODEL 9
REMARK VINA RESULT:      -6.5      7.409      9.180
REMARK  Name = NuBBE_2020
REMARK  7 active torsions:
REMARK  status: ('A' for Active; 'I' for Inactive)
REMARK    1  A    between atoms: C_6  and  O_7
REMARK    2  A    between atoms: C_8  and  O_9
REMARK    3  A    between atoms: O_9  and  C_10
REMARK    4  A    between atoms: C_14  and  C_15
REMARK    5  A    between atoms: C_17  and  O_18
REMARK    6  A    between atoms: C_19  and  O_20
REMARK    7  A    between atoms: O_20  and  C_21
REMARK                            x       y       z     vdW  Elec       q    Type
REMARK                         _______ _______ _______ _____ _____    ______ ____
ROOT
ATOM      1  O   LIG A   1      -5.451  -0.039 128.428  0.00  0.00    -0.286 OA
ATOM      2  C   LIG A   1      -6.091   0.309 127.435  0.00  0.00    +0.200 A 
ATOM      3  C   LIG A   1      -7.148  -0.572 126.916  0.00  0.00    +0.068 A 
ATOM      4  C   LIG A   1      -7.425  -1.777 127.566  0.00  0.00    +0.019 A 
ATOM      5  C   LIG A   1      -8.431  -2.608 127.083  0.00  0.00    +0.050 A 
ATOM      6  C   LIG A   1      -9.163  -2.232 125.952  0.00  0.00    +0.162 A 
ATOM      7  C   LIG A   1      -8.897  -1.021 125.289  0.00  0.00    +0.205 A 
ATOM      8  C   LIG A   1      -7.865  -0.197 125.782  0.00  0.00    +0.183 A 
ATOM      9  O   LIG A   1      -7.592   0.980 125.124  0.00  0.00    -0.458 OA
ATOM     10  C   LIG A   1      -6.622   1.810 125.640  0.00  0.00    +0.208 A 
ATOM     11  C   LIG A   1      -5.853   1.599 126.724  0.00  0.00    +0.064 A 
ENDROOT
BRANCH  11  12
ATOM     12  C   LIG A   1      -4.857   2.603 127.191  0.00  0.00    -0.008 A 
ATOM     13  C   LIG A   1      -3.574   2.665 126.622  0.00  0.00    +0.058 A 
ATOM     14  C   LIG A   1      -2.626   3.614 127.033  0.00  0.00    +0.159 A 
ATOM     15  C   LIG A   1      -2.930   4.526 128.043  0.00  0.00    +0.161 A 
ATOM     16  C   LIG A   1      -4.204   4.471 128.620  0.00  0.00    +0.050 A 
ATOM     17  C   LIG A   1      -5.155   3.531 128.200  0.00  0.00    +0.012 A 
BRANCH  14  18
ATOM     18  O   LIG A   1      -1.404   3.607 126.416  0.00  0.00    -0.503 OA
ATOM     19  H   LIG A   1      -0.890   4.374 126.719  0.00  0.00    +0.292 HD
ENDBRANCH  14  18
BRANCH  15  20
ATOM     20  O   LIG A   1      -2.137   5.504 128.577  0.00  0.00    -0.491 OA
ATOM     21  C   LIG A   1      -2.344   6.841 128.140  0.00  0.00    +0.277 C 
ENDBRANCH  15  20
ENDBRANCH  11  12
BRANCH   6  22
ATOM     22  O   LIG A   1     -10.119  -3.099 125.500  0.00  0.00    -0.503 OA
ATOM     23  H   LIG A   1     -10.226  -2.997 124.540  0.00  0.00    +0.292 HD
ENDBRANCH   6  22
BRANCH   7  24
ATOM     24  O   LIG A   1      -9.511  -0.585 124.141  0.00  0.00    -0.488 OA
ATOM     25  C   LIG A   1      -9.105  -1.185 122.916  0.00  0.00    +0.277 C 
ENDBRANCH   7  24
TORSDOF 5
ENDMDL
