MODEL 1
REMARK VINA RESULT:      -7.7      0.000      0.000
REMARK  Name = NuBBE_229
REMARK  21 active torsions:
REMARK  status: ('A' for Active; 'I' for Inactive)
REMARK    1  A    between atoms: C_1  and  C_2
REMARK    2  A    between atoms: C_4  and  O_6
REMARK    3  A    between atoms: O_6  and  C_7
REMARK    4  A    between atoms: C_7  and  C_8
REMARK    5  A    between atoms: C_8  and  C_9
REMARK    6  A    between atoms: C_9  and  C_10
REMARK    7  A    between atoms: C_12  and  O_14
REMARK    8  A    between atoms: C_17  and  O_19
REMARK    9  A    between atoms: O_19  and  C_20
REMARK   10  A    between atoms: C_20  and  C_21
REMARK   11  A    between atoms: C_24  and  O_26
REMARK   12  A    between atoms: O_26  and  C_27
REMARK   13  A    between atoms: C_27  and  C_28
REMARK   14  A    between atoms: C_31  and  O_33
REMARK   15  A    between atoms: O_33  and  C_34
REMARK   16  A    between atoms: C_34  and  C_35
REMARK   17  A    between atoms: C_40  and  C_41
REMARK   18  A    between atoms: C_40  and  C_42
REMARK   19  A    between atoms: C_42  and  C_43
REMARK   20  A    between atoms: C_44  and  C_45
REMARK   21  A    between atoms: C_44  and  C_47
REMARK                            x       y       z     vdW  Elec       q    Type
REMARK                         _______ _______ _______ _____ _____    ______ ____
ROOT
ATOM      1  C   LIG A   1      -8.972   1.839 129.008  0.00  0.00    +0.012 C 
ATOM      2  C   LIG A   1      -7.906   2.935 129.183  0.00  0.00    +0.036 C 
ATOM      3  C   LIG A   1      -8.364   4.154 128.343  0.00  0.00    +0.209 C 
ATOM      4  C   LIG A   1      -7.631   4.340 126.999  0.00  0.00    +0.172 C 
ATOM      5  C   LIG A   1      -7.123   3.036 126.313  0.00  0.00    +0.093 C 
ATOM      6  C   LIG A   1      -6.390   3.480 125.051  0.00  0.00    +0.013 C 
ATOM      7  C   LIG A   1      -7.333   3.507 123.883  0.00  0.00    +0.343 C 
ATOM      8  O   LIG A   1      -8.506   2.821 124.324  0.00  0.00    -0.297 OA
ATOM      9  C   LIG A   1      -8.273   2.234 125.611  0.00  0.00    +0.327 C 
ATOM     10  C   LIG A   1      -5.102   3.851 125.061  0.00  0.00    +0.023 C 
ATOM     11  C   LIG A   1      -4.253   3.659 126.274  0.00  0.00    +0.200 C 
ATOM     12  C   LIG A   1      -4.669   2.330 126.925  0.00  0.00    +0.054 C 
ATOM     13  C   LIG A   1      -6.188   2.227 127.319  0.00  0.00    +0.018 C 
ATOM     14  C   LIG A   1      -6.437   2.451 128.893  0.00  0.00    -0.019 C 
ATOM     15  C   LIG A   1      -5.467   3.513 129.473  0.00  0.00    +0.012 C 
ENDROOT
BRANCH   4  16
ATOM     16  O   LIG A   1      -8.509   5.083 126.134  0.00  0.00    -0.387 OA
ATOM     17  H   LIG A   1      -8.201   4.948 125.219  0.00  0.00    +0.210 HD
ENDBRANCH   4  16
BRANCH   3  18
ATOM     18  O   LIG A   1      -8.224   5.430 129.030  0.00  0.00    -0.458 OA
BRANCH  18  19
ATOM     19  C   LIG A   1      -9.331   5.872 129.704  0.00  0.00    +0.307 C 
ATOM     20  O   LIG A   1     -10.455   5.875 129.270  0.00  0.00    -0.251 OA
BRANCH  19  21
ATOM     21  C   LIG A   1      -8.919   6.477 131.037  0.00  0.00    +0.120 C 
BRANCH  21  22
ATOM     22  C   LIG A   1      -7.452   6.872 131.103  0.00  0.00    +0.008 C 
ATOM     23  C   LIG A   1      -6.672   6.108 132.159  0.00  0.00    +0.004 C 
ENDBRANCH  21  22
ENDBRANCH  19  21
ENDBRANCH  18  19
ENDBRANCH   3  18
BRANCH   7  24
ATOM     24  O   LIG A   1      -6.803   2.814 122.747  0.00  0.00    -0.431 OA
BRANCH  24  25
ATOM     25  C   LIG A   1      -6.864   3.477 121.566  0.00  0.00    +0.306 C 
ATOM     26  C   LIG A   1      -5.493   3.847 121.083  0.00  0.00    +0.136 C 
ATOM     27  O   LIG A   1      -7.889   3.799 120.976  0.00  0.00    -0.251 OA
ENDBRANCH  24  25
ENDBRANCH   7  24
BRANCH   9  28
ATOM     28  O   LIG A   1      -7.961   0.831 125.474  0.00  0.00    -0.434 OA
BRANCH  28  29
ATOM     29  C   LIG A   1      -8.984  -0.018 125.769  0.00  0.00    +0.306 C 
ATOM     30  C   LIG A   1      -8.490  -1.316 126.348  0.00  0.00    +0.136 C 
ATOM     31  O   LIG A   1     -10.174   0.213 125.624  0.00  0.00    -0.251 OA
ENDBRANCH  28  29
ENDBRANCH   9  28
BRANCH  11  32
ATOM     32  O   LIG A   1      -2.908   3.576 125.779  0.00  0.00    -0.457 OA
BRANCH  32  33
ATOM     33  C   LIG A   1      -1.925   3.434 126.702  0.00  0.00    +0.304 C 
ATOM     34  C   LIG A   1      -2.188   4.358 127.857  0.00  0.00    +0.136 C 
ATOM     35  O   LIG A   1      -1.017   2.606 126.668  0.00  0.00    -0.251 OA
ENDBRANCH  32  33
ENDBRANCH  11  32
BRANCH  14  36
ATOM     36  C   LIG A   1      -6.108   1.077 129.644  0.00  0.00    +0.034 C 
BRANCH  36  37
ATOM     37  C   LIG A   1      -5.644  -0.130 128.840  0.00  0.00    -0.023 C 
ATOM     38  C   LIG A   1      -5.838  -1.458 128.991  0.00  0.00    -0.055 C 
ATOM     39  C   LIG A   1      -5.160  -2.444 128.057  0.00  0.00    +0.043 C 
BRANCH  38  40
ATOM     40  C   LIG A   1      -6.634  -2.100 130.022  0.00  0.00    -0.005 C 
ATOM     41  C   LIG A   1      -7.957  -2.300 129.921  0.00  0.00    +0.008 C 
ENDBRANCH  38  40
ENDBRANCH  36  37
ENDBRANCH  14  36
TORSDOF 14
ENDMDL
MODEL 2
REMARK VINA RESULT:      -7.5      2.320      6.153
REMARK  Name = NuBBE_229
REMARK  21 active torsions:
REMARK  status: ('A' for Active; 'I' for Inactive)
REMARK    1  A    between atoms: C_1  and  C_2
REMARK    2  A    between atoms: C_4  and  O_6
REMARK    3  A    between atoms: O_6  and  C_7
REMARK    4  A    between atoms: C_7  and  C_8
REMARK    5  A    between atoms: C_8  and  C_9
REMARK    6  A    between atoms: C_9  and  C_10
REMARK    7  A    between atoms: C_12  and  O_14
REMARK    8  A    between atoms: C_17  and  O_19
REMARK    9  A    between atoms: O_19  and  C_20
REMARK   10  A    between atoms: C_20  and  C_21
REMARK   11  A    between atoms: C_24  and  O_26
REMARK   12  A    between atoms: O_26  and  C_27
REMARK   13  A    between atoms: C_27  and  C_28
REMARK   14  A    between atoms: C_31  and  O_33
REMARK   15  A    between atoms: O_33  and  C_34
REMARK   16  A    between atoms: C_34  and  C_35
REMARK   17  A    between atoms: C_40  and  C_41
REMARK   18  A    between atoms: C_40  and  C_42
REMARK   19  A    between atoms: C_42  and  C_43
REMARK   20  A    between atoms: C_44  and  C_45
REMARK   21  A    between atoms: C_44  and  C_47
REMARK                            x       y       z     vdW  Elec       q    Type
REMARK                         _______ _______ _______ _____ _____    ______ ____
ROOT
ATOM      1  C   LIG A   1      -6.531   4.469 126.148  0.00  0.00    +0.012 C 
ATOM      2  C   LIG A   1      -5.912   3.826 127.402  0.00  0.00    +0.036 C 
ATOM      3  C   LIG A   1      -5.024   2.650 126.921  0.00  0.00    +0.209 C 
ATOM      4  C   LIG A   1      -5.636   1.246 127.100  0.00  0.00    +0.172 C 
ATOM      5  C   LIG A   1      -7.191   1.164 127.022  0.00  0.00    +0.093 C 
ATOM      6  C   LIG A   1      -7.551  -0.294 127.286  0.00  0.00    +0.013 C 
ATOM      7  C   LIG A   1      -7.629  -1.055 125.994  0.00  0.00    +0.343 C 
ATOM      8  O   LIG A   1      -7.627  -0.062 124.967  0.00  0.00    -0.297 OA
ATOM      9  C   LIG A   1      -7.726   1.243 125.551  0.00  0.00    +0.327 C 
ATOM     10  C   LIG A   1      -7.693  -0.785 128.526  0.00  0.00    +0.023 C 
ATOM     11  C   LIG A   1      -7.704   0.116 129.716  0.00  0.00    +0.200 C 
ATOM     12  C   LIG A   1      -8.444   1.403 129.316  0.00  0.00    +0.054 C 
ATOM     13  C   LIG A   1      -7.837   2.163 128.081  0.00  0.00    +0.018 C 
ATOM     14  C   LIG A   1      -6.963   3.444 128.510  0.00  0.00    -0.019 C 
ATOM     15  C   LIG A   1      -6.187   3.183 129.827  0.00  0.00    +0.012 C 
ENDROOT
BRANCH   4  16
ATOM     16  O   LIG A   1      -5.012   0.382 126.133  0.00  0.00    -0.387 OA
ATOM     17  H   LIG A   1      -4.228   0.847 125.789  0.00  0.00    +0.210 HD
ENDBRANCH   4  16
BRANCH   3  18
ATOM     18  O   LIG A   1      -3.726   2.585 127.577  0.00  0.00    -0.458 OA
BRANCH  18  19
ATOM     19  C   LIG A   1      -2.824   3.550 127.218  0.00  0.00    +0.307 C 
ATOM     20  O   LIG A   1      -2.210   3.578 126.182  0.00  0.00    -0.251 OA
BRANCH  19  21
ATOM     21  C   LIG A   1      -2.614   4.518 128.372  0.00  0.00    +0.120 C 
BRANCH  21  22
ATOM     22  C   LIG A   1      -3.222   5.892 128.138  0.00  0.00    +0.008 C 
ATOM     23  C   LIG A   1      -2.200   7.015 128.181  0.00  0.00    +0.004 C 
ENDBRANCH  21  22
ENDBRANCH  19  21
ENDBRANCH  18  19
ENDBRANCH   3  18
BRANCH   7  24
ATOM     24  O   LIG A   1      -8.840  -1.813 125.889  0.00  0.00    -0.431 OA
BRANCH  24  25
ATOM     25  C   LIG A   1      -8.967  -2.575 124.775  0.00  0.00    +0.306 C 
ATOM     26  C   LIG A   1      -7.970  -3.696 124.770  0.00  0.00    +0.136 C 
ATOM     27  O   LIG A   1      -9.742  -2.368 123.848  0.00  0.00    -0.251 OA
ENDBRANCH  24  25
ENDBRANCH   7  24
BRANCH   9  28
ATOM     28  O   LIG A   1      -9.088   1.721 125.485  0.00  0.00    -0.434 OA
BRANCH  28  29
ATOM     29  C   LIG A   1      -9.673   1.628 124.259  0.00  0.00    +0.306 C 
ATOM     30  C   LIG A   1      -8.951   2.452 123.227  0.00  0.00    +0.136 C 
ATOM     31  O   LIG A   1     -10.649   0.951 123.979  0.00  0.00    -0.251 OA
ENDBRANCH  28  29
ENDBRANCH   9  28
BRANCH  11  32
ATOM     32  O   LIG A   1      -8.446  -0.598 130.718  0.00  0.00    -0.457 OA
BRANCH  32  33
ATOM     33  C   LIG A   1      -8.789   0.093 131.833  0.00  0.00    +0.304 C 
ATOM     34  C   LIG A   1      -7.554   0.391 132.634  0.00  0.00    +0.136 C 
ATOM     35  O   LIG A   1      -9.911   0.514 132.105  0.00  0.00    -0.251 OA
ENDBRANCH  32  33
ENDBRANCH  11  32
BRANCH  14  36
ATOM     36  C   LIG A   1      -7.971   4.651 128.809  0.00  0.00    +0.034 C 
BRANCH  36  37
ATOM     37  C   LIG A   1      -8.411   4.930 130.239  0.00  0.00    -0.023 C 
ATOM     38  C   LIG A   1      -8.075   5.890 131.128  0.00  0.00    -0.055 C 
ATOM     39  C   LIG A   1      -8.628   5.856 132.541  0.00  0.00    +0.043 C 
BRANCH  38  40
ATOM     40  C   LIG A   1      -7.164   6.998 130.896  0.00  0.00    -0.005 C 
ATOM     41  C   LIG A   1      -5.829   6.889 130.977  0.00  0.00    +0.008 C 
ENDBRANCH  38  40
ENDBRANCH  36  37
ENDBRANCH  14  36
TORSDOF 14
ENDMDL
MODEL 3
REMARK VINA RESULT:      -7.3      2.609      3.239
REMARK  Name = NuBBE_229
REMARK  21 active torsions:
REMARK  status: ('A' for Active; 'I' for Inactive)
REMARK    1  A    between atoms: C_1  and  C_2
REMARK    2  A    between atoms: C_4  and  O_6
REMARK    3  A    between atoms: O_6  and  C_7
REMARK    4  A    between atoms: C_7  and  C_8
REMARK    5  A    between atoms: C_8  and  C_9
REMARK    6  A    between atoms: C_9  and  C_10
REMARK    7  A    between atoms: C_12  and  O_14
REMARK    8  A    between atoms: C_17  and  O_19
REMARK    9  A    between atoms: O_19  and  C_20
REMARK   10  A    between atoms: C_20  and  C_21
REMARK   11  A    between atoms: C_24  and  O_26
REMARK   12  A    between atoms: O_26  and  C_27
REMARK   13  A    between atoms: C_27  and  C_28
REMARK   14  A    between atoms: C_31  and  O_33
REMARK   15  A    between atoms: O_33  and  C_34
REMARK   16  A    between atoms: C_34  and  C_35
REMARK   17  A    between atoms: C_40  and  C_41
REMARK   18  A    between atoms: C_40  and  C_42
REMARK   19  A    between atoms: C_42  and  C_43
REMARK   20  A    between atoms: C_44  and  C_45
REMARK   21  A    between atoms: C_44  and  C_47
REMARK                            x       y       z     vdW  Elec       q    Type
REMARK                         _______ _______ _______ _____ _____    ______ ____
ROOT
ATOM      1  C   LIG A   1      -7.856  -1.044 130.897  0.00  0.00    +0.012 C 
ATOM      2  C   LIG A   1      -7.239   0.364 130.813  0.00  0.00    +0.036 C 
ATOM      3  C   LIG A   1      -8.267   1.270 130.089  0.00  0.00    +0.209 C 
ATOM      4  C   LIG A   1      -7.951   1.575 128.611  0.00  0.00    +0.172 C 
ATOM      5  C   LIG A   1      -7.168   0.470 127.839  0.00  0.00    +0.093 C 
ATOM      6  C   LIG A   1      -6.927   1.024 126.438  0.00  0.00    +0.013 C 
ATOM      7  C   LIG A   1      -8.041   0.620 125.518  0.00  0.00    +0.343 C 
ATOM      8  O   LIG A   1      -8.772  -0.386 126.222  0.00  0.00    -0.297 OA
ATOM      9  C   LIG A   1      -8.078  -0.738 127.426  0.00  0.00    +0.327 C 
ATOM     10  C   LIG A   1      -5.884   1.817 126.150  0.00  0.00    +0.023 C 
ATOM     11  C   LIG A   1      -4.787   2.039 127.138  0.00  0.00    +0.200 C 
ATOM     12  C   LIG A   1      -4.554   0.712 127.878  0.00  0.00    +0.054 C 
ATOM     13  C   LIG A   1      -5.817   0.127 128.610  0.00  0.00    +0.018 C 
ATOM     14  C   LIG A   1      -5.791   0.392 130.197  0.00  0.00    -0.019 C 
ATOM     15  C   LIG A   1      -5.164   1.771 130.530  0.00  0.00    +0.012 C 
ENDROOT
BRANCH   4  16
ATOM     16  O   LIG A   1      -9.198   1.889 127.964  0.00  0.00    -0.387 OA
ATOM     17  H   LIG A   1      -9.896   1.858 128.643  0.00  0.00    +0.210 HD
ENDBRANCH   4  16
BRANCH   3  18
ATOM     18  O   LIG A   1      -8.450   2.571 130.715  0.00  0.00    -0.458 OA
BRANCH  18  19
ATOM     19  C   LIG A   1      -9.693   2.818 131.234  0.00  0.00    +0.307 C 
ATOM     20  O   LIG A   1     -10.635   3.239 130.612  0.00  0.00    -0.251 OA
BRANCH  19  21
ATOM     21  C   LIG A   1      -9.678   2.603 132.739  0.00  0.00    +0.120 C 
BRANCH  21  22
ATOM     22  C   LIG A   1      -8.354   2.960 133.396  0.00  0.00    +0.008 C 
ATOM     23  C   LIG A   1      -8.461   4.122 134.368  0.00  0.00    +0.004 C 
ENDBRANCH  21  22
ENDBRANCH  19  21
ENDBRANCH  18  19
ENDBRANCH   3  18
BRANCH   7  24
ATOM     24  O   LIG A   1      -7.552   0.053 124.297  0.00  0.00    -0.431 OA
BRANCH  24  25
ATOM     25  C   LIG A   1      -8.470  -0.585 123.530  0.00  0.00    +0.306 C 
ATOM     26  C   LIG A   1      -7.872  -1.787 122.859  0.00  0.00    +0.136 C 
ATOM     27  O   LIG A   1      -9.625  -0.222 123.340  0.00  0.00    -0.251 OA
ENDBRANCH  24  25
ENDBRANCH   7  24
BRANCH   9  28
ATOM     28  O   LIG A   1      -7.323  -1.955 127.234  0.00  0.00    -0.434 OA
BRANCH  28  29
ATOM     29  C   LIG A   1      -8.072  -3.064 126.982  0.00  0.00    +0.306 C 
ATOM     30  C   LIG A   1      -8.702  -3.613 128.234  0.00  0.00    +0.136 C 
ATOM     31  O   LIG A   1      -8.259  -3.571 125.888  0.00  0.00    -0.251 OA
ENDBRANCH  28  29
ENDBRANCH   9  28
BRANCH  11  32
ATOM     32  O   LIG A   1      -3.637   2.381 126.348  0.00  0.00    -0.457 OA
BRANCH  32  33
ATOM     33  C   LIG A   1      -2.659   3.087 126.966  0.00  0.00    +0.304 C 
ATOM     34  C   LIG A   1      -3.281   4.089 127.897  0.00  0.00    +0.136 C 
ATOM     35  O   LIG A   1      -1.451   2.879 126.876  0.00  0.00    -0.251 OA
ENDBRANCH  32  33
ENDBRANCH  11  32
BRANCH  14  36
ATOM     36  C   LIG A   1      -4.843  -0.711 130.865  0.00  0.00    +0.034 C 
BRANCH  36  37
ATOM     37  C   LIG A   1      -4.100  -1.702 129.981  0.00  0.00    -0.023 C 
ATOM     38  C   LIG A   1      -4.347  -2.984 129.635  0.00  0.00    -0.055 C 
ATOM     39  C   LIG A   1      -3.354  -3.757 128.787  0.00  0.00    +0.043 C 
BRANCH  38  40
ATOM     40  C   LIG A   1      -5.500  -3.776 130.032  0.00  0.00    -0.005 C 
ATOM     41  C   LIG A   1      -5.511  -4.584 131.103  0.00  0.00    +0.008 C 
ENDBRANCH  38  40
ENDBRANCH  36  37
ENDBRANCH  14  36
TORSDOF 14
ENDMDL
MODEL 4
REMARK VINA RESULT:      -7.3      2.857      5.666
REMARK  Name = NuBBE_229
REMARK  21 active torsions:
REMARK  status: ('A' for Active; 'I' for Inactive)
REMARK    1  A    between atoms: C_1  and  C_2
REMARK    2  A    between atoms: C_4  and  O_6
REMARK    3  A    between atoms: O_6  and  C_7
REMARK    4  A    between atoms: C_7  and  C_8
REMARK    5  A    between atoms: C_8  and  C_9
REMARK    6  A    between atoms: C_9  and  C_10
REMARK    7  A    between atoms: C_12  and  O_14
REMARK    8  A    between atoms: C_17  and  O_19
REMARK    9  A    between atoms: O_19  and  C_20
REMARK   10  A    between atoms: C_20  and  C_21
REMARK   11  A    between atoms: C_24  and  O_26
REMARK   12  A    between atoms: O_26  and  C_27
REMARK   13  A    between atoms: C_27  and  C_28
REMARK   14  A    between atoms: C_31  and  O_33
REMARK   15  A    between atoms: O_33  and  C_34
REMARK   16  A    between atoms: C_34  and  C_35
REMARK   17  A    between atoms: C_40  and  C_41
REMARK   18  A    between atoms: C_40  and  C_42
REMARK   19  A    between atoms: C_42  and  C_43
REMARK   20  A    between atoms: C_44  and  C_45
REMARK   21  A    between atoms: C_44  and  C_47
REMARK                            x       y       z     vdW  Elec       q    Type
REMARK                         _______ _______ _______ _____ _____    ______ ____
ROOT
ATOM      1  C   LIG A   1      -7.771   3.142 128.294  0.00  0.00    +0.012 C 
ATOM      2  C   LIG A   1      -6.721   2.421 129.158  0.00  0.00    +0.036 C 
ATOM      3  C   LIG A   1      -5.417   2.346 128.323  0.00  0.00    +0.209 C 
ATOM      4  C   LIG A   1      -5.121   0.974 127.685  0.00  0.00    +0.172 C 
ATOM      5  C   LIG A   1      -6.366   0.113 127.311  0.00  0.00    +0.093 C 
ATOM      6  C   LIG A   1      -5.821  -1.202 126.762  0.00  0.00    +0.013 C 
ATOM      7  C   LIG A   1      -5.661  -1.118 125.272  0.00  0.00    +0.343 C 
ATOM      8  O   LIG A   1      -6.359   0.065 124.880  0.00  0.00    -0.297 OA
ATOM      9  C   LIG A   1      -7.071   0.605 126.001  0.00  0.00    +0.327 C 
ATOM     10  C   LIG A   1      -5.482  -2.226 127.558  0.00  0.00    +0.023 C 
ATOM     11  C   LIG A   1      -5.808  -2.213 129.015  0.00  0.00    +0.200 C 
ATOM     12  C   LIG A   1      -7.183  -1.546 129.176  0.00  0.00    +0.054 C 
ATOM     13  C   LIG A   1      -7.288  -0.088 128.595  0.00  0.00    +0.018 C 
ATOM     14  C   LIG A   1      -7.208   1.042 129.739  0.00  0.00    -0.019 C 
ATOM     15  C   LIG A   1      -6.229   0.633 130.870  0.00  0.00    +0.012 C 
ENDROOT
BRANCH   4  16
ATOM     16  O   LIG A   1      -4.280   1.208 126.541  0.00  0.00    -0.387 OA
ATOM     17  H   LIG A   1      -3.572   0.538 126.557  0.00  0.00    +0.210 HD
ENDBRANCH   4  16
BRANCH   3  18
ATOM     18  O   LIG A   1      -4.216   2.682 129.074  0.00  0.00    -0.458 OA
BRANCH  18  19
ATOM     19  C   LIG A   1      -3.414   3.645 128.523  0.00  0.00    +0.307 C 
ATOM     20  O   LIG A   1      -2.638   3.470 127.619  0.00  0.00    -0.251 OA
BRANCH  19  21
ATOM     21  C   LIG A   1      -3.554   4.943 129.302  0.00  0.00    +0.120 C 
BRANCH  21  22
ATOM     22  C   LIG A   1      -2.338   5.852 129.202  0.00  0.00    +0.008 C 
ATOM     23  C   LIG A   1      -2.480   6.928 128.139  0.00  0.00    +0.004 C 
ENDBRANCH  21  22
ENDBRANCH  19  21
ENDBRANCH  18  19
ENDBRANCH   3  18
BRANCH   7  24
ATOM     24  O   LIG A   1      -6.256  -2.237 124.604  0.00  0.00    -0.431 OA
BRANCH  24  25
ATOM     25  C   LIG A   1      -5.696  -2.586 123.419  0.00  0.00    +0.306 C 
ATOM     26  C   LIG A   1      -4.637  -3.633 123.609  0.00  0.00    +0.136 C 
ATOM     27  O   LIG A   1      -5.954  -2.090 122.329  0.00  0.00    -0.251 OA
ENDBRANCH  24  25
ENDBRANCH   7  24
BRANCH   9  28
ATOM     28  O   LIG A   1      -8.462   0.221 125.945  0.00  0.00    -0.434 OA
BRANCH  28  29
ATOM     29  C   LIG A   1      -9.137   0.656 124.846  0.00  0.00    +0.306 C 
ATOM     30  C   LIG A   1      -9.095   2.155 124.716  0.00  0.00    +0.136 C 
ATOM     31  O   LIG A   1      -9.700  -0.049 124.024  0.00  0.00    -0.251 OA
ENDBRANCH  28  29
ENDBRANCH   9  28
BRANCH  11  32
ATOM     32  O   LIG A   1      -5.874  -3.597 129.395  0.00  0.00    -0.457 OA
BRANCH  32  33
ATOM     33  C   LIG A   1      -4.911  -4.046 130.238  0.00  0.00    +0.304 C 
ATOM     34  C   LIG A   1      -5.487  -5.108 131.131  0.00  0.00    +0.136 C 
ATOM     35  O   LIG A   1      -3.725  -3.726 130.215  0.00  0.00    -0.251 OA
ENDBRANCH  32  33
ENDBRANCH  11  32
BRANCH  14  36
ATOM     36  C   LIG A   1      -8.655   1.163 130.413  0.00  0.00    +0.034 C 
BRANCH  36  37
ATOM     37  C   LIG A   1      -8.800   1.829 131.774  0.00  0.00    -0.023 C 
ATOM     38  C   LIG A   1      -9.224   3.055 132.151  0.00  0.00    -0.055 C 
ATOM     39  C   LIG A   1      -9.173   3.469 133.611  0.00  0.00    +0.043 C 
BRANCH  38  40
ATOM     40  C   LIG A   1      -9.717   4.103 131.275  0.00  0.00    -0.005 C 
ATOM     41  C   LIG A   1     -10.822   3.982 130.523  0.00  0.00    +0.008 C 
ENDBRANCH  38  40
ENDBRANCH  36  37
ENDBRANCH  14  36
TORSDOF 14
ENDMDL
MODEL 5
REMARK VINA RESULT:      -7.3      2.470      6.149
REMARK  Name = NuBBE_229
REMARK  21 active torsions:
REMARK  status: ('A' for Active; 'I' for Inactive)
REMARK    1  A    between atoms: C_1  and  C_2
REMARK    2  A    between atoms: C_4  and  O_6
REMARK    3  A    between atoms: O_6  and  C_7
REMARK    4  A    between atoms: C_7  and  C_8
REMARK    5  A    between atoms: C_8  and  C_9
REMARK    6  A    between atoms: C_9  and  C_10
REMARK    7  A    between atoms: C_12  and  O_14
REMARK    8  A    between atoms: C_17  and  O_19
REMARK    9  A    between atoms: O_19  and  C_20
REMARK   10  A    between atoms: C_20  and  C_21
REMARK   11  A    between atoms: C_24  and  O_26
REMARK   12  A    between atoms: O_26  and  C_27
REMARK   13  A    between atoms: C_27  and  C_28
REMARK   14  A    between atoms: C_31  and  O_33
REMARK   15  A    between atoms: O_33  and  C_34
REMARK   16  A    between atoms: C_34  and  C_35
REMARK   17  A    between atoms: C_40  and  C_41
REMARK   18  A    between atoms: C_40  and  C_42
REMARK   19  A    between atoms: C_42  and  C_43
REMARK   20  A    between atoms: C_44  and  C_45
REMARK   21  A    between atoms: C_44  and  C_47
REMARK                            x       y       z     vdW  Elec       q    Type
REMARK                         _______ _______ _______ _____ _____    ______ ____
ROOT
ATOM      1  C   LIG A   1      -5.804   4.717 129.381  0.00  0.00    +0.012 C 
ATOM      2  C   LIG A   1      -6.972   4.716 128.379  0.00  0.00    +0.036 C 
ATOM      3  C   LIG A   1      -8.184   4.067 129.094  0.00  0.00    +0.209 C 
ATOM      4  C   LIG A   1      -8.481   2.607 128.694  0.00  0.00    +0.172 C 
ATOM      5  C   LIG A   1      -7.249   1.754 128.263  0.00  0.00    +0.093 C 
ATOM      6  C   LIG A   1      -7.799   0.389 127.862  0.00  0.00    +0.013 C 
ATOM      7  C   LIG A   1      -7.799  -0.540 129.041  0.00  0.00    +0.343 C 
ATOM      8  O   LIG A   1      -7.006   0.108 130.037  0.00  0.00    -0.297 OA
ATOM      9  C   LIG A   1      -6.388   1.277 129.483  0.00  0.00    +0.327 C 
ATOM     10  C   LIG A   1      -8.271   0.138 126.632  0.00  0.00    +0.023 C 
ATOM     11  C   LIG A   1      -8.097   1.123 125.524  0.00  0.00    +0.200 C 
ATOM     12  C   LIG A   1      -6.714   1.773 125.693  0.00  0.00    +0.054 C 
ATOM     13  C   LIG A   1      -6.477   2.483 127.076  0.00  0.00    +0.018 C 
ATOM     14  C   LIG A   1      -6.618   4.084 126.982  0.00  0.00    -0.019 C 
ATOM     15  C   LIG A   1      -7.728   4.496 125.982  0.00  0.00    +0.012 C 
ENDROOT
BRANCH   4  16
ATOM     16  O   LIG A   1      -9.187   1.999 129.790  0.00  0.00    -0.387 OA
ATOM     17  H   LIG A   1      -9.864   1.409 129.412  0.00  0.00    +0.210 HD
ENDBRANCH   4  16
BRANCH   3  18
ATOM     18  O   LIG A   1      -9.438   4.778 128.892  0.00  0.00    -0.458 OA
BRANCH  18  19
ATOM     19  C   LIG A   1      -9.715   5.773 129.790  0.00  0.00    +0.307 C 
ATOM     20  O   LIG A   1      -9.040   6.755 129.970  0.00  0.00    -0.251 OA
BRANCH  19  21
ATOM     21  C   LIG A   1     -10.933   5.399 130.620  0.00  0.00    +0.120 C 
BRANCH  21  22
ATOM     22  C   LIG A   1     -11.382   6.493 131.577  0.00  0.00    +0.008 C 
ATOM     23  C   LIG A   1     -12.651   7.198 131.128  0.00  0.00    +0.004 C 
ENDBRANCH  21  22
ENDBRANCH  19  21
ENDBRANCH  18  19
ENDBRANCH   3  18
BRANCH   7  24
ATOM     24  O   LIG A   1      -7.196  -1.801 128.732  0.00  0.00    -0.431 OA
BRANCH  24  25
ATOM     25  C   LIG A   1      -7.787  -2.892 129.280  0.00  0.00    +0.306 C 
ATOM     26  C   LIG A   1      -8.640  -3.607 128.274  0.00  0.00    +0.136 C 
ATOM     27  O   LIG A   1      -7.703  -3.240 130.452  0.00  0.00    -0.251 OA
ENDBRANCH  24  25
ENDBRANCH   7  24
BRANCH   9  28
ATOM     28  O   LIG A   1      -5.020   0.996 129.116  0.00  0.00    -0.434 OA
BRANCH  28  29
ATOM     29  C   LIG A   1      -4.203   0.657 130.151  0.00  0.00    +0.306 C 
ATOM     30  C   LIG A   1      -4.013   1.797 131.115  0.00  0.00    +0.136 C 
ATOM     31  O   LIG A   1      -3.686  -0.434 130.330  0.00  0.00    -0.251 OA
ENDBRANCH  28  29
ENDBRANCH   9  28
BRANCH  11  32
ATOM     32  O   LIG A   1      -8.140   0.342 124.320  0.00  0.00    -0.457 OA
BRANCH  32  33
ATOM     33  C   LIG A   1      -9.223   0.510 123.520  0.00  0.00    +0.304 C 
ATOM     34  C   LIG A   1      -9.377   1.967 123.191  0.00  0.00    +0.136 C 
ATOM     35  O   LIG A   1      -9.913  -0.387 123.041  0.00  0.00    -0.251 OA
ENDBRANCH  32  33
ENDBRANCH  11  32
BRANCH  14  36
ATOM     36  C   LIG A   1      -5.244   4.666 126.402  0.00  0.00    +0.034 C 
BRANCH  36  37
ATOM     37  C   LIG A   1      -3.997   3.793 126.398  0.00  0.00    -0.023 C 
ATOM     38  C   LIG A   1      -2.880   3.791 127.157  0.00  0.00    -0.055 C 
ATOM     39  C   LIG A   1      -1.745   2.831 126.850  0.00  0.00    +0.043 C 
BRANCH  38  40
ATOM     40  C   LIG A   1      -2.598   4.672 128.277  0.00  0.00    -0.005 C 
ATOM     41  C   LIG A   1      -2.424   5.997 128.151  0.00  0.00    +0.008 C 
ENDBRANCH  38  40
ENDBRANCH  36  37
ENDBRANCH  14  36
TORSDOF 14
ENDMDL
MODEL 6
REMARK VINA RESULT:      -7.1      2.613      6.890
REMARK  Name = NuBBE_229
REMARK  21 active torsions:
REMARK  status: ('A' for Active; 'I' for Inactive)
REMARK    1  A    between atoms: C_1  and  C_2
REMARK    2  A    between atoms: C_4  and  O_6
REMARK    3  A    between atoms: O_6  and  C_7
REMARK    4  A    between atoms: C_7  and  C_8
REMARK    5  A    between atoms: C_8  and  C_9
REMARK    6  A    between atoms: C_9  and  C_10
REMARK    7  A    between atoms: C_12  and  O_14
REMARK    8  A    between atoms: C_17  and  O_19
REMARK    9  A    between atoms: O_19  and  C_20
REMARK   10  A    between atoms: C_20  and  C_21
REMARK   11  A    between atoms: C_24  and  O_26
REMARK   12  A    between atoms: O_26  and  C_27
REMARK   13  A    between atoms: C_27  and  C_28
REMARK   14  A    between atoms: C_31  and  O_33
REMARK   15  A    between atoms: O_33  and  C_34
REMARK   16  A    between atoms: C_34  and  C_35
REMARK   17  A    between atoms: C_40  and  C_41
REMARK   18  A    between atoms: C_40  and  C_42
REMARK   19  A    between atoms: C_42  and  C_43
REMARK   20  A    between atoms: C_44  and  C_45
REMARK   21  A    between atoms: C_44  and  C_47
REMARK                            x       y       z     vdW  Elec       q    Type
REMARK                         _______ _______ _______ _____ _____    ______ ____
ROOT
ATOM      1  C   LIG A   1      -5.489   1.795 125.002  0.00  0.00    +0.012 C 
ATOM      2  C   LIG A   1      -6.857   1.535 125.657  0.00  0.00    +0.036 C 
ATOM      3  C   LIG A   1      -7.553   2.910 125.821  0.00  0.00    +0.209 C 
ATOM      4  C   LIG A   1      -7.529   3.494 127.249  0.00  0.00    +0.172 C 
ATOM      5  C   LIG A   1      -6.299   3.105 128.124  0.00  0.00    +0.093 C 
ATOM      6  C   LIG A   1      -6.533   3.745 129.489  0.00  0.00    +0.013 C 
ATOM      7  C   LIG A   1      -5.906   5.108 129.540  0.00  0.00    +0.343 C 
ATOM      8  O   LIG A   1      -5.065   5.184 128.387  0.00  0.00    -0.297 OA
ATOM      9  C   LIG A   1      -5.007   3.906 127.741  0.00  0.00    +0.327 C 
ATOM     10  C   LIG A   1      -7.267   3.154 130.443  0.00  0.00    +0.023 C 
ATOM     11  C   LIG A   1      -7.730   1.742 130.296  0.00  0.00    +0.200 C 
ATOM     12  C   LIG A   1      -6.608   0.956 129.600  0.00  0.00    +0.054 C 
ATOM     13  C   LIG A   1      -6.171   1.519 128.198  0.00  0.00    +0.018 C 
ATOM     14  C   LIG A   1      -6.784   0.675 126.973  0.00  0.00    -0.019 C 
ATOM     15  C   LIG A   1      -8.217   0.175 127.291  0.00  0.00    +0.012 C 
ENDROOT
BRANCH   4  16
ATOM     16  O   LIG A   1      -7.660   4.922 127.127  0.00  0.00    -0.387 OA
ATOM     17  H   LIG A   1      -7.422   5.161 126.213  0.00  0.00    +0.210 HD
ENDBRANCH   4  16
BRANCH   3  18
ATOM     18  O   LIG A   1      -8.957   2.910 125.435  0.00  0.00    -0.458 OA
BRANCH  18  19
ATOM     19  C   LIG A   1      -9.221   2.579 124.133  0.00  0.00    +0.307 C 
ATOM     20  O   LIG A   1      -8.813   3.174 123.168  0.00  0.00    -0.251 OA
BRANCH  19  21
ATOM     21  C   LIG A   1     -10.208   1.424 124.082  0.00  0.00    +0.120 C 
BRANCH  21  22
ATOM     22  C   LIG A   1     -10.046   0.534 122.860  0.00  0.00    +0.008 C 
ATOM     23  C   LIG A   1      -9.209  -0.705 123.128  0.00  0.00    +0.004 C 
ENDBRANCH  21  22
ENDBRANCH  19  21
ENDBRANCH  18  19
ENDBRANCH   3  18
BRANCH   7  24
ATOM     24  O   LIG A   1      -5.093   5.283 130.706  0.00  0.00    -0.431 OA
BRANCH  24  25
ATOM     25  C   LIG A   1      -5.520   6.217 131.592  0.00  0.00    +0.306 C 
ATOM     26  C   LIG A   1      -6.683   6.990 131.044  0.00  0.00    +0.136 C 
ATOM     27  O   LIG A   1      -5.008   6.462 132.678  0.00  0.00    -0.251 OA
ENDBRANCH  24  25
ENDBRANCH   7  24
BRANCH   9  28
ATOM     28  O   LIG A   1      -3.798   3.209 128.112  0.00  0.00    -0.434 OA
BRANCH  28  29
ATOM     29  C   LIG A   1      -2.642   3.806 127.708  0.00  0.00    +0.306 C 
ATOM     30  C   LIG A   1      -1.965   3.035 126.607  0.00  0.00    +0.136 C 
ATOM     31  O   LIG A   1      -2.186   4.851 128.141  0.00  0.00    -0.251 OA
ENDBRANCH  28  29
ENDBRANCH   9  28
BRANCH  11  32
ATOM     32  O   LIG A   1      -7.916   1.269 131.640  0.00  0.00    -0.457 OA
BRANCH  32  33
ATOM     33  C   LIG A   1      -9.181   1.298 132.128  0.00  0.00    +0.304 C 
ATOM     34  C   LIG A   1      -9.360   2.528 132.972  0.00  0.00    +0.136 C 
ATOM     35  O   LIG A   1     -10.082   0.512 131.846  0.00  0.00    -0.251 OA
ENDBRANCH  32  33
ENDBRANCH  11  32
BRANCH  14  36
ATOM     36  C   LIG A   1      -5.881  -0.632 126.775  0.00  0.00    +0.034 C 
BRANCH  36  37
ATOM     37  C   LIG A   1      -6.495  -1.889 126.176  0.00  0.00    -0.023 C 
ATOM     38  C   LIG A   1      -6.403  -2.460 124.955  0.00  0.00    -0.055 C 
ATOM     39  C   LIG A   1      -7.219  -3.695 124.620  0.00  0.00    +0.043 C 
BRANCH  38  40
ATOM     40  C   LIG A   1      -5.598  -1.987 123.842  0.00  0.00    -0.005 C 
ATOM     41  C   LIG A   1      -5.987  -2.063 122.560  0.00  0.00    +0.008 C 
ENDBRANCH  38  40
ENDBRANCH  36  37
ENDBRANCH  14  36
TORSDOF 14
ENDMDL
MODEL 7
REMARK VINA RESULT:      -7.1      3.011      5.780
REMARK  Name = NuBBE_229
REMARK  21 active torsions:
REMARK  status: ('A' for Active; 'I' for Inactive)
REMARK    1  A    between atoms: C_1  and  C_2
REMARK    2  A    between atoms: C_4  and  O_6
REMARK    3  A    between atoms: O_6  and  C_7
REMARK    4  A    between atoms: C_7  and  C_8
REMARK    5  A    between atoms: C_8  and  C_9
REMARK    6  A    between atoms: C_9  and  C_10
REMARK    7  A    between atoms: C_12  and  O_14
REMARK    8  A    between atoms: C_17  and  O_19
REMARK    9  A    between atoms: O_19  and  C_20
REMARK   10  A    between atoms: C_20  and  C_21
REMARK   11  A    between atoms: C_24  and  O_26
REMARK   12  A    between atoms: O_26  and  C_27
REMARK   13  A    between atoms: C_27  and  C_28
REMARK   14  A    between atoms: C_31  and  O_33
REMARK   15  A    between atoms: O_33  and  C_34
REMARK   16  A    between atoms: C_34  and  C_35
REMARK   17  A    between atoms: C_40  and  C_41
REMARK   18  A    between atoms: C_40  and  C_42
REMARK   19  A    between atoms: C_42  and  C_43
REMARK   20  A    between atoms: C_44  and  C_45
REMARK   21  A    between atoms: C_44  and  C_47
REMARK                            x       y       z     vdW  Elec       q    Type
REMARK                         _______ _______ _______ _____ _____    ______ ____
ROOT
ATOM      1  C   LIG A   1      -9.383   3.444 133.421  0.00  0.00    +0.012 C 
ATOM      2  C   LIG A   1      -8.759   4.717 132.823  0.00  0.00    +0.036 C 
ATOM      3  C   LIG A   1      -9.491   4.999 131.486  0.00  0.00    +0.209 C 
ATOM      4  C   LIG A   1      -8.712   4.609 130.213  0.00  0.00    +0.172 C 
ATOM      5  C   LIG A   1      -7.733   3.404 130.356  0.00  0.00    +0.093 C 
ATOM      6  C   LIG A   1      -7.048   3.254 129.001  0.00  0.00    +0.013 C 
ATOM      7  C   LIG A   1      -7.811   2.295 128.134  0.00  0.00    +0.343 C 
ATOM      8  O   LIG A   1      -8.738   1.647 129.007  0.00  0.00    -0.297 OA
ATOM      9  C   LIG A   1      -8.473   2.022 130.365  0.00  0.00    +0.327 C 
ATOM     10  C   LIG A   1      -5.961   3.963 128.664  0.00  0.00    +0.023 C 
ATOM     11  C   LIG A   1      -5.238   4.793 129.672  0.00  0.00    +0.200 C 
ATOM     12  C   LIG A   1      -5.269   4.032 131.008  0.00  0.00    +0.054 C 
ATOM     13  C   LIG A   1      -6.706   3.682 131.541  0.00  0.00    +0.018 C 
ATOM     14  C   LIG A   1      -7.190   4.671 132.715  0.00  0.00    -0.019 C 
ATOM     15  C   LIG A   1      -6.690   6.119 132.476  0.00  0.00    +0.012 C 
ENDROOT
BRANCH   4  16
ATOM     16  O   LIG A   1      -9.681   4.381 129.174  0.00  0.00    -0.387 OA
ATOM     17  H   LIG A   1     -10.233   3.627 129.448  0.00  0.00    +0.210 HD
ENDBRANCH   4  16
BRANCH   3  18
ATOM     18  O   LIG A   1      -9.853   6.396 131.295  0.00  0.00    -0.458 OA
BRANCH  18  19
ATOM     19  C   LIG A   1     -11.194   6.672 131.279  0.00  0.00    +0.307 C 
ATOM     20  O   LIG A   1     -11.974   6.385 132.151  0.00  0.00    -0.251 OA
BRANCH  19  21
ATOM     21  C   LIG A   1     -11.581   7.281 129.941  0.00  0.00    +0.120 C 
BRANCH  21  22
ATOM     22  C   LIG A   1     -12.567   6.439 129.146  0.00  0.00    +0.008 C 
ATOM     23  C   LIG A   1     -13.399   7.252 128.169  0.00  0.00    +0.004 C 
ENDBRANCH  21  22
ENDBRANCH  19  21
ENDBRANCH  18  19
ENDBRANCH   3  18
BRANCH   7  24
ATOM     24  O   LIG A   1      -6.960   1.298 127.558  0.00  0.00    -0.431 OA
BRANCH  24  25
ATOM     25  C   LIG A   1      -7.120   1.077 126.229  0.00  0.00    +0.306 C 
ATOM     26  C   LIG A   1      -6.341   2.071 125.419  0.00  0.00    +0.136 C 
ATOM     27  O   LIG A   1      -7.844   0.227 125.725  0.00  0.00    -0.251 OA
ENDBRANCH  24  25
ENDBRANCH   7  24
BRANCH   9  28
ATOM     28  O   LIG A   1      -7.708   0.993 131.030  0.00  0.00    -0.434 OA
BRANCH  28  29
ATOM     29  C   LIG A   1      -8.440   0.128 131.784  0.00  0.00    +0.306 C 
ATOM     30  C   LIG A   1      -7.582  -0.937 132.413  0.00  0.00    +0.136 C 
ATOM     31  O   LIG A   1      -9.644   0.184 131.977  0.00  0.00    -0.251 OA
ENDBRANCH  28  29
ENDBRANCH   9  28
BRANCH  11  32
ATOM     32  O   LIG A   1      -3.892   4.890 129.180  0.00  0.00    -0.457 OA
BRANCH  32  33
ATOM     33  C   LIG A   1      -3.502   6.096 128.699  0.00  0.00    +0.304 C 
ATOM     34  C   LIG A   1      -2.121   6.409 129.200  0.00  0.00    +0.136 C 
ATOM     35  O   LIG A   1      -4.121   6.786 127.892  0.00  0.00    -0.251 OA
ENDBRANCH  32  33
ENDBRANCH  11  32
BRANCH  14  36
ATOM     36  C   LIG A   1      -6.518   4.179 134.082  0.00  0.00    +0.034 C 
BRANCH  36  37
ATOM     37  C   LIG A   1      -5.869   5.194 135.012  0.00  0.00    -0.023 C 
ATOM     38  C   LIG A   1      -6.359   5.969 136.004  0.00  0.00    -0.055 C 
ATOM     39  C   LIG A   1      -5.463   6.970 136.711  0.00  0.00    +0.043 C 
BRANCH  38  40
ATOM     40  C   LIG A   1      -7.730   5.991 136.482  0.00  0.00    -0.005 C 
ATOM     41  C   LIG A   1      -8.118   6.633 137.595  0.00  0.00    +0.008 C 
ENDBRANCH  38  40
ENDBRANCH  36  37
ENDBRANCH  14  36
TORSDOF 14
ENDMDL
MODEL 8
REMARK VINA RESULT:      -7.1      2.948      7.164
REMARK  Name = NuBBE_229
REMARK  21 active torsions:
REMARK  status: ('A' for Active; 'I' for Inactive)
REMARK    1  A    between atoms: C_1  and  C_2
REMARK    2  A    between atoms: C_4  and  O_6
REMARK    3  A    between atoms: O_6  and  C_7
REMARK    4  A    between atoms: C_7  and  C_8
REMARK    5  A    between atoms: C_8  and  C_9
REMARK    6  A    between atoms: C_9  and  C_10
REMARK    7  A    between atoms: C_12  and  O_14
REMARK    8  A    between atoms: C_17  and  O_19
REMARK    9  A    between atoms: O_19  and  C_20
REMARK   10  A    between atoms: C_20  and  C_21
REMARK   11  A    between atoms: C_24  and  O_26
REMARK   12  A    between atoms: O_26  and  C_27
REMARK   13  A    between atoms: C_27  and  C_28
REMARK   14  A    between atoms: C_31  and  O_33
REMARK   15  A    between atoms: O_33  and  C_34
REMARK   16  A    between atoms: C_34  and  C_35
REMARK   17  A    between atoms: C_40  and  C_41
REMARK   18  A    between atoms: C_40  and  C_42
REMARK   19  A    between atoms: C_42  and  C_43
REMARK   20  A    between atoms: C_44  and  C_45
REMARK   21  A    between atoms: C_44  and  C_47
REMARK                            x       y       z     vdW  Elec       q    Type
REMARK                         _______ _______ _______ _____ _____    ______ ____
ROOT
ATOM      1  C   LIG A   1      -6.220   2.241 125.191  0.00  0.00    +0.012 C 
ATOM      2  C   LIG A   1      -7.173   1.092 125.565  0.00  0.00    +0.036 C 
ATOM      3  C   LIG A   1      -8.367   1.720 126.328  0.00  0.00    +0.209 C 
ATOM      4  C   LIG A   1      -8.337   1.542 127.859  0.00  0.00    +0.172 C 
ATOM      5  C   LIG A   1      -6.922   1.456 128.509  0.00  0.00    +0.093 C 
ATOM      6  C   LIG A   1      -7.155   1.223 129.998  0.00  0.00    +0.013 C 
ATOM      7  C   LIG A   1      -7.209   2.533 130.729  0.00  0.00    +0.343 C 
ATOM      8  O   LIG A   1      -6.728   3.507 129.802  0.00  0.00    -0.297 OA
ATOM      9  C   LIG A   1      -6.226   2.856 128.628  0.00  0.00    +0.327 C 
ATOM     10  C   LIG A   1      -7.349  -0.001 130.511  0.00  0.00    +0.023 C 
ATOM     11  C   LIG A   1      -7.148  -1.226 129.682  0.00  0.00    +0.200 C 
ATOM     12  C   LIG A   1      -5.947  -0.969 128.758  0.00  0.00    +0.054 C 
ATOM     13  C   LIG A   1      -6.084   0.288 127.823  0.00  0.00    +0.018 C 
ATOM     14  C   LIG A   1      -6.473  -0.104 126.311  0.00  0.00    -0.019 C 
ATOM     15  C   LIG A   1      -7.440  -1.316 126.272  0.00  0.00    +0.012 C 
ENDROOT
BRANCH   4  16
ATOM     16  O   LIG A   1      -9.115   2.610 128.429  0.00  0.00    -0.387 OA
ATOM     17  H   LIG A   1      -8.975   2.593 129.393  0.00  0.00    +0.210 HD
ENDBRANCH   4  16
BRANCH   3  18
ATOM     18  O   LIG A   1      -9.666   1.212 125.912  0.00  0.00    -0.458 OA
BRANCH  18  19
ATOM     19  C   LIG A   1      -9.815   0.971 124.572  0.00  0.00    +0.307 C 
ATOM     20  O   LIG A   1      -9.999  -0.111 124.076  0.00  0.00    -0.251 OA
BRANCH  19  21
ATOM     21  C   LIG A   1      -9.589   2.253 123.787  0.00  0.00    +0.120 C 
BRANCH  21  22
ATOM     22  C   LIG A   1      -8.995   2.029 122.405  0.00  0.00    +0.008 C 
ATOM     23  C   LIG A   1      -8.590   3.317 121.710  0.00  0.00    +0.004 C 
ENDBRANCH  21  22
ENDBRANCH  19  21
ENDBRANCH  18  19
ENDBRANCH   3  18
BRANCH   7  24
ATOM     24  O   LIG A   1      -6.357   2.542 131.880  0.00  0.00    -0.431 OA
BRANCH  24  25
ATOM     25  C   LIG A   1      -6.832   3.204 132.965  0.00  0.00    +0.306 C 
ATOM     26  C   LIG A   1      -8.210   2.733 133.325  0.00  0.00    +0.136 C 
ATOM     27  O   LIG A   1      -6.261   4.112 133.557  0.00  0.00    -0.251 OA
ENDBRANCH  24  25
ENDBRANCH   7  24
BRANCH   9  28
ATOM     28  O   LIG A   1      -4.787   2.751 128.686  0.00  0.00    -0.434 OA
BRANCH  28  29
ATOM     29  C   LIG A   1      -4.113   3.637 127.902  0.00  0.00    +0.306 C 
ATOM     30  C   LIG A   1      -3.068   2.959 127.056  0.00  0.00    +0.136 C 
ATOM     31  O   LIG A   1      -4.313   4.839 127.840  0.00  0.00    -0.251 OA
ENDBRANCH  28  29
ENDBRANCH   9  28
BRANCH  11  32
ATOM     32  O   LIG A   1      -6.843  -2.267 130.623  0.00  0.00    -0.457 OA
BRANCH  32  33
ATOM     33  C   LIG A   1      -6.930  -3.543 130.172  0.00  0.00    +0.304 C 
ATOM     34  C   LIG A   1      -8.101  -3.663 129.240  0.00  0.00    +0.136 C 
ATOM     35  O   LIG A   1      -6.123  -4.444 130.393  0.00  0.00    -0.251 OA
ENDBRANCH  32  33
ENDBRANCH  11  32
BRANCH  14  36
ATOM     36  C   LIG A   1      -5.136  -0.565 125.562  0.00  0.00    +0.034 C 
BRANCH  36  37
ATOM     37  C   LIG A   1      -4.983  -2.012 125.114  0.00  0.00    -0.023 C 
ATOM     38  C   LIG A   1      -5.299  -2.652 123.967  0.00  0.00    -0.055 C 
ATOM     39  C   LIG A   1      -5.102  -4.152 123.845  0.00  0.00    +0.043 C 
BRANCH  38  40
ATOM     40  C   LIG A   1      -5.875  -2.051 122.776  0.00  0.00    -0.005 C 
ATOM     41  C   LIG A   1      -7.179  -1.762 122.648  0.00  0.00    +0.008 C 
ENDBRANCH  38  40
ENDBRANCH  36  37
ENDBRANCH  14  36
TORSDOF 14
ENDMDL
MODEL 9
REMARK VINA RESULT:      -7.1      3.555      6.850
REMARK  Name = NuBBE_229
REMARK  21 active torsions:
REMARK  status: ('A' for Active; 'I' for Inactive)
REMARK    1  A    between atoms: C_1  and  C_2
REMARK    2  A    between atoms: C_4  and  O_6
REMARK    3  A    between atoms: O_6  and  C_7
REMARK    4  A    between atoms: C_7  and  C_8
REMARK    5  A    between atoms: C_8  and  C_9
REMARK    6  A    between atoms: C_9  and  C_10
REMARK    7  A    between atoms: C_12  and  O_14
REMARK    8  A    between atoms: C_17  and  O_19
REMARK    9  A    between atoms: O_19  and  C_20
REMARK   10  A    between atoms: C_20  and  C_21
REMARK   11  A    between atoms: C_24  and  O_26
REMARK   12  A    between atoms: O_26  and  C_27
REMARK   13  A    between atoms: C_27  and  C_28
REMARK   14  A    between atoms: C_31  and  O_33
REMARK   15  A    between atoms: O_33  and  C_34
REMARK   16  A    between atoms: C_34  and  C_35
REMARK   17  A    between atoms: C_40  and  C_41
REMARK   18  A    between atoms: C_40  and  C_42
REMARK   19  A    between atoms: C_42  and  C_43
REMARK   20  A    between atoms: C_44  and  C_45
REMARK   21  A    between atoms: C_44  and  C_47
REMARK                            x       y       z     vdW  Elec       q    Type
REMARK                         _______ _______ _______ _____ _____    ______ ____
ROOT
ATOM      1  C   LIG A   1      -9.530   3.430 130.061  0.00  0.00    +0.012 C 
ATOM      2  C   LIG A   1      -9.662   4.152 131.413  0.00  0.00    +0.036 C 
ATOM      3  C   LIG A   1      -9.415   5.660 131.151  0.00  0.00    +0.209 C 
ATOM      4  C   LIG A   1      -8.023   6.180 131.562  0.00  0.00    +0.172 C 
ATOM      5  C   LIG A   1      -6.857   5.148 131.483  0.00  0.00    +0.093 C 
ATOM      6  C   LIG A   1      -5.615   5.873 131.990  0.00  0.00    +0.013 C 
ATOM      7  C   LIG A   1      -4.881   6.513 130.848  0.00  0.00    +0.343 C 
ATOM      8  O   LIG A   1      -5.459   5.957 129.665  0.00  0.00    -0.297 OA
ATOM      9  C   LIG A   1      -6.366   4.904 130.014  0.00  0.00    +0.327 C 
ATOM     10  C   LIG A   1      -5.314   5.955 133.294  0.00  0.00    +0.023 C 
ATOM     11  C   LIG A   1      -6.071   5.166 134.311  0.00  0.00    +0.200 C 
ATOM     12  C   LIG A   1      -6.400   3.800 133.688  0.00  0.00    +0.054 C 
ATOM     13  C   LIG A   1      -7.219   3.860 132.347  0.00  0.00    +0.018 C 
ATOM     14  C   LIG A   1      -8.780   3.532 132.559  0.00  0.00    -0.019 C 
ATOM     15  C   LIG A   1      -9.297   4.093 133.909  0.00  0.00    +0.012 C 
ENDROOT
BRANCH   4  16
ATOM     16  O   LIG A   1      -7.750   7.346 130.764  0.00  0.00    -0.387 OA
ATOM     17  H   LIG A   1      -7.138   7.079 130.054  0.00  0.00    +0.210 HD
ENDBRANCH   4  16
BRANCH   3  18
ATOM     18  O   LIG A   1     -10.362   6.539 131.821  0.00  0.00    -0.458 OA
BRANCH  18  19
ATOM     19  C   LIG A   1     -11.556   6.734 131.180  0.00  0.00    +0.307 C 
ATOM     20  O   LIG A   1     -12.639   6.724 131.708  0.00  0.00    -0.251 OA
BRANCH  19  21
ATOM     21  C   LIG A   1     -11.328   6.842 129.681  0.00  0.00    +0.120 C 
BRANCH  21  22
ATOM     22  C   LIG A   1     -11.403   8.265 129.151  0.00  0.00    +0.008 C 
ATOM     23  C   LIG A   1     -12.802   8.670 128.717  0.00  0.00    +0.004 C 
ENDBRANCH  21  22
ENDBRANCH  19  21
ENDBRANCH  18  19
ENDBRANCH   3  18
BRANCH   7  24
ATOM     24  O   LIG A   1      -3.484   6.198 130.861  0.00  0.00    -0.431 OA
BRANCH  24  25
ATOM     25  C   LIG A   1      -2.664   7.160 131.349  0.00  0.00    +0.306 C 
ATOM     26  C   LIG A   1      -1.297   6.611 131.637  0.00  0.00    +0.136 C 
ATOM     27  O   LIG A   1      -2.981   8.319 131.592  0.00  0.00    -0.251 OA
ENDBRANCH  24  25
ENDBRANCH   7  24
BRANCH   9  28
ATOM     28  O   LIG A   1      -5.729   3.618 129.853  0.00  0.00    -0.434 OA
BRANCH  28  29
ATOM     29  C   LIG A   1      -5.506   3.242 128.564  0.00  0.00    +0.306 C 
ATOM     30  C   LIG A   1      -4.236   2.447 128.420  0.00  0.00    +0.136 C 
ATOM     31  O   LIG A   1      -6.233   3.476 127.612  0.00  0.00    -0.251 OA
ENDBRANCH  28  29
ENDBRANCH   9  28
BRANCH  11  32
ATOM     32  O   LIG A   1      -5.163   5.010 135.413  0.00  0.00    -0.457 OA
BRANCH  32  33
ATOM     33  C   LIG A   1      -5.700   5.048 136.658  0.00  0.00    +0.304 C 
ATOM     34  C   LIG A   1      -6.938   5.898 136.640  0.00  0.00    +0.136 C 
ATOM     35  O   LIG A   1      -5.313   4.405 137.632  0.00  0.00    -0.251 OA
ENDBRANCH  32  33
ENDBRANCH  11  32
BRANCH  14  36
ATOM     36  C   LIG A   1      -8.944   1.942 132.635  0.00  0.00    +0.034 C 
BRANCH  36  37
ATOM     37  C   LIG A   1      -7.713   1.051 132.536  0.00  0.00    -0.023 C 
ATOM     38  C   LIG A   1      -7.315   0.140 131.622  0.00  0.00    -0.055 C 
ATOM     39  C   LIG A   1      -6.052  -0.671 131.845  0.00  0.00    +0.043 C 
BRANCH  38  40
ATOM     40  C   LIG A   1      -8.010  -0.208 130.394  0.00  0.00    -0.005 C 
ATOM     41  C   LIG A   1      -7.727   0.338 129.202  0.00  0.00    +0.008 C 
ENDBRANCH  38  40
ENDBRANCH  36  37
ENDBRANCH  14  36
TORSDOF 14
ENDMDL
