MODEL 1
REMARK VINA RESULT:      -6.6      0.000      0.000
REMARK  Name = NuBBE_1272
REMARK  3 active torsions:
REMARK  status: ('A' for Active; 'I' for Inactive)
REMARK    1  A    between atoms: C_9  and  O_10
REMARK    2  A    between atoms: C_11  and  O_12
REMARK    3  A    between atoms: O_12  and  C_13
REMARK                            x       y       z     vdW  Elec       q    Type
REMARK                         _______ _______ _______ _____ _____    ______ ____
ROOT
ATOM      1  O   LIG A   1     -10.887   7.962 125.455  0.00  0.00    -0.245 OA
ATOM      2  C   LIG A   1     -11.137   7.596 126.597  0.00  0.00    +0.337 A 
ATOM      3  C   LIG A   1     -12.512   7.242 126.990  0.00  0.00    +0.092 A 
ATOM      4  C   LIG A   1     -12.826   6.837 128.225  0.00  0.00    +0.019 A 
ATOM      5  O   LIG A   1     -10.158   7.490 127.575  0.00  0.00    -0.422 OA
ATOM      6  C   LIG A   1     -10.473   7.066 128.883  0.00  0.00    +0.143 A 
ATOM      7  C   LIG A   1     -11.781   6.736 129.231  0.00  0.00    +0.021 A 
ATOM      8  C   LIG A   1     -12.045   6.319 130.536  0.00  0.00    +0.060 A 
ATOM      9  C   LIG A   1     -10.998   6.242 131.459  0.00  0.00    +0.159 A 
ATOM     10  C   LIG A   1      -9.680   6.577 131.104  0.00  0.00    +0.165 A 
ATOM     11  C   LIG A   1      -9.421   6.992 129.797  0.00  0.00    +0.096 A 
ENDROOT
BRANCH   9  12
ATOM     12  O   LIG A   1     -11.255   5.834 132.742  0.00  0.00    -0.503 OA
ATOM     13  H   LIG A   1     -10.990   6.528 133.364  0.00  0.00    +0.292 HD
ENDBRANCH   9  12
BRANCH  10  14
ATOM     14  O   LIG A   1      -8.739   6.463 132.093  0.00  0.00    -0.491 OA
ATOM     15  C   LIG A   1      -7.374   6.456 131.701  0.00  0.00    +0.277 C 
ENDBRANCH  10  14
TORSDOF 2
ENDMDL
MODEL 2
REMARK VINA RESULT:      -5.9      2.161      4.736
REMARK  Name = NuBBE_1272
REMARK  3 active torsions:
REMARK  status: ('A' for Active; 'I' for Inactive)
REMARK    1  A    between atoms: C_9  and  O_10
REMARK    2  A    between atoms: C_11  and  O_12
REMARK    3  A    between atoms: O_12  and  C_13
REMARK                            x       y       z     vdW  Elec       q    Type
REMARK                         _______ _______ _______ _____ _____    ______ ____
ROOT
ATOM      1  O   LIG A   1      -5.715   6.577 131.091  0.00  0.00    -0.245 OA
ATOM      2  C   LIG A   1      -6.922   6.531 131.298  0.00  0.00    +0.337 A 
ATOM      3  C   LIG A   1      -7.451   5.898 132.519  0.00  0.00    +0.092 A 
ATOM      4  C   LIG A   1      -8.760   5.827 132.782  0.00  0.00    +0.019 A 
ATOM      5  O   LIG A   1      -7.849   7.062 130.413  0.00  0.00    -0.422 OA
ATOM      6  C   LIG A   1      -9.233   6.995 130.676  0.00  0.00    +0.143 A 
ATOM      7  C   LIG A   1      -9.711   6.392 131.838  0.00  0.00    +0.021 A 
ATOM      8  C   LIG A   1     -11.088   6.350 132.058  0.00  0.00    +0.060 A 
ATOM      9  C   LIG A   1     -11.953   6.910 131.113  0.00  0.00    +0.159 A 
ATOM     10  C   LIG A   1     -11.466   7.516 129.940  0.00  0.00    +0.165 A 
ATOM     11  C   LIG A   1     -10.088   7.556 129.727  0.00  0.00    +0.096 A 
ENDROOT
BRANCH   9  12
ATOM     12  O   LIG A   1     -13.306   6.870 131.325  0.00  0.00    -0.503 OA
ATOM     13  H   LIG A   1     -13.605   5.948 131.348  0.00  0.00    +0.292 HD
ENDBRANCH   9  12
BRANCH  10  14
ATOM     14  O   LIG A   1     -12.409   8.030 129.089  0.00  0.00    -0.491 OA
ATOM     15  C   LIG A   1     -12.731   9.406 129.223  0.00  0.00    +0.277 C 
ENDBRANCH  10  14
TORSDOF 2
ENDMDL
MODEL 3
REMARK VINA RESULT:      -5.8     10.551     11.529
REMARK  Name = NuBBE_1272
REMARK  3 active torsions:
REMARK  status: ('A' for Active; 'I' for Inactive)
REMARK    1  A    between atoms: C_9  and  O_10
REMARK    2  A    between atoms: C_11  and  O_12
REMARK    3  A    between atoms: O_12  and  C_13
REMARK                            x       y       z     vdW  Elec       q    Type
REMARK                         _______ _______ _______ _____ _____    ______ ____
ROOT
ATOM      1  O   LIG A   1      -5.604  -2.495 129.786  0.00  0.00    -0.245 OA
ATOM      2  C   LIG A   1      -6.443  -2.689 128.914  0.00  0.00    +0.337 A 
ATOM      3  C   LIG A   1      -7.727  -3.335 129.237  0.00  0.00    +0.092 A 
ATOM      4  C   LIG A   1      -8.668  -3.564 128.315  0.00  0.00    +0.019 A 
ATOM      5  O   LIG A   1      -6.241  -2.318 127.592  0.00  0.00    -0.422 OA
ATOM      6  C   LIG A   1      -7.223  -2.554 126.608  0.00  0.00    +0.143 A 
ATOM      7  C   LIG A   1      -8.431  -3.166 126.937  0.00  0.00    +0.021 A 
ATOM      8  C   LIG A   1      -9.375  -3.378 125.931  0.00  0.00    +0.060 A 
ATOM      9  C   LIG A   1      -9.089  -2.974 124.623  0.00  0.00    +0.159 A 
ATOM     10  C   LIG A   1      -7.868  -2.358 124.296  0.00  0.00    +0.165 A 
ATOM     11  C   LIG A   1      -6.929  -2.147 125.306  0.00  0.00    +0.096 A 
ENDROOT
BRANCH   9  12
ATOM     12  O   LIG A   1     -10.013  -3.181 123.633  0.00  0.00    -0.503 OA
ATOM     13  H   LIG A   1     -10.791  -2.626 123.793  0.00  0.00    +0.292 HD
ENDBRANCH   9  12
BRANCH  10  14
ATOM     14  O   LIG A   1      -7.701  -2.006 122.982  0.00  0.00    -0.491 OA
ATOM     15  C   LIG A   1      -6.374  -1.795 122.524  0.00  0.00    +0.277 C 
ENDBRANCH  10  14
TORSDOF 2
ENDMDL
MODEL 4
REMARK VINA RESULT:      -5.7      2.436      3.057
REMARK  Name = NuBBE_1272
REMARK  3 active torsions:
REMARK  status: ('A' for Active; 'I' for Inactive)
REMARK    1  A    between atoms: C_9  and  O_10
REMARK    2  A    between atoms: C_11  and  O_12
REMARK    3  A    between atoms: O_12  and  C_13
REMARK                            x       y       z     vdW  Elec       q    Type
REMARK                         _______ _______ _______ _____ _____    ______ ____
ROOT
ATOM      1  O   LIG A   1     -13.689   6.790 127.910  0.00  0.00    -0.245 OA
ATOM      2  C   LIG A   1     -13.013   6.671 128.924  0.00  0.00    +0.337 A 
ATOM      3  C   LIG A   1     -13.063   7.692 129.985  0.00  0.00    +0.092 A 
ATOM      4  C   LIG A   1     -12.341   7.600 131.107  0.00  0.00    +0.019 A 
ATOM      5  O   LIG A   1     -12.173   5.587 129.136  0.00  0.00    -0.422 OA
ATOM      6  C   LIG A   1     -11.405   5.475 130.313  0.00  0.00    +0.143 A 
ATOM      7  C   LIG A   1     -11.469   6.454 131.303  0.00  0.00    +0.021 A 
ATOM      8  C   LIG A   1     -10.692   6.301 132.453  0.00  0.00    +0.060 A 
ATOM      9  C   LIG A   1      -9.872   5.176 132.584  0.00  0.00    +0.159 A 
ATOM     10  C   LIG A   1      -9.809   4.192 131.581  0.00  0.00    +0.165 A 
ATOM     11  C   LIG A   1     -10.589   4.350 130.435  0.00  0.00    +0.096 A 
ENDROOT
BRANCH   9  12
ATOM     12  O   LIG A   1      -9.108   5.023 133.710  0.00  0.00    -0.503 OA
ATOM     13  H   LIG A   1      -8.997   5.881 134.148  0.00  0.00    +0.292 HD
ENDBRANCH   9  12
BRANCH  10  14
ATOM     14  O   LIG A   1      -8.970   3.136 131.822  0.00  0.00    -0.491 OA
ATOM     15  C   LIG A   1      -9.564   1.884 132.131  0.00  0.00    +0.277 C 
ENDBRANCH  10  14
TORSDOF 2
ENDMDL
MODEL 5
REMARK VINA RESULT:      -5.5      7.760      9.020
REMARK  Name = NuBBE_1272
REMARK  3 active torsions:
REMARK  status: ('A' for Active; 'I' for Inactive)
REMARK    1  A    between atoms: C_9  and  O_10
REMARK    2  A    between atoms: C_11  and  O_12
REMARK    3  A    between atoms: O_12  and  C_13
REMARK                            x       y       z     vdW  Elec       q    Type
REMARK                         _______ _______ _______ _____ _____    ______ ____
ROOT
ATOM      1  O   LIG A   1      -6.180   5.339 118.237  0.00  0.00    -0.245 OA
ATOM      2  C   LIG A   1      -6.758   4.785 119.164  0.00  0.00    +0.337 A 
ATOM      3  C   LIG A   1      -8.197   4.477 119.077  0.00  0.00    +0.092 A 
ATOM      4  C   LIG A   1      -8.864   3.873 120.066  0.00  0.00    +0.019 A 
ATOM      5  O   LIG A   1      -6.107   4.417 120.333  0.00  0.00    -0.422 OA
ATOM      6  C   LIG A   1      -6.797   3.780 121.385  0.00  0.00    +0.143 A 
ATOM      7  C   LIG A   1      -8.158   3.498 121.280  0.00  0.00    +0.021 A 
ATOM      8  C   LIG A   1      -8.799   2.865 122.346  0.00  0.00    +0.060 A 
ATOM      9  C   LIG A   1      -8.066   2.530 123.488  0.00  0.00    +0.159 A 
ATOM     10  C   LIG A   1      -6.693   2.818 123.591  0.00  0.00    +0.165 A 
ATOM     11  C   LIG A   1      -6.057   3.449 122.521  0.00  0.00    +0.096 A 
ENDROOT
BRANCH   9  12
ATOM     12  O   LIG A   1      -8.692   1.909 124.537  0.00  0.00    -0.503 OA
ATOM     13  H   LIG A   1      -9.320   2.521 124.950  0.00  0.00    +0.292 HD
ENDBRANCH   9  12
BRANCH  10  14
ATOM     14  O   LIG A   1      -6.082   2.442 124.758  0.00  0.00    -0.491 OA
ATOM     15  C   LIG A   1      -5.366   3.439 125.473  0.00  0.00    +0.277 C 
ENDBRANCH  10  14
TORSDOF 2
ENDMDL
MODEL 6
REMARK VINA RESULT:      -5.5      6.931      8.194
REMARK  Name = NuBBE_1272
REMARK  3 active torsions:
REMARK  status: ('A' for Active; 'I' for Inactive)
REMARK    1  A    between atoms: C_9  and  O_10
REMARK    2  A    between atoms: C_11  and  O_12
REMARK    3  A    between atoms: O_12  and  C_13
REMARK                            x       y       z     vdW  Elec       q    Type
REMARK                         _______ _______ _______ _____ _____    ______ ____
ROOT
ATOM      1  O   LIG A   1      -3.815   5.126 121.676  0.00  0.00    -0.245 OA
ATOM      2  C   LIG A   1      -4.889   4.592 121.926  0.00  0.00    +0.337 A 
ATOM      3  C   LIG A   1      -5.771   4.133 120.839  0.00  0.00    +0.092 A 
ATOM      4  C   LIG A   1      -6.950   3.546 121.070  0.00  0.00    +0.019 A 
ATOM      5  O   LIG A   1      -5.334   4.389 123.225  0.00  0.00    -0.422 OA
ATOM      6  C   LIG A   1      -6.575   3.772 123.484  0.00  0.00    +0.143 A 
ATOM      7  C   LIG A   1      -7.393   3.345 122.440  0.00  0.00    +0.021 A 
ATOM      8  C   LIG A   1      -8.612   2.738 122.744  0.00  0.00    +0.060 A 
ATOM      9  C   LIG A   1      -8.984   2.573 124.081  0.00  0.00    +0.159 A 
ATOM     10  C   LIG A   1      -8.156   3.007 125.132  0.00  0.00    +0.165 A 
ATOM     11  C   LIG A   1      -6.938   3.612 124.822  0.00  0.00    +0.096 A 
ENDROOT
BRANCH   9  12
ATOM     12  O   LIG A   1     -10.180   1.978 124.384  0.00  0.00    -0.503 OA
ATOM     13  H   LIG A   1     -10.604   2.452 125.115  0.00  0.00    +0.292 HD
ENDBRANCH   9  12
BRANCH  10  14
ATOM     14  O   LIG A   1      -8.626   2.791 126.401  0.00  0.00    -0.491 OA
ATOM     15  C   LIG A   1      -7.965   1.810 127.186  0.00  0.00    +0.277 C 
ENDBRANCH  10  14
TORSDOF 2
ENDMDL
MODEL 7
REMARK VINA RESULT:      -5.2     10.490     10.571
REMARK  Name = NuBBE_1272
REMARK  3 active torsions:
REMARK  status: ('A' for Active; 'I' for Inactive)
REMARK    1  A    between atoms: C_9  and  O_10
REMARK    2  A    between atoms: C_11  and  O_12
REMARK    3  A    between atoms: O_12  and  C_13
REMARK                            x       y       z     vdW  Elec       q    Type
REMARK                         _______ _______ _______ _____ _____    ______ ____
ROOT
ATOM      1  O   LIG A   1      -6.889  -1.891 122.214  0.00  0.00    -0.245 OA
ATOM      2  C   LIG A   1      -7.321  -2.209 123.316  0.00  0.00    +0.337 A 
ATOM      3  C   LIG A   1      -8.655  -2.821 123.452  0.00  0.00    +0.092 A 
ATOM      4  C   LIG A   1      -9.163  -3.183 124.634  0.00  0.00    +0.019 A 
ATOM      5  O   LIG A   1      -6.596  -2.019 124.483  0.00  0.00    -0.422 OA
ATOM      6  C   LIG A   1      -7.118  -2.394 125.738  0.00  0.00    +0.143 A 
ATOM      7  C   LIG A   1      -8.382  -2.972 125.842  0.00  0.00    +0.021 A 
ATOM      8  C   LIG A   1      -8.857  -3.329 127.105  0.00  0.00    +0.060 A 
ATOM      9  C   LIG A   1      -8.060  -3.100 128.230  0.00  0.00    +0.159 A 
ATOM     10  C   LIG A   1      -6.785  -2.515 128.121  0.00  0.00    +0.165 A 
ATOM     11  C   LIG A   1      -6.315  -2.162 126.856  0.00  0.00    +0.096 A 
ENDROOT
BRANCH   9  12
ATOM     12  O   LIG A   1      -8.523  -3.449 129.471  0.00  0.00    -0.503 OA
ATOM     13  H   LIG A   1      -9.292  -4.032 129.380  0.00  0.00    +0.292 HD
ENDBRANCH   9  12
BRANCH  10  14
ATOM     14  O   LIG A   1      -6.097  -2.341 129.293  0.00  0.00    -0.491 OA
ATOM     15  C   LIG A   1      -4.975  -3.181 129.524  0.00  0.00    +0.277 C 
ENDBRANCH  10  14
TORSDOF 2
ENDMDL
MODEL 8
REMARK VINA RESULT:      -5.2     10.456     10.802
REMARK  Name = NuBBE_1272
REMARK  3 active torsions:
REMARK  status: ('A' for Active; 'I' for Inactive)
REMARK    1  A    between atoms: C_9  and  O_10
REMARK    2  A    between atoms: C_11  and  O_12
REMARK    3  A    between atoms: O_12  and  C_13
REMARK                            x       y       z     vdW  Elec       q    Type
REMARK                         _______ _______ _______ _____ _____    ______ ____
ROOT
ATOM      1  O   LIG A   1     -10.026  -3.337 123.272  0.00  0.00    -0.245 OA
ATOM      2  C   LIG A   1      -9.052  -3.002 123.934  0.00  0.00    +0.337 A 
ATOM      3  C   LIG A   1      -7.855  -2.441 123.281  0.00  0.00    +0.092 A 
ATOM      4  C   LIG A   1      -6.772  -2.063 123.968  0.00  0.00    +0.019 A 
ATOM      5  O   LIG A   1      -9.013  -3.125 125.316  0.00  0.00    -0.422 OA
ATOM      6  C   LIG A   1      -7.878  -2.731 126.054  0.00  0.00    +0.143 A 
ATOM      7  C   LIG A   1      -6.758  -2.202 125.415  0.00  0.00    +0.021 A 
ATOM      8  C   LIG A   1      -5.659  -1.824 126.186  0.00  0.00    +0.060 A 
ATOM      9  C   LIG A   1      -5.704  -1.984 127.574  0.00  0.00    +0.159 A 
ATOM     10  C   LIG A   1      -6.836  -2.519 128.215  0.00  0.00    +0.165 A 
ATOM     11  C   LIG A   1      -7.933  -2.894 127.439  0.00  0.00    +0.096 A 
ENDROOT
BRANCH   9  12
ATOM     12  O   LIG A   1      -4.626  -1.615 128.335  0.00  0.00    -0.503 OA
ATOM     13  H   LIG A   1      -4.929  -1.114 129.107  0.00  0.00    +0.292 HD
ENDBRANCH   9  12
BRANCH  10  14
ATOM     14  O   LIG A   1      -6.764  -2.627 129.579  0.00  0.00    -0.491 OA
ATOM     15  C   LIG A   1      -6.484  -3.910 130.120  0.00  0.00    +0.277 C 
ENDBRANCH  10  14
TORSDOF 2
ENDMDL
MODEL 9
REMARK VINA RESULT:      -4.9      8.558      9.168
REMARK  Name = NuBBE_1272
REMARK  3 active torsions:
REMARK  status: ('A' for Active; 'I' for Inactive)
REMARK    1  A    between atoms: C_9  and  O_10
REMARK    2  A    between atoms: C_11  and  O_12
REMARK    3  A    between atoms: O_12  and  C_13
REMARK                            x       y       z     vdW  Elec       q    Type
REMARK                         _______ _______ _______ _____ _____    ______ ____
ROOT
ATOM      1  O   LIG A   1      -9.788  -3.484 123.328  0.00  0.00    -0.245 OA
ATOM      2  C   LIG A   1      -9.136  -2.482 123.598  0.00  0.00    +0.337 A 
ATOM      3  C   LIG A   1      -7.928  -2.141 122.825  0.00  0.00    +0.092 A 
ATOM      4  C   LIG A   1      -7.190  -1.057 123.087  0.00  0.00    +0.019 A 
ATOM      5  O   LIG A   1      -9.486  -1.621 124.628  0.00  0.00    -0.422 OA
ATOM      6  C   LIG A   1      -8.717  -0.475 124.917  0.00  0.00    +0.143 A 
ATOM      7  C   LIG A   1      -7.579  -0.172 124.172  0.00  0.00    +0.021 A 
ATOM      8  C   LIG A   1      -6.850   0.974 124.493  0.00  0.00    +0.060 A 
ATOM      9  C   LIG A   1      -7.274   1.786 125.548  0.00  0.00    +0.159 A 
ATOM     10  C   LIG A   1      -8.423   1.476 126.299  0.00  0.00    +0.165 A 
ATOM     11  C   LIG A   1      -9.149   0.330 125.972  0.00  0.00    +0.096 A 
ENDROOT
BRANCH   9  12
ATOM     12  O   LIG A   1      -6.560   2.912 125.867  0.00  0.00    -0.503 OA
ATOM     13  H   LIG A   1      -6.981   3.364 126.614  0.00  0.00    +0.292 HD
ENDBRANCH   9  12
BRANCH  10  14
ATOM     14  O   LIG A   1      -8.740   2.347 127.308  0.00  0.00    -0.491 OA
ATOM     15  C   LIG A   1      -8.553   1.898 128.642  0.00  0.00    +0.277 C 
ENDBRANCH  10  14
TORSDOF 2
ENDMDL
