MODEL 1
REMARK VINA RESULT:      -9.4      0.000      0.000
REMARK  Name = NuBBE_2253
REMARK  15 active torsions:
REMARK  status: ('A' for Active; 'I' for Inactive)
REMARK    1  A    between atoms: C_1  and  C_2
REMARK    2  A    between atoms: C_5  and  C_6
REMARK    3  A    between atoms: C_11  and  C_12
REMARK    4  A    between atoms: C_11  and  C_13
REMARK    5  A    between atoms: C_14  and  O_18
REMARK    6  A    between atoms: C_23  and  C_24
REMARK    7  A    between atoms: C_27  and  C_29
REMARK    8  A    between atoms: C_29  and  C_30
REMARK    9  A    between atoms: C_29  and  C_37
REMARK   10  A    between atoms: C_29  and  O_38
REMARK   11  A    between atoms: C_30  and  C_31
REMARK   12  A    between atoms: C_31  and  C_32
REMARK   13  A    between atoms: C_32  and  C_34
REMARK   14  A    between atoms: C_34  and  C_35
REMARK   15  A    between atoms: C_34  and  C_36
REMARK                            x       y       z     vdW  Elec       q    Type
REMARK                         _______ _______ _______ _____ _____    ______ ____
ROOT
ATOM      1  C   LIG A   1      -6.351   2.169 130.954  0.00  0.00    +0.012 C 
ATOM      2  C   LIG A   1      -7.698   1.371 130.961  0.00  0.00    -0.023 C 
ATOM      3  C   LIG A   1      -8.164   1.040 129.500  0.00  0.00    +0.002 C 
ATOM      4  C   LIG A   1      -7.290  -0.019 128.704  0.00  0.00    -0.025 C 
ATOM      5  C   LIG A   1      -5.911   0.567 128.320  0.00  0.00    +0.012 C 
ATOM      6  C   LIG A   1      -7.204  -1.306 129.609  0.00  0.00    +0.003 C 
ATOM      7  C   LIG A   1      -6.591  -0.980 130.985  0.00  0.00    +0.005 C 
ATOM      8  C   LIG A   1      -7.442   0.048 131.737  0.00  0.00    +0.008 C 
ATOM      9  C   LIG A   1      -6.628  -2.597 128.924  0.00  0.00    -0.006 C 
ATOM     10  C   LIG A   1      -5.105  -2.537 128.686  0.00  0.00    +0.014 C 
ATOM     11  C   LIG A   1      -6.870  -3.824 129.845  0.00  0.00    +0.014 C 
ATOM     12  C   LIG A   1      -7.364  -2.851 127.573  0.00  0.00    +0.120 C 
ATOM     13  C   LIG A   1      -7.455  -1.620 126.673  0.00  0.00    +0.032 C 
ATOM     14  C   LIG A   1      -8.032  -0.395 127.387  0.00  0.00    +0.010 C 
ATOM     15  C   LIG A   1      -8.550   2.302 128.695  0.00  0.00    +0.005 C 
ATOM     16  C   LIG A   1      -8.585   3.612 129.482  0.00  0.00    +0.005 C 
ATOM     17  C   LIG A   1      -9.237   3.517 130.867  0.00  0.00    +0.001 C 
ATOM     18  C   LIG A   1      -8.867   2.211 131.662  0.00  0.00    -0.023 C 
ATOM     19  C   LIG A   1     -10.205   1.415 131.813  0.00  0.00    +0.012 C 
ATOM     20  C   LIG A   1      -8.491   2.680 133.091  0.00  0.00    +0.008 C 
ATOM     21  C   LIG A   1      -9.056   4.084 133.213  0.00  0.00    +0.007 C 
ATOM     22  C   LIG A   1      -8.905   4.712 131.809  0.00  0.00    +0.024 C 
ENDROOT
BRANCH  12  23
ATOM     23  O   LIG A   1      -8.690  -3.345 127.789  0.00  0.00    -0.391 OA
ATOM     24  H   LIG A   1      -9.066  -3.613 126.935  0.00  0.00    +0.210 HD
ENDBRANCH  12  23
BRANCH  22  25
ATOM     25  C   LIG A   1      -9.796   5.985 131.649  0.00  0.00    +0.067 C 
ATOM     26  C   LIG A   1      -9.063   7.072 130.843  0.00  0.00    +0.041 C 
BRANCH  25  27
ATOM     27  O   LIG A   1     -10.018   6.522 132.968  0.00  0.00    -0.389 OA
ATOM     28  H   LIG A   1      -9.347   6.149 133.565  0.00  0.00    +0.210 HD
ENDBRANCH  25  27
BRANCH  25  29
ATOM     29  C   LIG A   1     -11.204   5.750 131.054  0.00  0.00    +0.039 C 
BRANCH  29  30
ATOM     30  C   LIG A   1     -12.244   6.865 131.276  0.00  0.00    +0.033 C 
BRANCH  30  31
ATOM     31  C   LIG A   1     -12.462   7.838 130.116  0.00  0.00    -0.074 C 
ATOM     32  C   LIG A   1     -12.905   9.101 130.318  0.00  0.00    +0.008 C 
BRANCH  31  33
ATOM     33  C   LIG A   1     -12.196   7.278 128.707  0.00  0.00    +0.008 C 
ATOM     34  C   LIG A   1     -13.458   7.099 127.843  0.00  0.00    +0.012 C 
ATOM     35  C   LIG A   1     -11.191   8.119 127.902  0.00  0.00    +0.012 C 
ENDBRANCH  31  33
ENDBRANCH  30  31
ENDBRANCH  29  30
ENDBRANCH  25  29
ENDBRANCH  22  25
TORSDOF 7
ENDMDL
MODEL 2
REMARK VINA RESULT:      -9.0      4.299      9.177
REMARK  Name = NuBBE_2253
REMARK  15 active torsions:
REMARK  status: ('A' for Active; 'I' for Inactive)
REMARK    1  A    between atoms: C_1  and  C_2
REMARK    2  A    between atoms: C_5  and  C_6
REMARK    3  A    between atoms: C_11  and  C_12
REMARK    4  A    between atoms: C_11  and  C_13
REMARK    5  A    between atoms: C_14  and  O_18
REMARK    6  A    between atoms: C_23  and  C_24
REMARK    7  A    between atoms: C_27  and  C_29
REMARK    8  A    between atoms: C_29  and  C_30
REMARK    9  A    between atoms: C_29  and  C_37
REMARK   10  A    between atoms: C_29  and  O_38
REMARK   11  A    between atoms: C_30  and  C_31
REMARK   12  A    between atoms: C_31  and  C_32
REMARK   13  A    between atoms: C_32  and  C_34
REMARK   14  A    between atoms: C_34  and  C_35
REMARK   15  A    between atoms: C_34  and  C_36
REMARK                            x       y       z     vdW  Elec       q    Type
REMARK                         _______ _______ _______ _____ _____    ______ ____
ROOT
ATOM      1  C   LIG A   1      -4.633   1.806 126.404  0.00  0.00    +0.012 C 
ATOM      2  C   LIG A   1      -5.685   2.964 126.424  0.00  0.00    -0.023 C 
ATOM      3  C   LIG A   1      -6.265   3.173 127.867  0.00  0.00    +0.002 C 
ATOM      4  C   LIG A   1      -5.269   3.768 128.948  0.00  0.00    -0.025 C 
ATOM      5  C   LIG A   1      -4.186   2.734 129.342  0.00  0.00    +0.012 C 
ATOM      6  C   LIG A   1      -4.685   5.099 128.342  0.00  0.00    +0.003 C 
ATOM      7  C   LIG A   1      -3.977   4.837 126.998  0.00  0.00    +0.005 C 
ATOM      8  C   LIG A   1      -4.952   4.257 125.968  0.00  0.00    +0.008 C 
ATOM      9  C   LIG A   1      -3.888   6.021 129.333  0.00  0.00    -0.006 C 
ATOM     10  C   LIG A   1      -2.500   5.462 129.708  0.00  0.00    +0.014 C 
ATOM     11  C   LIG A   1      -3.629   7.399 128.665  0.00  0.00    +0.014 C 
ATOM     12  C   LIG A   1      -4.728   6.257 130.626  0.00  0.00    +0.120 C 
ATOM     13  C   LIG A   1      -5.300   4.980 131.239  0.00  0.00    +0.032 C 
ATOM     14  C   LIG A   1      -6.075   4.125 130.232  0.00  0.00    +0.010 C 
ATOM     15  C   LIG A   1      -7.110   1.971 128.350  0.00  0.00    +0.005 C 
ATOM     16  C   LIG A   1      -7.384   0.885 127.311  0.00  0.00    +0.005 C 
ATOM     17  C   LIG A   1      -7.756   1.403 125.917  0.00  0.00    +0.001 C 
ATOM     18  C   LIG A   1      -6.916   2.648 125.449  0.00  0.00    -0.023 C 
ATOM     19  C   LIG A   1      -7.937   3.827 125.330  0.00  0.00    +0.012 C 
ATOM     20  C   LIG A   1      -6.465   2.333 124.001  0.00  0.00    +0.008 C 
ATOM     21  C   LIG A   1      -7.371   1.208 123.535  0.00  0.00    +0.007 C 
ATOM     22  C   LIG A   1      -7.626   0.339 124.787  0.00  0.00    +0.024 C 
ENDROOT
BRANCH  12  23
ATOM     23  O   LIG A   1      -5.812   7.160 130.383  0.00  0.00    -0.391 OA
ATOM     24  H   LIG A   1      -6.502   7.005 131.047  0.00  0.00    +0.210 HD
ENDBRANCH  12  23
BRANCH  22  25
ATOM     25  C   LIG A   1      -8.850  -0.611 124.589  0.00  0.00    +0.067 C 
ATOM     26  C   LIG A   1      -9.184  -0.775 123.095  0.00  0.00    +0.041 C 
BRANCH  25  27
ATOM     27  O   LIG A   1      -9.988   0.022 125.204  0.00  0.00    -0.389 OA
ATOM     28  H   LIG A   1     -10.760  -0.557 125.084  0.00  0.00    +0.210 HD
ENDBRANCH  25  27
BRANCH  25  29
ATOM     29  C   LIG A   1      -8.737  -2.002 125.256  0.00  0.00    +0.039 C 
BRANCH  29  30
ATOM     30  C   LIG A   1      -7.674  -2.959 124.684  0.00  0.00    +0.033 C 
BRANCH  30  31
ATOM     31  C   LIG A   1      -6.216  -2.645 125.025  0.00  0.00    -0.074 C 
ATOM     32  C   LIG A   1      -5.823  -2.362 126.289  0.00  0.00    +0.008 C 
BRANCH  31  33
ATOM     33  C   LIG A   1      -5.236  -2.622 123.838  0.00  0.00    +0.008 C 
ATOM     34  C   LIG A   1      -4.500  -3.952 123.592  0.00  0.00    +0.012 C 
ATOM     35  C   LIG A   1      -5.898  -2.198 122.516  0.00  0.00    +0.012 C 
ENDBRANCH  31  33
ENDBRANCH  30  31
ENDBRANCH  29  30
ENDBRANCH  25  29
ENDBRANCH  22  25
TORSDOF 7
ENDMDL
MODEL 3
REMARK VINA RESULT:      -8.8      2.403      8.316
REMARK  Name = NuBBE_2253
REMARK  15 active torsions:
REMARK  status: ('A' for Active; 'I' for Inactive)
REMARK    1  A    between atoms: C_1  and  C_2
REMARK    2  A    between atoms: C_5  and  C_6
REMARK    3  A    between atoms: C_11  and  C_12
REMARK    4  A    between atoms: C_11  and  C_13
REMARK    5  A    between atoms: C_14  and  O_18
REMARK    6  A    between atoms: C_23  and  C_24
REMARK    7  A    between atoms: C_27  and  C_29
REMARK    8  A    between atoms: C_29  and  C_30
REMARK    9  A    between atoms: C_29  and  C_37
REMARK   10  A    between atoms: C_29  and  O_38
REMARK   11  A    between atoms: C_30  and  C_31
REMARK   12  A    between atoms: C_31  and  C_32
REMARK   13  A    between atoms: C_32  and  C_34
REMARK   14  A    between atoms: C_34  and  C_35
REMARK   15  A    between atoms: C_34  and  C_36
REMARK                            x       y       z     vdW  Elec       q    Type
REMARK                         _______ _______ _______ _____ _____    ______ ____
ROOT
ATOM      1  C   LIG A   1      -6.624   1.527 133.557  0.00  0.00    +0.012 C 
ATOM      2  C   LIG A   1      -6.390   1.872 132.049  0.00  0.00    -0.023 C 
ATOM      3  C   LIG A   1      -7.736   1.819 131.244  0.00  0.00    +0.002 C 
ATOM      4  C   LIG A   1      -8.794   2.957 131.564  0.00  0.00    -0.025 C 
ATOM      5  C   LIG A   1      -9.421   2.763 132.965  0.00  0.00    +0.012 C 
ATOM      6  C   LIG A   1      -8.048   4.333 131.387  0.00  0.00    +0.003 C 
ATOM      7  C   LIG A   1      -6.817   4.423 132.311  0.00  0.00    +0.005 C 
ATOM      8  C   LIG A   1      -5.809   3.314 131.994  0.00  0.00    +0.008 C 
ATOM      9  C   LIG A   1      -8.953   5.616 131.375  0.00  0.00    -0.006 C 
ATOM     10  C   LIG A   1      -9.515   5.983 132.764  0.00  0.00    +0.014 C 
ATOM     11  C   LIG A   1      -8.113   6.840 130.916  0.00  0.00    +0.014 C 
ATOM     12  C   LIG A   1     -10.126   5.426 130.365  0.00  0.00    +0.120 C 
ATOM     13  C   LIG A   1     -10.872   4.102 130.520  0.00  0.00    +0.032 C 
ATOM     14  C   LIG A   1      -9.943   2.885 130.514  0.00  0.00    +0.010 C 
ATOM     15  C   LIG A   1      -8.322   0.391 131.153  0.00  0.00    +0.005 C 
ATOM     16  C   LIG A   1      -7.435  -0.730 131.691  0.00  0.00    +0.005 C 
ATOM     17  C   LIG A   1      -5.954  -0.626 131.306  0.00  0.00    +0.001 C 
ATOM     18  C   LIG A   1      -5.377   0.837 131.365  0.00  0.00    -0.023 C 
ATOM     19  C   LIG A   1      -5.006   1.206 129.892  0.00  0.00    +0.012 C 
ATOM     20  C   LIG A   1      -4.032   0.728 132.126  0.00  0.00    +0.008 C 
ATOM     21  C   LIG A   1      -3.666  -0.744 132.084  0.00  0.00    +0.007 C 
ATOM     22  C   LIG A   1      -5.007  -1.505 132.175  0.00  0.00    +0.024 C 
ENDROOT
BRANCH  12  23
ATOM     23  O   LIG A   1      -9.668   5.524 129.013  0.00  0.00    -0.391 OA
ATOM     24  H   LIG A   1     -10.422   5.392 128.417  0.00  0.00    +0.210 HD
ENDBRANCH  12  23
BRANCH  22  25
ATOM     25  C   LIG A   1      -4.854  -2.997 131.735  0.00  0.00    +0.067 C 
ATOM     26  C   LIG A   1      -5.728  -3.918 132.604  0.00  0.00    +0.041 C 
BRANCH  25  27
ATOM     27  O   LIG A   1      -3.484  -3.375 131.972  0.00  0.00    -0.389 OA
ATOM     28  H   LIG A   1      -2.909  -2.732 131.524  0.00  0.00    +0.210 HD
ENDBRANCH  25  27
BRANCH  25  29
ATOM     29  C   LIG A   1      -5.113  -3.286 130.238  0.00  0.00    +0.039 C 
BRANCH  29  30
ATOM     30  C   LIG A   1      -6.480  -3.898 129.879  0.00  0.00    +0.033 C 
BRANCH  30  31
ATOM     31  C   LIG A   1      -7.323  -3.138 128.854  0.00  0.00    -0.074 C 
ATOM     32  C   LIG A   1      -8.590  -3.510 128.554  0.00  0.00    +0.008 C 
BRANCH  31  33
ATOM     33  C   LIG A   1      -6.627  -1.959 128.150  0.00  0.00    +0.008 C 
ATOM     34  C   LIG A   1      -5.921  -2.330 126.833  0.00  0.00    +0.012 C 
ATOM     35  C   LIG A   1      -7.574  -0.783 127.861  0.00  0.00    +0.012 C 
ENDBRANCH  31  33
ENDBRANCH  30  31
ENDBRANCH  29  30
ENDBRANCH  25  29
ENDBRANCH  22  25
TORSDOF 7
ENDMDL
MODEL 4
REMARK VINA RESULT:      -8.7      3.613      6.089
REMARK  Name = NuBBE_2253
REMARK  15 active torsions:
REMARK  status: ('A' for Active; 'I' for Inactive)
REMARK    1  A    between atoms: C_1  and  C_2
REMARK    2  A    between atoms: C_5  and  C_6
REMARK    3  A    between atoms: C_11  and  C_12
REMARK    4  A    between atoms: C_11  and  C_13
REMARK    5  A    between atoms: C_14  and  O_18
REMARK    6  A    between atoms: C_23  and  C_24
REMARK    7  A    between atoms: C_27  and  C_29
REMARK    8  A    between atoms: C_29  and  C_30
REMARK    9  A    between atoms: C_29  and  C_37
REMARK   10  A    between atoms: C_29  and  O_38
REMARK   11  A    between atoms: C_30  and  C_31
REMARK   12  A    between atoms: C_31  and  C_32
REMARK   13  A    between atoms: C_32  and  C_34
REMARK   14  A    between atoms: C_34  and  C_35
REMARK   15  A    between atoms: C_34  and  C_36
REMARK                            x       y       z     vdW  Elec       q    Type
REMARK                         _______ _______ _______ _____ _____    ______ ____
ROOT
ATOM      1  C   LIG A   1      -7.918  -0.370 128.865  0.00  0.00    +0.012 C 
ATOM      2  C   LIG A   1      -7.704   0.536 127.608  0.00  0.00    -0.023 C 
ATOM      3  C   LIG A   1      -6.418   0.108 126.817  0.00  0.00    +0.002 C 
ATOM      4  C   LIG A   1      -6.484  -1.289 126.068  0.00  0.00    -0.025 C 
ATOM      5  C   LIG A   1      -6.472  -2.466 127.073  0.00  0.00    +0.012 C 
ATOM      6  C   LIG A   1      -7.762  -1.251 125.150  0.00  0.00    +0.003 C 
ATOM      7  C   LIG A   1      -9.036  -0.987 125.977  0.00  0.00    +0.005 C 
ATOM      8  C   LIG A   1      -8.954   0.362 126.699  0.00  0.00    +0.008 C 
ATOM      9  C   LIG A   1      -7.894  -2.407 124.095  0.00  0.00    -0.006 C 
ATOM     10  C   LIG A   1      -8.259  -3.769 124.722  0.00  0.00    +0.014 C 
ATOM     11  C   LIG A   1      -9.038  -2.073 123.099  0.00  0.00    +0.014 C 
ATOM     12  C   LIG A   1      -6.568  -2.538 123.287  0.00  0.00    +0.120 C 
ATOM     13  C   LIG A   1      -5.311  -2.585 124.155  0.00  0.00    +0.032 C 
ATOM     14  C   LIG A   1      -5.229  -1.429 125.156  0.00  0.00    +0.010 C 
ATOM     15  C   LIG A   1      -5.116   0.360 127.613  0.00  0.00    +0.005 C 
ATOM     16  C   LIG A   1      -5.273   1.125 128.926  0.00  0.00    +0.005 C 
ATOM     17  C   LIG A   1      -6.223   2.328 128.864  0.00  0.00    +0.001 C 
ATOM     18  C   LIG A   1      -7.527   2.074 128.022  0.00  0.00    -0.023 C 
ATOM     19  C   LIG A   1      -7.436   3.044 126.799  0.00  0.00    +0.012 C 
ATOM     20  C   LIG A   1      -8.698   2.597 128.891  0.00  0.00    +0.008 C 
ATOM     21  C   LIG A   1      -8.055   3.494 129.932  0.00  0.00    +0.007 C 
ATOM     22  C   LIG A   1      -6.696   2.837 130.258  0.00  0.00    +0.024 C 
ENDROOT
BRANCH  12  23
ATOM     23  O   LIG A   1      -6.422  -1.465 122.350  0.00  0.00    -0.391 OA
ATOM     24  H   LIG A   1      -6.412  -1.833 121.452  0.00  0.00    +0.210 HD
ENDBRANCH  12  23
BRANCH  22  25
ATOM     25  C   LIG A   1      -5.737   3.831 130.991  0.00  0.00    +0.067 C 
ATOM     26  C   LIG A   1      -4.833   3.087 131.989  0.00  0.00    +0.041 C 
BRANCH  25  27
ATOM     27  O   LIG A   1      -6.559   4.729 131.762  0.00  0.00    -0.389 OA
ATOM     28  H   LIG A   1      -7.365   4.917 131.252  0.00  0.00    +0.210 HD
ENDBRANCH  25  27
BRANCH  25  29
ATOM     29  C   LIG A   1      -4.878   4.734 130.076  0.00  0.00    +0.039 C 
BRANCH  29  30
ATOM     30  C   LIG A   1      -3.444   4.253 129.781  0.00  0.00    +0.033 C 
BRANCH  30  31
ATOM     31  C   LIG A   1      -2.886   4.575 128.394  0.00  0.00    -0.074 C 
ATOM     32  C   LIG A   1      -2.392   5.799 128.090  0.00  0.00    +0.008 C 
BRANCH  31  33
ATOM     33  C   LIG A   1      -2.968   3.443 127.354  0.00  0.00    +0.008 C 
ATOM     34  C   LIG A   1      -3.917   3.727 126.176  0.00  0.00    +0.012 C 
ATOM     35  C   LIG A   1      -1.598   3.056 126.773  0.00  0.00    +0.012 C 
ENDBRANCH  31  33
ENDBRANCH  30  31
ENDBRANCH  29  30
ENDBRANCH  25  29
ENDBRANCH  22  25
TORSDOF 7
ENDMDL
MODEL 5
REMARK VINA RESULT:      -8.5      1.980      3.418
REMARK  Name = NuBBE_2253
REMARK  15 active torsions:
REMARK  status: ('A' for Active; 'I' for Inactive)
REMARK    1  A    between atoms: C_1  and  C_2
REMARK    2  A    between atoms: C_5  and  C_6
REMARK    3  A    between atoms: C_11  and  C_12
REMARK    4  A    between atoms: C_11  and  C_13
REMARK    5  A    between atoms: C_14  and  O_18
REMARK    6  A    between atoms: C_23  and  C_24
REMARK    7  A    between atoms: C_27  and  C_29
REMARK    8  A    between atoms: C_29  and  C_30
REMARK    9  A    between atoms: C_29  and  C_37
REMARK   10  A    between atoms: C_29  and  O_38
REMARK   11  A    between atoms: C_30  and  C_31
REMARK   12  A    between atoms: C_31  and  C_32
REMARK   13  A    between atoms: C_32  and  C_34
REMARK   14  A    between atoms: C_34  and  C_35
REMARK   15  A    between atoms: C_34  and  C_36
REMARK                            x       y       z     vdW  Elec       q    Type
REMARK                         _______ _______ _______ _____ _____    ______ ____
ROOT
ATOM      1  C   LIG A   1      -9.097   0.252 131.759  0.00  0.00    +0.012 C 
ATOM      2  C   LIG A   1      -7.796   0.725 131.031  0.00  0.00    -0.023 C 
ATOM      3  C   LIG A   1      -6.545   0.586 131.969  0.00  0.00    +0.002 C 
ATOM      4  C   LIG A   1      -6.078  -0.891 132.308  0.00  0.00    -0.025 C 
ATOM      5  C   LIG A   1      -7.083  -1.595 133.251  0.00  0.00    +0.012 C 
ATOM      6  C   LIG A   1      -5.875  -1.630 130.932  0.00  0.00    +0.003 C 
ATOM      7  C   LIG A   1      -7.171  -1.619 130.096  0.00  0.00    +0.005 C 
ATOM      8  C   LIG A   1      -7.611  -0.185 129.784  0.00  0.00    +0.008 C 
ATOM      9  C   LIG A   1      -5.146  -3.020 130.991  0.00  0.00    -0.006 C 
ATOM     10  C   LIG A   1      -6.019  -4.145 131.583  0.00  0.00    +0.014 C 
ATOM     11  C   LIG A   1      -4.778  -3.474 129.552  0.00  0.00    +0.014 C 
ATOM     12  C   LIG A   1      -3.827  -2.889 131.812  0.00  0.00    +0.120 C 
ATOM     13  C   LIG A   1      -3.997  -2.182 133.156  0.00  0.00    +0.032 C 
ATOM     14  C   LIG A   1      -4.703  -0.829 133.038  0.00  0.00    +0.010 C 
ATOM     15  C   LIG A   1      -6.596   1.548 133.179  0.00  0.00    +0.005 C 
ATOM     16  C   LIG A   1      -7.732   2.570 133.173  0.00  0.00    +0.005 C 
ATOM     17  C   LIG A   1      -7.992   3.240 131.818  0.00  0.00    +0.001 C 
ATOM     18  C   LIG A   1      -7.901   2.261 130.590  0.00  0.00    -0.023 C 
ATOM     19  C   LIG A   1      -6.680   2.754 129.745  0.00  0.00    +0.012 C 
ATOM     20  C   LIG A   1      -9.155   2.549 129.727  0.00  0.00    +0.008 C 
ATOM     21  C   LIG A   1      -9.661   3.901 130.194  0.00  0.00    +0.007 C 
ATOM     22  C   LIG A   1      -9.377   3.945 131.712  0.00  0.00    +0.024 C 
ENDROOT
BRANCH  12  23
ATOM     23  O   LIG A   1      -2.819  -2.195 131.068  0.00  0.00    -0.391 OA
ATOM     24  H   LIG A   1      -2.193  -2.844 130.709  0.00  0.00    +0.210 HD
ENDBRANCH  12  23
BRANCH  22  25
ATOM     25  C   LIG A   1      -9.453   5.403 132.270  0.00  0.00    +0.067 C 
ATOM     26  C   LIG A   1      -8.225   6.223 131.836  0.00  0.00    +0.041 C 
BRANCH  25  27
ATOM     27  O   LIG A   1      -9.409   5.314 133.708  0.00  0.00    -0.389 OA
ATOM     28  H   LIG A   1      -8.503   5.516 133.997  0.00  0.00    +0.210 HD
ENDBRANCH  25  27
BRANCH  25  29
ATOM     29  C   LIG A   1     -10.747   6.182 131.941  0.00  0.00    +0.039 C 
BRANCH  29  30
ATOM     30  C   LIG A   1     -10.710   7.090 130.697  0.00  0.00    +0.033 C 
BRANCH  30  31
ATOM     31  C   LIG A   1     -12.026   7.758 130.297  0.00  0.00    -0.074 C 
ATOM     32  C   LIG A   1     -13.117   7.721 131.098  0.00  0.00    +0.008 C 
BRANCH  31  33
ATOM     33  C   LIG A   1     -12.049   8.428 128.911  0.00  0.00    +0.008 C 
ATOM     34  C   LIG A   1     -10.698   8.409 128.172  0.00  0.00    +0.012 C 
ATOM     35  C   LIG A   1     -13.109   7.834 127.970  0.00  0.00    +0.012 C 
ENDBRANCH  31  33
ENDBRANCH  30  31
ENDBRANCH  29  30
ENDBRANCH  25  29
ENDBRANCH  22  25
TORSDOF 7
ENDMDL
MODEL 6
REMARK VINA RESULT:      -8.4      5.206      8.067
REMARK  Name = NuBBE_2253
REMARK  15 active torsions:
REMARK  status: ('A' for Active; 'I' for Inactive)
REMARK    1  A    between atoms: C_1  and  C_2
REMARK    2  A    between atoms: C_5  and  C_6
REMARK    3  A    between atoms: C_11  and  C_12
REMARK    4  A    between atoms: C_11  and  C_13
REMARK    5  A    between atoms: C_14  and  O_18
REMARK    6  A    between atoms: C_23  and  C_24
REMARK    7  A    between atoms: C_27  and  C_29
REMARK    8  A    between atoms: C_29  and  C_30
REMARK    9  A    between atoms: C_29  and  C_37
REMARK   10  A    between atoms: C_29  and  O_38
REMARK   11  A    between atoms: C_30  and  C_31
REMARK   12  A    between atoms: C_31  and  C_32
REMARK   13  A    between atoms: C_32  and  C_34
REMARK   14  A    between atoms: C_34  and  C_35
REMARK   15  A    between atoms: C_34  and  C_36
REMARK                            x       y       z     vdW  Elec       q    Type
REMARK                         _______ _______ _______ _____ _____    ______ ____
ROOT
ATOM      1  C   LIG A   1      -4.875  -2.556 128.354  0.00  0.00    +0.012 C 
ATOM      2  C   LIG A   1      -5.392  -1.491 129.378  0.00  0.00    -0.023 C 
ATOM      3  C   LIG A   1      -6.442  -2.120 130.361  0.00  0.00    +0.002 C 
ATOM      4  C   LIG A   1      -5.884  -3.173 131.408  0.00  0.00    -0.025 C 
ATOM      5  C   LIG A   1      -5.482  -4.496 130.713  0.00  0.00    +0.012 C 
ATOM      6  C   LIG A   1      -4.699  -2.471 132.171  0.00  0.00    +0.003 C 
ATOM      7  C   LIG A   1      -3.603  -2.005 131.192  0.00  0.00    +0.005 C 
ATOM      8  C   LIG A   1      -4.159  -0.994 130.184  0.00  0.00    +0.008 C 
ATOM      9  C   LIG A   1      -4.164  -3.208 133.451  0.00  0.00    -0.006 C 
ATOM     10  C   LIG A   1      -3.343  -4.474 133.130  0.00  0.00    +0.014 C 
ATOM     11  C   LIG A   1      -3.209  -2.264 134.232  0.00  0.00    +0.014 C 
ATOM     12  C   LIG A   1      -5.357  -3.575 134.385  0.00  0.00    +0.120 C 
ATOM     13  C   LIG A   1      -6.518  -4.266 133.671  0.00  0.00    +0.032 C 
ATOM     14  C   LIG A   1      -7.006  -3.499 132.439  0.00  0.00    +0.010 C 
ATOM     15  C   LIG A   1      -7.751  -2.536 129.651  0.00  0.00    +0.005 C 
ATOM     16  C   LIG A   1      -7.879  -2.120 128.187  0.00  0.00    +0.005 C 
ATOM     17  C   LIG A   1      -7.415  -0.691 127.877  0.00  0.00    +0.001 C 
ATOM     18  C   LIG A   1      -6.103  -0.264 128.633  0.00  0.00    -0.023 C 
ATOM     19  C   LIG A   1      -6.527   0.891 129.597  0.00  0.00    +0.012 C 
ATOM     20  C   LIG A   1      -5.194   0.391 127.562  0.00  0.00    +0.008 C 
ATOM     21  C   LIG A   1      -6.115   0.721 126.403  0.00  0.00    +0.007 C 
ATOM     22  C   LIG A   1      -7.156  -0.419 126.366  0.00  0.00    +0.024 C 
ENDROOT
BRANCH  12  23
ATOM     23  O   LIG A   1      -5.869  -2.418 135.053  0.00  0.00    -0.391 OA
ATOM     24  H   LIG A   1      -5.583  -2.439 135.980  0.00  0.00    +0.210 HD
ENDBRANCH  12  23
BRANCH  22  25
ATOM     25  C   LIG A   1      -8.406  -0.032 125.511  0.00  0.00    +0.067 C 
ATOM     26  C   LIG A   1      -8.000   0.834 124.305  0.00  0.00    +0.041 C 
BRANCH  25  27
ATOM     27  O   LIG A   1      -9.257   0.782 126.341  0.00  0.00    -0.389 OA
ATOM     28  H   LIG A   1     -10.161   0.739 125.984  0.00  0.00    +0.210 HD
ENDBRANCH  25  27
BRANCH  25  29
ATOM     29  C   LIG A   1      -9.288  -1.210 125.038  0.00  0.00    +0.039 C 
BRANCH  29  30
ATOM     30  C   LIG A   1      -8.753  -2.043 123.857  0.00  0.00    +0.033 C 
BRANCH  30  31
ATOM     31  C   LIG A   1      -7.662  -3.065 124.180  0.00  0.00    -0.074 C 
ATOM     32  C   LIG A   1      -7.946  -4.250 124.770  0.00  0.00    +0.008 C 
BRANCH  31  33
ATOM     33  C   LIG A   1      -6.221  -2.643 123.839  0.00  0.00    +0.008 C 
ATOM     34  C   LIG A   1      -5.192  -3.787 123.898  0.00  0.00    +0.012 C 
ATOM     35  C   LIG A   1      -6.098  -1.970 122.462  0.00  0.00    +0.012 C 
ENDBRANCH  31  33
ENDBRANCH  30  31
ENDBRANCH  29  30
ENDBRANCH  25  29
ENDBRANCH  22  25
TORSDOF 7
ENDMDL
MODEL 7
REMARK VINA RESULT:      -8.4      2.229      8.700
REMARK  Name = NuBBE_2253
REMARK  15 active torsions:
REMARK  status: ('A' for Active; 'I' for Inactive)
REMARK    1  A    between atoms: C_1  and  C_2
REMARK    2  A    between atoms: C_5  and  C_6
REMARK    3  A    between atoms: C_11  and  C_12
REMARK    4  A    between atoms: C_11  and  C_13
REMARK    5  A    between atoms: C_14  and  O_18
REMARK    6  A    between atoms: C_23  and  C_24
REMARK    7  A    between atoms: C_27  and  C_29
REMARK    8  A    between atoms: C_29  and  C_30
REMARK    9  A    between atoms: C_29  and  C_37
REMARK   10  A    between atoms: C_29  and  O_38
REMARK   11  A    between atoms: C_30  and  C_31
REMARK   12  A    between atoms: C_31  and  C_32
REMARK   13  A    between atoms: C_32  and  C_34
REMARK   14  A    between atoms: C_34  and  C_35
REMARK   15  A    between atoms: C_34  and  C_36
REMARK                            x       y       z     vdW  Elec       q    Type
REMARK                         _______ _______ _______ _____ _____    ______ ____
ROOT
ATOM      1  C   LIG A   1      -5.512   2.458 128.884  0.00  0.00    +0.012 C 
ATOM      2  C   LIG A   1      -7.045   2.483 128.570  0.00  0.00    -0.023 C 
ATOM      3  C   LIG A   1      -7.888   2.143 129.849  0.00  0.00    +0.002 C 
ATOM      4  C   LIG A   1      -7.887   3.231 131.004  0.00  0.00    -0.025 C 
ATOM      5  C   LIG A   1      -6.512   3.296 131.712  0.00  0.00    +0.012 C 
ATOM      6  C   LIG A   1      -8.327   4.592 130.345  0.00  0.00    +0.003 C 
ATOM      7  C   LIG A   1      -7.383   4.984 129.191  0.00  0.00    +0.005 C 
ATOM      8  C   LIG A   1      -7.390   3.921 128.088  0.00  0.00    +0.008 C 
ATOM      9  C   LIG A   1      -8.673   5.762 131.334  0.00  0.00    -0.006 C 
ATOM     10  C   LIG A   1      -7.433   6.375 132.016  0.00  0.00    +0.014 C 
ATOM     11  C   LIG A   1      -9.349   6.921 130.551  0.00  0.00    +0.014 C 
ATOM     12  C   LIG A   1      -9.675   5.257 132.417  0.00  0.00    +0.120 C 
ATOM     13  C   LIG A   1      -9.268   3.941 133.078  0.00  0.00    +0.032 C 
ATOM     14  C   LIG A   1      -8.952   2.835 132.068  0.00  0.00    +0.010 C 
ATOM     15  C   LIG A   1      -7.688   0.686 130.326  0.00  0.00    +0.005 C 
ATOM     16  C   LIG A   1      -6.867  -0.213 129.403  0.00  0.00    +0.005 C 
ATOM     17  C   LIG A   1      -7.186  -0.072 127.910  0.00  0.00    +0.001 C 
ATOM     18  C   LIG A   1      -7.425   1.411 127.442  0.00  0.00    -0.023 C 
ATOM     19  C   LIG A   1      -8.922   1.479 126.995  0.00  0.00    +0.012 C 
ATOM     20  C   LIG A   1      -6.589   1.584 126.148  0.00  0.00    +0.008 C 
ATOM     21  C   LIG A   1      -6.282   0.175 125.678  0.00  0.00    +0.007 C 
ATOM     22  C   LIG A   1      -6.094  -0.657 126.967  0.00  0.00    +0.024 C 
ENDROOT
BRANCH  12  23
ATOM     23  O   LIG A   1     -10.990   5.095 131.873  0.00  0.00    -0.391 OA
ATOM     24  H   LIG A   1     -11.088   5.687 131.111  0.00  0.00    +0.210 HD
ENDBRANCH  12  23
BRANCH  22  25
ATOM     25  C   LIG A   1      -6.180  -2.191 126.679  0.00  0.00    +0.067 C 
ATOM     26  C   LIG A   1      -7.619  -2.705 126.863  0.00  0.00    +0.041 C 
BRANCH  25  27
ATOM     27  O   LIG A   1      -5.370  -2.858 127.666  0.00  0.00    -0.389 OA
ATOM     28  H   LIG A   1      -5.956  -3.184 128.371  0.00  0.00    +0.210 HD
ENDBRANCH  25  27
BRANCH  25  29
ATOM     29  C   LIG A   1      -5.630  -2.650 125.309  0.00  0.00    +0.039 C 
BRANCH  29  30
ATOM     30  C   LIG A   1      -6.646  -3.257 124.324  0.00  0.00    +0.033 C 
BRANCH  30  31
ATOM     31  C   LIG A   1      -7.064  -2.378 123.143  0.00  0.00    -0.074 C 
ATOM     32  C   LIG A   1      -6.152  -1.789 122.335  0.00  0.00    +0.008 C 
BRANCH  31  33
ATOM     33  C   LIG A   1      -8.578  -2.165 122.963  0.00  0.00    +0.008 C 
ATOM     34  C   LIG A   1      -9.456  -3.247 123.618  0.00  0.00    +0.012 C 
ATOM     35  C   LIG A   1      -9.060  -0.796 123.471  0.00  0.00    +0.012 C 
ENDBRANCH  31  33
ENDBRANCH  30  31
ENDBRANCH  29  30
ENDBRANCH  25  29
ENDBRANCH  22  25
TORSDOF 7
ENDMDL
MODEL 8
REMARK VINA RESULT:      -8.3      2.318      8.501
REMARK  Name = NuBBE_2253
REMARK  15 active torsions:
REMARK  status: ('A' for Active; 'I' for Inactive)
REMARK    1  A    between atoms: C_1  and  C_2
REMARK    2  A    between atoms: C_5  and  C_6
REMARK    3  A    between atoms: C_11  and  C_12
REMARK    4  A    between atoms: C_11  and  C_13
REMARK    5  A    between atoms: C_14  and  O_18
REMARK    6  A    between atoms: C_23  and  C_24
REMARK    7  A    between atoms: C_27  and  C_29
REMARK    8  A    between atoms: C_29  and  C_30
REMARK    9  A    between atoms: C_29  and  C_37
REMARK   10  A    between atoms: C_29  and  O_38
REMARK   11  A    between atoms: C_30  and  C_31
REMARK   12  A    between atoms: C_31  and  C_32
REMARK   13  A    between atoms: C_32  and  C_34
REMARK   14  A    between atoms: C_34  and  C_35
REMARK   15  A    between atoms: C_34  and  C_36
REMARK                            x       y       z     vdW  Elec       q    Type
REMARK                         _______ _______ _______ _____ _____    ______ ____
ROOT
ATOM      1  C   LIG A   1      -9.658   0.711 131.728  0.00  0.00    +0.012 C 
ATOM      2  C   LIG A   1      -8.172   1.200 131.722  0.00  0.00    -0.023 C 
ATOM      3  C   LIG A   1      -7.942   2.286 130.613  0.00  0.00    +0.002 C 
ATOM      4  C   LIG A   1      -8.631   3.695 130.852  0.00  0.00    -0.025 C 
ATOM      5  C   LIG A   1     -10.168   3.602 130.690  0.00  0.00    +0.012 C 
ATOM      6  C   LIG A   1      -8.171   4.189 132.274  0.00  0.00    +0.003 C 
ATOM      7  C   LIG A   1      -8.555   3.174 133.369  0.00  0.00    +0.005 C 
ATOM      8  C   LIG A   1      -7.886   1.818 133.120  0.00  0.00    +0.008 C 
ATOM      9  C   LIG A   1      -8.495   5.685 132.627  0.00  0.00    -0.006 C 
ATOM     10  C   LIG A   1      -9.990   5.939 132.909  0.00  0.00    +0.014 C 
ATOM     11  C   LIG A   1      -7.739   6.088 133.923  0.00  0.00    +0.014 C 
ATOM     12  C   LIG A   1      -8.010   6.616 131.473  0.00  0.00    +0.120 C 
ATOM     13  C   LIG A   1      -8.450   6.163 130.081  0.00  0.00    +0.032 C 
ATOM     14  C   LIG A   1      -8.101   4.701 129.788  0.00  0.00    +0.010 C 
ATOM     15  C   LIG A   1      -8.094   1.720 129.182  0.00  0.00    +0.005 C 
ATOM     16  C   LIG A   1      -8.263   0.206 129.076  0.00  0.00    +0.005 C 
ATOM     17  C   LIG A   1      -7.341  -0.613 129.988  0.00  0.00    +0.001 C 
ATOM     18  C   LIG A   1      -7.163  -0.009 131.430  0.00  0.00    -0.023 C 
ATOM     19  C   LIG A   1      -5.656   0.395 131.537  0.00  0.00    +0.012 C 
ATOM     20  C   LIG A   1      -7.353  -1.195 132.410  0.00  0.00    +0.008 C 
ATOM     21  C   LIG A   1      -7.187  -2.444 131.564  0.00  0.00    +0.007 C 
ATOM     22  C   LIG A   1      -7.790  -2.091 130.186  0.00  0.00    +0.024 C 
ENDROOT
BRANCH  12  23
ATOM     23  O   LIG A   1      -6.584   6.742 131.471  0.00  0.00    -0.391 OA
ATOM     24  H   LIG A   1      -6.256   6.590 132.372  0.00  0.00    +0.210 HD
ENDBRANCH  12  23
BRANCH  22  25
ATOM     25  C   LIG A   1      -7.339  -3.103 129.084  0.00  0.00    +0.067 C 
ATOM     26  C   LIG A   1      -8.555  -3.770 128.418  0.00  0.00    +0.041 C 
BRANCH  25  27
ATOM     27  O   LIG A   1      -6.596  -4.149 129.740  0.00  0.00    -0.389 OA
ATOM     28  H   LIG A   1      -6.465  -3.892 130.669  0.00  0.00    +0.210 HD
ENDBRANCH  25  27
BRANCH  25  29
ATOM     29  C   LIG A   1      -6.392  -2.538 128.000  0.00  0.00    +0.039 C 
BRANCH  29  30
ATOM     30  C   LIG A   1      -7.013  -2.254 126.619  0.00  0.00    +0.033 C 
BRANCH  30  31
ATOM     31  C   LIG A   1      -6.076  -1.691 125.549  0.00  0.00    -0.074 C 
ATOM     32  C   LIG A   1      -5.263  -0.638 125.796  0.00  0.00    +0.008 C 
BRANCH  31  33
ATOM     33  C   LIG A   1      -6.152  -2.362 124.166  0.00  0.00    +0.008 C 
ATOM     34  C   LIG A   1      -4.897  -3.165 123.777  0.00  0.00    +0.012 C 
ATOM     35  C   LIG A   1      -7.370  -3.287 124.008  0.00  0.00    +0.012 C 
ENDBRANCH  31  33
ENDBRANCH  30  31
ENDBRANCH  29  30
ENDBRANCH  25  29
ENDBRANCH  22  25
TORSDOF 7
ENDMDL
MODEL 9
REMARK VINA RESULT:      -8.3      2.076      4.131
REMARK  Name = NuBBE_2253
REMARK  15 active torsions:
REMARK  status: ('A' for Active; 'I' for Inactive)
REMARK    1  A    between atoms: C_1  and  C_2
REMARK    2  A    between atoms: C_5  and  C_6
REMARK    3  A    between atoms: C_11  and  C_12
REMARK    4  A    between atoms: C_11  and  C_13
REMARK    5  A    between atoms: C_14  and  O_18
REMARK    6  A    between atoms: C_23  and  C_24
REMARK    7  A    between atoms: C_27  and  C_29
REMARK    8  A    between atoms: C_29  and  C_30
REMARK    9  A    between atoms: C_29  and  C_37
REMARK   10  A    between atoms: C_29  and  O_38
REMARK   11  A    between atoms: C_30  and  C_31
REMARK   12  A    between atoms: C_31  and  C_32
REMARK   13  A    between atoms: C_32  and  C_34
REMARK   14  A    between atoms: C_34  and  C_35
REMARK   15  A    between atoms: C_34  and  C_36
REMARK                            x       y       z     vdW  Elec       q    Type
REMARK                         _______ _______ _______ _____ _____    ______ ____
ROOT
ATOM      1  C   LIG A   1      -5.335   0.419 128.259  0.00  0.00    +0.012 C 
ATOM      2  C   LIG A   1      -6.552  -0.535 128.496  0.00  0.00    -0.023 C 
ATOM      3  C   LIG A   1      -7.789  -0.093 127.638  0.00  0.00    +0.002 C 
ATOM      4  C   LIG A   1      -7.665  -0.289 126.069  0.00  0.00    -0.025 C 
ATOM      5  C   LIG A   1      -6.659   0.715 125.456  0.00  0.00    +0.012 C 
ATOM      6  C   LIG A   1      -7.282  -1.797 125.829  0.00  0.00    +0.003 C 
ATOM      7  C   LIG A   1      -5.972  -2.163 126.555  0.00  0.00    +0.005 C 
ATOM      8  C   LIG A   1      -6.107  -1.962 128.068  0.00  0.00    +0.008 C 
ATOM      9  C   LIG A   1      -7.374  -2.310 124.347  0.00  0.00    -0.006 C 
ATOM     10  C   LIG A   1      -6.246  -1.773 123.442  0.00  0.00    +0.014 C 
ATOM     11  C   LIG A   1      -7.243  -3.857 124.324  0.00  0.00    +0.014 C 
ATOM     12  C   LIG A   1      -8.761  -1.930 123.743  0.00  0.00    +0.120 C 
ATOM     13  C   LIG A   1      -9.154  -0.469 123.955  0.00  0.00    +0.032 C 
ATOM     14  C   LIG A   1      -9.055  -0.027 125.418  0.00  0.00    +0.010 C 
ATOM     15  C   LIG A   1      -8.367   1.271 128.081  0.00  0.00    +0.005 C 
ATOM     16  C   LIG A   1      -7.771   1.868 129.355  0.00  0.00    +0.005 C 
ATOM     17  C   LIG A   1      -7.556   0.868 130.498  0.00  0.00    +0.001 C 
ATOM     18  C   LIG A   1      -7.004  -0.530 130.033  0.00  0.00    -0.023 C 
ATOM     19  C   LIG A   1      -8.135  -1.561 130.355  0.00  0.00    +0.012 C 
ATOM     20  C   LIG A   1      -5.839  -0.865 130.999  0.00  0.00    +0.008 C 
ATOM     21  C   LIG A   1      -6.031   0.053 132.191  0.00  0.00    +0.007 C 
ATOM     22  C   LIG A   1      -6.590   1.371 131.611  0.00  0.00    +0.024 C 
ENDROOT
BRANCH  12  23
ATOM     23  O   LIG A   1      -9.803  -2.754 124.277  0.00  0.00    -0.391 OA
ATOM     24  H   LIG A   1      -9.475  -3.664 124.351  0.00  0.00    +0.210 HD
ENDBRANCH  12  23
BRANCH  22  25
ATOM     25  C   LIG A   1      -7.225   2.266 132.723  0.00  0.00    +0.067 C 
ATOM     26  C   LIG A   1      -6.508   3.625 132.811  0.00  0.00    +0.041 C 
BRANCH  25  27
ATOM     27  O   LIG A   1      -7.014   1.600 133.983  0.00  0.00    -0.389 OA
ATOM     28  H   LIG A   1      -7.434   2.130 134.682  0.00  0.00    +0.210 HD
ENDBRANCH  25  27
BRANCH  25  29
ATOM     29  C   LIG A   1      -8.753   2.485 132.619  0.00  0.00    +0.039 C 
BRANCH  29  30
ATOM     30  C   LIG A   1      -9.238   3.944 132.533  0.00  0.00    +0.033 C 
BRANCH  30  31
ATOM     31  C   LIG A   1      -9.916   4.364 131.228  0.00  0.00    -0.074 C 
ATOM     32  C   LIG A   1     -10.718   3.520 130.537  0.00  0.00    +0.008 C 
BRANCH  31  33
ATOM     33  C   LIG A   1      -9.591   5.782 130.725  0.00  0.00    +0.008 C 
ATOM     34  C   LIG A   1     -10.795   6.742 130.704  0.00  0.00    +0.012 C 
ATOM     35  C   LIG A   1      -8.461   6.460 131.517  0.00  0.00    +0.012 C 
ENDBRANCH  31  33
ENDBRANCH  30  31
ENDBRANCH  29  30
ENDBRANCH  25  29
ENDBRANCH  22  25
TORSDOF 7
ENDMDL
