MODEL 1
REMARK VINA RESULT:      -8.0      0.000      0.000
REMARK  Name = NuBBE_993
REMARK  10 active torsions:
REMARK  status: ('A' for Active; 'I' for Inactive)
REMARK    1  A    between atoms: C_1  and  C_2
REMARK    2  A    between atoms: C_9  and  O_11
REMARK    3  A    between atoms: O_11  and  C_12
REMARK    4  A    between atoms: C_12  and  C_13
REMARK    5  A    between atoms: C_15  and  C_19
REMARK    6  A    between atoms: C_19  and  O_20
REMARK    7  A    between atoms: O_20  and  C_21
REMARK    8  A    between atoms: C_21  and  C_22
REMARK    9  A    between atoms: C_29  and  C_31
REMARK   10  A    between atoms: C_31  and  C_32
REMARK                            x       y       z     vdW  Elec       q    Type
REMARK                         _______ _______ _______ _____ _____    ______ ____
ROOT
ATOM      1  C   LIG A   1      -4.003  -2.063 132.578  0.00  0.00    +0.012 C 
ATOM      2  C   LIG A   1      -4.600  -3.260 131.800  0.00  0.00    -0.019 C 
ATOM      3  C   LIG A   1      -6.086  -2.911 131.486  0.00  0.00    +0.006 C 
ATOM      4  C   LIG A   1      -6.608  -3.518 130.165  0.00  0.00    -0.003 C 
ATOM      5  C   LIG A   1      -8.087  -3.192 129.932  0.00  0.00    +0.004 C 
ATOM      6  C   LIG A   1      -8.495  -3.602 128.535  0.00  0.00    +0.004 C 
ATOM      7  C   LIG A   1      -7.868  -2.681 127.490  0.00  0.00    +0.003 C 
ATOM      8  C   LIG A   1      -8.099  -3.293 126.104  0.00  0.00    +0.056 C 
ATOM      9  C   LIG A   1      -7.647  -2.327 125.016  0.00  0.00    +0.242 C 
ATOM     10  C   LIG A   1      -6.372  -2.280 127.772  0.00  0.00    +0.018 C 
ATOM     11  C   LIG A   1      -5.504  -2.464 126.484  0.00  0.00    +0.089 C 
ATOM     12  C   LIG A   1      -6.154  -2.058 125.173  0.00  0.00    +0.174 C 
ATOM     13  O   LIG A   1      -5.473  -1.593 124.257  0.00  0.00    -0.293 OA
ATOM     14  C   LIG A   1      -5.730  -3.203 128.911  0.00  0.00    +0.002 C 
ATOM     15  C   LIG A   1      -4.277  -2.818 129.282  0.00  0.00    +0.005 C 
ATOM     16  C   LIG A   1      -3.764  -3.533 130.527  0.00  0.00    +0.008 C 
ATOM     17  C   LIG A   1      -6.862  -3.371 132.734  0.00  0.00    +0.079 C 
ATOM     18  C   LIG A   1      -6.027  -4.480 133.301  0.00  0.00    +0.137 C 
ATOM     19  C   LIG A   1      -4.656  -4.569 132.669  0.00  0.00    +0.061 C 
ATOM     20  O   LIG A   1      -6.449  -5.243 134.162  0.00  0.00    -0.297 OA
ENDROOT
BRANCH  19  21
ATOM     21  C   LIG A   1      -3.509  -4.743 133.676  0.00  0.00    +0.008 C 
ATOM     22  C   LIG A   1      -3.081  -6.190 133.894  0.00  0.00    +0.004 C 
ENDBRANCH  19  21
BRANCH   9  23
ATOM     23  O   LIG A   1      -7.935  -2.881 123.726  0.00  0.00    -0.454 OA
BRANCH  23  24
ATOM     24  C   LIG A   1      -9.188  -2.602 123.266  0.00  0.00    +0.305 C 
ATOM     25  C   LIG A   1      -9.292  -1.173 122.825  0.00  0.00    +0.136 C 
ATOM     26  O   LIG A   1     -10.117  -3.390 123.229  0.00  0.00    -0.251 OA
ENDBRANCH  23  24
ENDBRANCH   9  23
BRANCH  10  27
ATOM     27  C   LIG A   1      -6.312  -0.770 128.192  0.00  0.00    +0.240 C 
BRANCH  27  28
ATOM     28  O   LIG A   1      -7.596  -0.112 128.105  0.00  0.00    -0.464 OA
BRANCH  28  29
ATOM     29  C   LIG A   1      -7.897   0.777 129.079  0.00  0.00    +0.304 C 
ATOM     30  C   LIG A   1      -7.367   0.384 130.410  0.00  0.00    +0.136 C 
ATOM     31  O   LIG A   1      -8.567   1.787 128.912  0.00  0.00    -0.251 OA
ENDBRANCH  28  29
ENDBRANCH  27  28
ENDBRANCH  10  27
TORSDOF 6
ENDMDL
MODEL 2
REMARK VINA RESULT:      -7.8      2.286      4.313
REMARK  Name = NuBBE_993
REMARK  10 active torsions:
REMARK  status: ('A' for Active; 'I' for Inactive)
REMARK    1  A    between atoms: C_1  and  C_2
REMARK    2  A    between atoms: C_9  and  O_11
REMARK    3  A    between atoms: O_11  and  C_12
REMARK    4  A    between atoms: C_12  and  C_13
REMARK    5  A    between atoms: C_15  and  C_19
REMARK    6  A    between atoms: C_19  and  O_20
REMARK    7  A    between atoms: O_20  and  C_21
REMARK    8  A    between atoms: C_21  and  C_22
REMARK    9  A    between atoms: C_29  and  C_31
REMARK   10  A    between atoms: C_31  and  C_32
REMARK                            x       y       z     vdW  Elec       q    Type
REMARK                         _______ _______ _______ _____ _____    ______ ____
ROOT
ATOM      1  C   LIG A   1      -5.598  -4.162 130.537  0.00  0.00    +0.012 C 
ATOM      2  C   LIG A   1      -6.641  -3.028 130.380  0.00  0.00    -0.019 C 
ATOM      3  C   LIG A   1      -5.987  -1.917 129.505  0.00  0.00    +0.006 C 
ATOM      4  C   LIG A   1      -6.989  -1.138 128.626  0.00  0.00    -0.003 C 
ATOM      5  C   LIG A   1      -6.304  -0.023 127.829  0.00  0.00    +0.004 C 
ATOM      6  C   LIG A   1      -7.266   0.559 126.819  0.00  0.00    +0.004 C 
ATOM      7  C   LIG A   1      -7.534  -0.430 125.685  0.00  0.00    +0.003 C 
ATOM      8  C   LIG A   1      -8.698   0.101 124.844  0.00  0.00    +0.056 C 
ATOM      9  C   LIG A   1      -8.889  -0.759 123.600  0.00  0.00    +0.242 C 
ATOM     10  C   LIG A   1      -7.702  -1.928 126.139  0.00  0.00    +0.018 C 
ATOM     11  C   LIG A   1      -8.966  -2.563 125.472  0.00  0.00    +0.089 C 
ATOM     12  C   LIG A   1      -9.222  -2.185 124.024  0.00  0.00    +0.174 C 
ATOM     13  O   LIG A   1      -9.743  -2.993 123.252  0.00  0.00    -0.293 OA
ATOM     14  C   LIG A   1      -7.898  -2.035 127.723  0.00  0.00    +0.002 C 
ATOM     15  C   LIG A   1      -8.006  -3.488 128.243  0.00  0.00    +0.005 C 
ATOM     16  C   LIG A   1      -7.943  -3.591 129.763  0.00  0.00    +0.008 C 
ATOM     17  C   LIG A   1      -5.222  -1.036 130.510  0.00  0.00    +0.079 C 
ATOM     18  C   LIG A   1      -5.972  -1.206 131.797  0.00  0.00    +0.137 C 
ATOM     19  C   LIG A   1      -6.978  -2.334 131.749  0.00  0.00    +0.061 C 
ATOM     20  O   LIG A   1      -5.793  -0.471 132.761  0.00  0.00    -0.297 OA
ENDROOT
BRANCH  19  21
ATOM     21  C   LIG A   1      -6.953  -3.252 132.980  0.00  0.00    +0.008 C 
ATOM     22  C   LIG A   1      -8.116  -3.040 133.944  0.00  0.00    +0.004 C 
ENDBRANCH  19  21
BRANCH   9  23
ATOM     23  O   LIG A   1      -9.933  -0.209 122.787  0.00  0.00    -0.454 OA
BRANCH  23  24
ATOM     24  C   LIG A   1     -10.333   1.041 123.162  0.00  0.00    +0.305 C 
ATOM     25  C   LIG A   1      -9.415   2.087 122.606  0.00  0.00    +0.136 C 
ATOM     26  O   LIG A   1     -11.294   1.290 123.869  0.00  0.00    -0.251 OA
ENDBRANCH  23  24
ENDBRANCH   9  23
BRANCH  10  27
ATOM     27  C   LIG A   1      -6.445  -2.750 125.686  0.00  0.00    +0.240 C 
BRANCH  27  28
ATOM     28  O   LIG A   1      -5.638  -2.050 124.713  0.00  0.00    -0.464 OA
BRANCH  28  29
ATOM     29  C   LIG A   1      -5.459  -2.654 123.515  0.00  0.00    +0.304 C 
ATOM     30  C   LIG A   1      -4.587  -3.854 123.593  0.00  0.00    +0.136 C 
ATOM     31  O   LIG A   1      -5.927  -2.250 122.459  0.00  0.00    -0.251 OA
ENDBRANCH  28  29
ENDBRANCH  27  28
ENDBRANCH  10  27
TORSDOF 6
ENDMDL
MODEL 3
REMARK VINA RESULT:      -7.7      2.208      7.958
REMARK  Name = NuBBE_993
REMARK  10 active torsions:
REMARK  status: ('A' for Active; 'I' for Inactive)
REMARK    1  A    between atoms: C_1  and  C_2
REMARK    2  A    between atoms: C_9  and  O_11
REMARK    3  A    between atoms: O_11  and  C_12
REMARK    4  A    between atoms: C_12  and  C_13
REMARK    5  A    between atoms: C_15  and  C_19
REMARK    6  A    between atoms: C_19  and  O_20
REMARK    7  A    between atoms: O_20  and  C_21
REMARK    8  A    between atoms: C_21  and  C_22
REMARK    9  A    between atoms: C_29  and  C_31
REMARK   10  A    between atoms: C_31  and  C_32
REMARK                            x       y       z     vdW  Elec       q    Type
REMARK                         _______ _______ _______ _____ _____    ______ ____
ROOT
ATOM      1  C   LIG A   1      -6.500  -1.302 123.790  0.00  0.00    +0.012 C 
ATOM      2  C   LIG A   1      -7.711  -1.318 124.755  0.00  0.00    -0.019 C 
ATOM      3  C   LIG A   1      -7.591  -2.605 125.625  0.00  0.00    +0.006 C 
ATOM      4  C   LIG A   1      -8.164  -2.453 127.052  0.00  0.00    -0.003 C 
ATOM      5  C   LIG A   1      -8.072  -3.761 127.845  0.00  0.00    +0.004 C 
ATOM      6  C   LIG A   1      -8.426  -3.514 129.294  0.00  0.00    +0.004 C 
ATOM      7  C   LIG A   1      -7.328  -2.717 129.998  0.00  0.00    +0.003 C 
ATOM      8  C   LIG A   1      -7.852  -2.276 131.368  0.00  0.00    +0.056 C 
ATOM      9  C   LIG A   1      -6.735  -1.629 132.179  0.00  0.00    +0.242 C 
ATOM     10  C   LIG A   1      -6.707  -1.549 129.143  0.00  0.00    +0.018 C 
ATOM     11  C   LIG A   1      -6.634  -0.234 129.986  0.00  0.00    +0.089 C 
ATOM     12  C   LIG A   1      -6.235  -0.392 131.443  0.00  0.00    +0.174 C 
ATOM     13  O   LIG A   1      -5.586   0.490 132.011  0.00  0.00    -0.293 OA
ATOM     14  C   LIG A   1      -7.601  -1.235 127.854  0.00  0.00    +0.002 C 
ATOM     15  C   LIG A   1      -7.011  -0.138 126.936  0.00  0.00    +0.005 C 
ATOM     16  C   LIG A   1      -7.731  -0.021 125.597  0.00  0.00    +0.008 C 
ATOM     17  C   LIG A   1      -8.278  -3.701 124.789  0.00  0.00    +0.079 C 
ATOM     18  C   LIG A   1      -9.274  -2.957 123.952  0.00  0.00    +0.137 C 
ATOM     19  C   LIG A   1      -9.079  -1.458 123.992  0.00  0.00    +0.061 C 
ATOM     20  O   LIG A   1     -10.167  -3.528 123.336  0.00  0.00    -0.297 OA
ENDROOT
BRANCH  19  21
ATOM     21  C   LIG A   1      -9.142  -0.778 122.617  0.00  0.00    +0.008 C 
ATOM     22  C   LIG A   1     -10.119   0.391 122.540  0.00  0.00    +0.004 C 
ENDBRANCH  19  21
BRANCH   9  23
ATOM     23  O   LIG A   1      -7.220  -1.288 133.484  0.00  0.00    -0.454 OA
BRANCH  23  24
ATOM     24  C   LIG A   1      -7.150  -2.307 134.388  0.00  0.00    +0.305 C 
ATOM     25  C   LIG A   1      -5.812  -2.980 134.338  0.00  0.00    +0.136 C 
ATOM     26  O   LIG A   1      -8.052  -2.650 135.134  0.00  0.00    -0.251 OA
ENDBRANCH  23  24
ENDBRANCH   9  23
BRANCH  10  27
ATOM     27  C   LIG A   1      -5.249  -1.939 128.717  0.00  0.00    +0.240 C 
BRANCH  27  28
ATOM     28  O   LIG A   1      -4.851  -3.240 129.205  0.00  0.00    -0.464 OA
BRANCH  28  29
ATOM     29  C   LIG A   1      -3.629  -3.333 129.778  0.00  0.00    +0.304 C 
ATOM     30  C   LIG A   1      -3.638  -3.006 131.227  0.00  0.00    +0.136 C 
ATOM     31  O   LIG A   1      -2.602  -3.618 129.176  0.00  0.00    -0.251 OA
ENDBRANCH  28  29
ENDBRANCH  27  28
ENDBRANCH  10  27
TORSDOF 6
ENDMDL
MODEL 4
REMARK VINA RESULT:      -7.5      4.127      7.917
REMARK  Name = NuBBE_993
REMARK  10 active torsions:
REMARK  status: ('A' for Active; 'I' for Inactive)
REMARK    1  A    between atoms: C_1  and  C_2
REMARK    2  A    between atoms: C_9  and  O_11
REMARK    3  A    between atoms: O_11  and  C_12
REMARK    4  A    between atoms: C_12  and  C_13
REMARK    5  A    between atoms: C_15  and  C_19
REMARK    6  A    between atoms: C_19  and  O_20
REMARK    7  A    between atoms: O_20  and  C_21
REMARK    8  A    between atoms: C_21  and  C_22
REMARK    9  A    between atoms: C_29  and  C_31
REMARK   10  A    between atoms: C_31  and  C_32
REMARK                            x       y       z     vdW  Elec       q    Type
REMARK                         _______ _______ _______ _____ _____    ______ ____
ROOT
ATOM      1  C   LIG A   1      -7.686  -2.930 125.782  0.00  0.00    +0.012 C 
ATOM      2  C   LIG A   1      -6.431  -2.064 125.515  0.00  0.00    -0.019 C 
ATOM      3  C   LIG A   1      -6.927  -0.636 125.138  0.00  0.00    +0.006 C 
ATOM      4  C   LIG A   1      -5.969   0.496 125.570  0.00  0.00    -0.003 C 
ATOM      5  C   LIG A   1      -6.475   1.873 125.126  0.00  0.00    +0.004 C 
ATOM      6  C   LIG A   1      -5.640   2.962 125.761  0.00  0.00    +0.004 C 
ATOM      7  C   LIG A   1      -5.919   3.063 127.260  0.00  0.00    +0.003 C 
ATOM      8  C   LIG A   1      -4.871   3.987 127.887  0.00  0.00    +0.056 C 
ATOM      9  C   LIG A   1      -5.211   4.260 129.347  0.00  0.00    +0.242 C 
ATOM     10  C   LIG A   1      -6.079   1.681 127.998  0.00  0.00    +0.018 C 
ATOM     11  C   LIG A   1      -5.225   1.659 129.308  0.00  0.00    +0.089 C 
ATOM     12  C   LIG A   1      -5.203   2.944 130.117  0.00  0.00    +0.174 C 
ATOM     13  O   LIG A   1      -5.115   2.905 131.346  0.00  0.00    -0.293 OA
ATOM     14  C   LIG A   1      -5.572   0.472 127.082  0.00  0.00    +0.002 C 
ATOM     15  C   LIG A   1      -5.762  -0.923 127.726  0.00  0.00    +0.005 C 
ATOM     16  C   LIG A   1      -5.510  -2.073 126.757  0.00  0.00    +0.008 C 
ATOM     17  C   LIG A   1      -7.171  -0.702 123.619  0.00  0.00    +0.079 C 
ATOM     18  C   LIG A   1      -6.231  -1.766 123.139  0.00  0.00    +0.137 C 
ATOM     19  C   LIG A   1      -5.616  -2.564 124.266  0.00  0.00    +0.061 C 
ATOM     20  O   LIG A   1      -5.977  -1.928 121.951  0.00  0.00    -0.297 OA
ENDROOT
BRANCH  19  21
ATOM     21  C   LIG A   1      -5.622  -4.083 124.039  0.00  0.00    +0.008 C 
ATOM     22  C   LIG A   1      -4.270  -4.660 123.633  0.00  0.00    +0.004 C 
ENDBRANCH  19  21
BRANCH   9  23
ATOM     23  O   LIG A   1      -4.263   5.183 129.900  0.00  0.00    -0.454 OA
BRANCH  23  24
ATOM     24  C   LIG A   1      -4.654   6.488 129.836  0.00  0.00    +0.305 C 
ATOM     25  C   LIG A   1      -5.577   6.829 130.966  0.00  0.00    +0.136 C 
ATOM     26  O   LIG A   1      -4.320   7.281 128.972  0.00  0.00    -0.251 OA
ENDBRANCH  23  24
ENDBRANCH   9  23
BRANCH  10  27
ATOM     27  C   LIG A   1      -7.584   1.477 128.392  0.00  0.00    +0.240 C 
BRANCH  27  28
ATOM     28  O   LIG A   1      -8.366   2.687 128.268  0.00  0.00    -0.464 OA
BRANCH  28  29
ATOM     29  C   LIG A   1      -8.962   3.149 129.391  0.00  0.00    +0.304 C 
ATOM     30  C   LIG A   1      -8.886   2.195 130.527  0.00  0.00    +0.136 C 
ATOM     31  O   LIG A   1      -9.543   4.224 129.474  0.00  0.00    -0.251 OA
ENDBRANCH  28  29
ENDBRANCH  27  28
ENDBRANCH  10  27
TORSDOF 6
ENDMDL
MODEL 5
REMARK VINA RESULT:      -7.2      4.515      6.764
REMARK  Name = NuBBE_993
REMARK  10 active torsions:
REMARK  status: ('A' for Active; 'I' for Inactive)
REMARK    1  A    between atoms: C_1  and  C_2
REMARK    2  A    between atoms: C_9  and  O_11
REMARK    3  A    between atoms: O_11  and  C_12
REMARK    4  A    between atoms: C_12  and  C_13
REMARK    5  A    between atoms: C_15  and  C_19
REMARK    6  A    between atoms: C_19  and  O_20
REMARK    7  A    between atoms: O_20  and  C_21
REMARK    8  A    between atoms: C_21  and  C_22
REMARK    9  A    between atoms: C_29  and  C_31
REMARK   10  A    between atoms: C_31  and  C_32
REMARK                            x       y       z     vdW  Elec       q    Type
REMARK                         _______ _______ _______ _____ _____    ______ ____
ROOT
ATOM      1  C   LIG A   1      -3.552   6.236 128.020  0.00  0.00    +0.012 C 
ATOM      2  C   LIG A   1      -3.790   4.995 128.913  0.00  0.00    -0.019 C 
ATOM      3  C   LIG A   1      -5.329   4.751 128.963  0.00  0.00    +0.006 C 
ATOM      4  C   LIG A   1      -5.725   3.265 129.106  0.00  0.00    -0.003 C 
ATOM      5  C   LIG A   1      -7.243   3.086 129.207  0.00  0.00    +0.004 C 
ATOM      6  C   LIG A   1      -7.600   1.620 129.114  0.00  0.00    +0.004 C 
ATOM      7  C   LIG A   1      -7.380   1.092 127.697  0.00  0.00    +0.003 C 
ATOM      8  C   LIG A   1      -7.504  -0.435 127.724  0.00  0.00    +0.056 C 
ATOM      9  C   LIG A   1      -7.466  -0.994 126.307  0.00  0.00    +0.242 C 
ATOM     10  C   LIG A   1      -6.074   1.616 126.991  0.00  0.00    +0.018 C 
ATOM     11  C   LIG A   1      -5.290   0.430 126.339  0.00  0.00    +0.089 C 
ATOM     12  C   LIG A   1      -6.131  -0.639 125.663  0.00  0.00    +0.174 C 
ATOM     13  O   LIG A   1      -5.703  -1.233 124.671  0.00  0.00    -0.293 OA
ATOM     14  C   LIG A   1      -5.088   2.316 128.040  0.00  0.00    +0.002 C 
ATOM     15  C   LIG A   1      -3.812   2.911 127.398  0.00  0.00    +0.005 C 
ATOM     16  C   LIG A   1      -3.007   3.783 128.355  0.00  0.00    +0.008 C 
ATOM     17  C   LIG A   1      -5.822   5.642 130.118  0.00  0.00    +0.079 C 
ATOM     18  C   LIG A   1      -4.637   5.758 131.029  0.00  0.00    +0.137 C 
ATOM     19  C   LIG A   1      -3.360   5.241 130.405  0.00  0.00    +0.061 C 
ATOM     20  O   LIG A   1      -4.728   6.197 132.170  0.00  0.00    -0.297 OA
ENDROOT
BRANCH  19  21
ATOM     21  C   LIG A   1      -2.147   6.163 130.599  0.00  0.00    +0.008 C 
ATOM     22  C   LIG A   1      -1.322   5.859 131.846  0.00  0.00    +0.004 C 
ENDBRANCH  19  21
BRANCH   9  23
ATOM     23  O   LIG A   1      -7.656  -2.415 126.342  0.00  0.00    -0.454 OA
BRANCH  23  24
ATOM     24  C   LIG A   1      -8.704  -2.856 125.589  0.00  0.00    +0.305 C 
ATOM     25  C   LIG A   1      -8.251  -3.868 124.581  0.00  0.00    +0.136 C 
ATOM     26  O   LIG A   1      -9.857  -2.476 125.695  0.00  0.00    -0.251 OA
ENDBRANCH  23  24
ENDBRANCH   9  23
BRANCH  10  27
ATOM     27  C   LIG A   1      -6.469   2.624 125.855  0.00  0.00    +0.240 C 
BRANCH  27  28
ATOM     28  O   LIG A   1      -7.707   3.319 126.127  0.00  0.00    -0.464 OA
BRANCH  28  29
ATOM     29  C   LIG A   1      -7.758   4.631 125.804  0.00  0.00    +0.304 C 
ATOM     30  C   LIG A   1      -6.462   5.159 125.303  0.00  0.00    +0.136 C 
ATOM     31  O   LIG A   1      -8.747   5.340 125.936  0.00  0.00    -0.251 OA
ENDBRANCH  28  29
ENDBRANCH  27  28
ENDBRANCH  10  27
TORSDOF 6
ENDMDL
MODEL 6
REMARK VINA RESULT:      -7.2      1.726      7.851
REMARK  Name = NuBBE_993
REMARK  10 active torsions:
REMARK  status: ('A' for Active; 'I' for Inactive)
REMARK    1  A    between atoms: C_1  and  C_2
REMARK    2  A    between atoms: C_9  and  O_11
REMARK    3  A    between atoms: O_11  and  C_12
REMARK    4  A    between atoms: C_12  and  C_13
REMARK    5  A    between atoms: C_15  and  C_19
REMARK    6  A    between atoms: C_19  and  O_20
REMARK    7  A    between atoms: O_20  and  C_21
REMARK    8  A    between atoms: C_21  and  C_22
REMARK    9  A    between atoms: C_29  and  C_31
REMARK   10  A    between atoms: C_31  and  C_32
REMARK                            x       y       z     vdW  Elec       q    Type
REMARK                         _______ _______ _______ _____ _____    ______ ____
ROOT
ATOM      1  C   LIG A   1      -8.795  -1.230 126.261  0.00  0.00    +0.012 C 
ATOM      2  C   LIG A   1      -7.993  -2.508 126.607  0.00  0.00    -0.019 C 
ATOM      3  C   LIG A   1      -6.575  -2.053 127.066  0.00  0.00    +0.006 C 
ATOM      4  C   LIG A   1      -5.928  -2.980 128.118  0.00  0.00    -0.003 C 
ATOM      5  C   LIG A   1      -4.516  -2.520 128.493  0.00  0.00    +0.004 C 
ATOM      6  C   LIG A   1      -4.011  -3.307 129.681  0.00  0.00    +0.004 C 
ATOM      7  C   LIG A   1      -4.751  -2.908 130.956  0.00  0.00    +0.003 C 
ATOM      8  C   LIG A   1      -4.389  -3.907 132.060  0.00  0.00    +0.056 C 
ATOM      9  C   LIG A   1      -4.962  -3.452 133.396  0.00  0.00    +0.242 C 
ATOM     10  C   LIG A   1      -6.299  -2.680 130.781  0.00  0.00    +0.018 C 
ATOM     11  C   LIG A   1      -7.093  -3.425 131.903  0.00  0.00    +0.089 C 
ATOM     12  C   LIG A   1      -6.482  -3.388 133.294  0.00  0.00    +0.174 C 
ATOM     13  O   LIG A   1      -7.206  -3.376 134.292  0.00  0.00    -0.293 OA
ATOM     14  C   LIG A   1      -6.814  -3.252 129.378  0.00  0.00    +0.002 C 
ATOM     15  C   LIG A   1      -8.318  -3.002 129.115  0.00  0.00    +0.005 C 
ATOM     16  C   LIG A   1      -8.741  -3.325 127.686  0.00  0.00    +0.008 C 
ATOM     17  C   LIG A   1      -5.768  -1.933 125.759  0.00  0.00    +0.079 C 
ATOM     18  C   LIG A   1      -6.428  -2.903 124.826  0.00  0.00    +0.137 C 
ATOM     19  C   LIG A   1      -7.750  -3.419 125.348  0.00  0.00    +0.061 C 
ATOM     20  O   LIG A   1      -5.911  -3.252 123.771  0.00  0.00    -0.297 OA
ENDROOT
BRANCH  19  21
ATOM     21  C   LIG A   1      -8.880  -3.423 124.308  0.00  0.00    +0.008 C 
ATOM     22  C   LIG A   1      -8.630  -2.514 123.108  0.00  0.00    +0.004 C 
ENDBRANCH  19  21
BRANCH   9  23
ATOM     23  O   LIG A   1      -4.556  -4.356 134.431  0.00  0.00    -0.454 OA
BRANCH  23  24
ATOM     24  C   LIG A   1      -3.413  -3.987 135.077  0.00  0.00    +0.305 C 
ATOM     25  C   LIG A   1      -3.467  -2.546 135.483  0.00  0.00    +0.136 C 
ATOM     26  O   LIG A   1      -2.457  -4.714 135.288  0.00  0.00    -0.251 OA
ENDBRANCH  23  24
ENDBRANCH   9  23
BRANCH  10  27
ATOM     27  C   LIG A   1      -6.612  -1.146 130.895  0.00  0.00    +0.240 C 
BRANCH  27  28
ATOM     28  O   LIG A   1      -7.724  -0.865 131.774  0.00  0.00    -0.464 OA
BRANCH  28  29
ATOM     29  C   LIG A   1      -8.651   0.013 131.327  0.00  0.00    +0.304 C 
ATOM     30  C   LIG A   1      -8.250   0.696 130.071  0.00  0.00    +0.136 C 
ATOM     31  O   LIG A   1      -9.703   0.262 131.903  0.00  0.00    -0.251 OA
ENDBRANCH  28  29
ENDBRANCH  27  28
ENDBRANCH  10  27
TORSDOF 6
ENDMDL
MODEL 7
REMARK VINA RESULT:      -7.2      4.958      9.736
REMARK  Name = NuBBE_993
REMARK  10 active torsions:
REMARK  status: ('A' for Active; 'I' for Inactive)
REMARK    1  A    between atoms: C_1  and  C_2
REMARK    2  A    between atoms: C_9  and  O_11
REMARK    3  A    between atoms: O_11  and  C_12
REMARK    4  A    between atoms: C_12  and  C_13
REMARK    5  A    between atoms: C_15  and  C_19
REMARK    6  A    between atoms: C_19  and  O_20
REMARK    7  A    between atoms: O_20  and  C_21
REMARK    8  A    between atoms: C_21  and  C_22
REMARK    9  A    between atoms: C_29  and  C_31
REMARK   10  A    between atoms: C_31  and  C_32
REMARK                            x       y       z     vdW  Elec       q    Type
REMARK                         _______ _______ _______ _____ _____    ______ ____
ROOT
ATOM      1  C   LIG A   1     -11.669   6.372 131.827  0.00  0.00    +0.012 C 
ATOM      2  C   LIG A   1     -10.940   5.785 130.594  0.00  0.00    -0.019 C 
ATOM      3  C   LIG A   1      -9.413   5.822 130.899  0.00  0.00    +0.006 C 
ATOM      4  C   LIG A   1      -8.612   4.677 130.241  0.00  0.00    -0.003 C 
ATOM      5  C   LIG A   1      -7.111   4.792 130.526  0.00  0.00    +0.004 C 
ATOM      6  C   LIG A   1      -6.398   3.541 130.065  0.00  0.00    +0.004 C 
ATOM      7  C   LIG A   1      -6.734   2.355 130.969  0.00  0.00    +0.003 C 
ATOM      8  C   LIG A   1      -6.202   1.078 130.311  0.00  0.00    +0.056 C 
ATOM      9  C   LIG A   1      -6.356  -0.108 131.255  0.00  0.00    +0.242 C 
ATOM     10  C   LIG A   1      -8.242   2.267 131.413  0.00  0.00    +0.018 C 
ATOM     11  C   LIG A   1      -8.788   0.815 131.211  0.00  0.00    +0.089 C 
ATOM     12  C   LIG A   1      -7.835  -0.314 131.563  0.00  0.00    +0.174 C 
ATOM     13  O   LIG A   1      -8.268  -1.376 132.016  0.00  0.00    -0.293 OA
ATOM     14  C   LIG A   1      -9.161   3.244 130.540  0.00  0.00    +0.002 C 
ATOM     15  C   LIG A   1     -10.648   3.252 130.968  0.00  0.00    +0.005 C 
ATOM     16  C   LIG A   1     -11.461   4.357 130.303  0.00  0.00    +0.008 C 
ATOM     17  C   LIG A   1      -8.967   7.229 130.458  0.00  0.00    +0.079 C 
ATOM     18  C   LIG A   1      -9.944   7.608 129.386  0.00  0.00    +0.137 C 
ATOM     19  C   LIG A   1     -11.129   6.673 129.310  0.00  0.00    +0.061 C 
ATOM     20  O   LIG A   1      -9.759   8.562 128.639  0.00  0.00    -0.297 OA
ENDROOT
BRANCH  19  21
ATOM     21  C   LIG A   1     -12.486   7.384 129.193  0.00  0.00    +0.008 C 
ATOM     22  C   LIG A   1     -13.303   6.976 127.971  0.00  0.00    +0.004 C 
ENDBRANCH  19  21
BRANCH   9  23
ATOM     23  O   LIG A   1      -5.789  -1.280 130.656  0.00  0.00    -0.454 OA
BRANCH  23  24
ATOM     24  C   LIG A   1      -4.801  -1.862 131.396  0.00  0.00    +0.305 C 
ATOM     25  C   LIG A   1      -3.462  -1.663 130.753  0.00  0.00    +0.136 C 
ATOM     26  O   LIG A   1      -4.969  -2.479 132.433  0.00  0.00    -0.251 OA
ENDBRANCH  23  24
ENDBRANCH   9  23
BRANCH  10  27
ATOM     27  C   LIG A   1      -8.355   2.625 132.936  0.00  0.00    +0.240 C 
BRANCH  27  28
ATOM     28  O   LIG A   1      -7.072   2.889 133.547  0.00  0.00    -0.464 OA
BRANCH  28  29
ATOM     29  C   LIG A   1      -7.011   3.916 134.426  0.00  0.00    +0.304 C 
ATOM     30  C   LIG A   1      -8.184   4.823 134.344  0.00  0.00    +0.136 C 
ATOM     31  O   LIG A   1      -6.077   4.117 135.191  0.00  0.00    -0.251 OA
ENDBRANCH  28  29
ENDBRANCH  27  28
ENDBRANCH  10  27
TORSDOF 6
ENDMDL
MODEL 8
REMARK VINA RESULT:      -7.2      3.014      4.830
REMARK  Name = NuBBE_993
REMARK  10 active torsions:
REMARK  status: ('A' for Active; 'I' for Inactive)
REMARK    1  A    between atoms: C_1  and  C_2
REMARK    2  A    between atoms: C_9  and  O_11
REMARK    3  A    between atoms: O_11  and  C_12
REMARK    4  A    between atoms: C_12  and  C_13
REMARK    5  A    between atoms: C_15  and  C_19
REMARK    6  A    between atoms: C_19  and  O_20
REMARK    7  A    between atoms: O_20  and  C_21
REMARK    8  A    between atoms: C_21  and  C_22
REMARK    9  A    between atoms: C_29  and  C_31
REMARK   10  A    between atoms: C_31  and  C_32
REMARK                            x       y       z     vdW  Elec       q    Type
REMARK                         _______ _______ _______ _____ _____    ______ ____
ROOT
ATOM      1  C   LIG A   1      -7.683  -2.517 130.972  0.00  0.00    +0.012 C 
ATOM      2  C   LIG A   1      -6.544  -1.619 130.433  0.00  0.00    -0.019 C 
ATOM      3  C   LIG A   1      -6.218  -2.102 128.988  0.00  0.00    +0.006 C 
ATOM      4  C   LIG A   1      -5.736  -0.978 128.044  0.00  0.00    -0.003 C 
ATOM      5  C   LIG A   1      -5.377  -1.515 126.655  0.00  0.00    +0.004 C 
ATOM      6  C   LIG A   1      -5.133  -0.367 125.702  0.00  0.00    +0.004 C 
ATOM      7  C   LIG A   1      -6.440   0.350 125.363  0.00  0.00    +0.003 C 
ATOM      8  C   LIG A   1      -6.103   1.644 124.616  0.00  0.00    +0.056 C 
ATOM      9  C   LIG A   1      -7.376   2.306 124.103  0.00  0.00    +0.242 C 
ATOM     10  C   LIG A   1      -7.421   0.548 126.579  0.00  0.00    +0.018 C 
ATOM     11  C   LIG A   1      -7.943   2.022 126.626  0.00  0.00    +0.089 C 
ATOM     12  C   LIG A   1      -8.268   2.661 125.288  0.00  0.00    +0.174 C 
ATOM     13  O   LIG A   1      -9.181   3.485 125.196  0.00  0.00    -0.293 OA
ATOM     14  C   LIG A   1      -6.684   0.262 127.971  0.00  0.00    +0.002 C 
ATOM     15  C   LIG A   1      -7.612   0.378 129.204  0.00  0.00    +0.005 C 
ATOM     16  C   LIG A   1      -6.971  -0.133 130.489  0.00  0.00    +0.008 C 
ATOM     17  C   LIG A   1      -5.195  -3.236 129.182  0.00  0.00    +0.079 C 
ATOM     18  C   LIG A   1      -4.511  -2.900 130.473  0.00  0.00    +0.137 C 
ATOM     19  C   LIG A   1      -5.208  -1.801 131.243  0.00  0.00    +0.061 C 
ATOM     20  O   LIG A   1      -3.475  -3.451 130.828  0.00  0.00    -0.297 OA
ENDROOT
BRANCH  19  21
ATOM     21  C   LIG A   1      -5.377  -2.091 132.741  0.00  0.00    +0.008 C 
ATOM     22  C   LIG A   1      -5.168  -0.879 133.642  0.00  0.00    +0.004 C 
ENDBRANCH  19  21
BRANCH   9  23
ATOM     23  O   LIG A   1      -7.042   3.476 123.345  0.00  0.00    -0.454 OA
BRANCH  23  24
ATOM     24  C   LIG A   1      -7.309   3.371 122.012  0.00  0.00    +0.305 C 
ATOM     25  C   LIG A   1      -6.043   3.323 121.212  0.00  0.00    +0.136 C 
ATOM     26  O   LIG A   1      -8.423   3.339 121.518  0.00  0.00    -0.251 OA
ENDBRANCH  23  24
ENDBRANCH   9  23
BRANCH  10  27
ATOM     27  C   LIG A   1      -8.656  -0.404 126.407  0.00  0.00    +0.240 C 
BRANCH  27  28
ATOM     28  O   LIG A   1      -8.613  -1.162 125.178  0.00  0.00    -0.464 OA
BRANCH  28  29
ATOM     29  C   LIG A   1      -8.964  -2.467 125.250  0.00  0.00    +0.304 C 
ATOM     30  C   LIG A   1      -7.970  -3.373 124.619  0.00  0.00    +0.136 C 
ATOM     31  O   LIG A   1     -10.005  -2.878 125.746  0.00  0.00    -0.251 OA
ENDBRANCH  28  29
ENDBRANCH  27  28
ENDBRANCH  10  27
TORSDOF 6
ENDMDL
MODEL 9
REMARK VINA RESULT:      -7.0      3.379      7.515
REMARK  Name = NuBBE_993
REMARK  10 active torsions:
REMARK  status: ('A' for Active; 'I' for Inactive)
REMARK    1  A    between atoms: C_1  and  C_2
REMARK    2  A    between atoms: C_9  and  O_11
REMARK    3  A    between atoms: O_11  and  C_12
REMARK    4  A    between atoms: C_12  and  C_13
REMARK    5  A    between atoms: C_15  and  C_19
REMARK    6  A    between atoms: C_19  and  O_20
REMARK    7  A    between atoms: O_20  and  C_21
REMARK    8  A    between atoms: C_21  and  C_22
REMARK    9  A    between atoms: C_29  and  C_31
REMARK   10  A    between atoms: C_31  and  C_32
REMARK                            x       y       z     vdW  Elec       q    Type
REMARK                         _______ _______ _______ _____ _____    ______ ____
ROOT
ATOM      1  C   LIG A   1      -5.739  -2.395 126.613  0.00  0.00    +0.012 C 
ATOM      2  C   LIG A   1      -7.081  -1.710 126.968  0.00  0.00    -0.019 C 
ATOM      3  C   LIG A   1      -7.152  -1.609 128.521  0.00  0.00    +0.006 C 
ATOM      4  C   LIG A   1      -7.927  -0.376 129.035  0.00  0.00    -0.003 C 
ATOM      5  C   LIG A   1      -8.015  -0.354 130.565  0.00  0.00    +0.004 C 
ATOM      6  C   LIG A   1      -8.573   0.971 131.033  0.00  0.00    +0.004 C 
ATOM      7  C   LIG A   1      -7.561   2.096 130.825  0.00  0.00    +0.003 C 
ATOM      8  C   LIG A   1      -8.265   3.434 131.068  0.00  0.00    +0.056 C 
ATOM      9  C   LIG A   1      -7.257   4.576 131.045  0.00  0.00    +0.242 C 
ATOM     10  C   LIG A   1      -6.766   2.028 129.467  0.00  0.00    +0.018 C 
ATOM     11  C   LIG A   1      -6.763   3.425 128.765  0.00  0.00    +0.089 C 
ATOM     12  C   LIG A   1      -6.596   4.632 129.672  0.00  0.00    +0.174 C 
ATOM     13  O   LIG A   1      -6.002   5.636 129.271  0.00  0.00    -0.293 OA
ATOM     14  C   LIG A   1      -7.439   0.990 128.452  0.00  0.00    +0.002 C 
ATOM     15  C   LIG A   1      -6.668   0.829 127.120  0.00  0.00    +0.005 C 
ATOM     16  C   LIG A   1      -7.172  -0.333 126.270  0.00  0.00    +0.008 C 
ATOM     17  C   LIG A   1      -7.753  -2.955 128.968  0.00  0.00    +0.079 C 
ATOM     18  C   LIG A   1      -8.576  -3.399 127.796  0.00  0.00    +0.137 C 
ATOM     19  C   LIG A   1      -8.323  -2.580 126.551  0.00  0.00    +0.061 C 
ATOM     20  O   LIG A   1      -9.390  -4.312 127.877  0.00  0.00    -0.297 OA
ENDROOT
BRANCH  19  21
ATOM     21  C   LIG A   1      -8.146  -3.415 125.274  0.00  0.00    +0.008 C 
ATOM     22  C   LIG A   1      -9.264  -3.239 124.251  0.00  0.00    +0.004 C 
ENDBRANCH  19  21
BRANCH   9  23
ATOM     23  O   LIG A   1      -7.918   5.812 131.346  0.00  0.00    -0.454 OA
BRANCH  23  24
ATOM     24  C   LIG A   1      -8.261   5.956 132.658  0.00  0.00    +0.305 C 
ATOM     25  C   LIG A   1      -7.093   5.669 133.552  0.00  0.00    +0.136 C 
ATOM     26  O   LIG A   1      -9.368   6.259 133.068  0.00  0.00    -0.251 OA
ENDBRANCH  23  24
ENDBRANCH   9  23
BRANCH  10  27
ATOM     27  C   LIG A   1      -5.278   1.623 129.758  0.00  0.00    +0.240 C 
BRANCH  27  28
ATOM     28  O   LIG A   1      -5.026   1.387 131.162  0.00  0.00    -0.464 OA
BRANCH  28  29
ATOM     29  C   LIG A   1      -4.252   0.321 131.475  0.00  0.00    +0.304 C 
ATOM     30  C   LIG A   1      -4.131  -0.657 130.363  0.00  0.00    +0.136 C 
ATOM     31  O   LIG A   1      -3.728   0.143 132.566  0.00  0.00    -0.251 OA
ENDBRANCH  28  29
ENDBRANCH  27  28
ENDBRANCH  10  27
TORSDOF 6
ENDMDL
