MODEL 1
REMARK VINA RESULT:      -7.3      0.000      0.000
REMARK  Name = NuBBE_2296
REMARK  9 active torsions:
REMARK  status: ('A' for Active; 'I' for Inactive)
REMARK    1  A    between atoms: C_2  and  C_3
REMARK    2  A    between atoms: C_3  and  C_4
REMARK    3  A    between atoms: C_6  and  O_7
REMARK    4  A    between atoms: O_7  and  C_8
REMARK    5  A    between atoms: C_10  and  O_11
REMARK    6  A    between atoms: O_11  and  C_12
REMARK    7  A    between atoms: C_14  and  O_15
REMARK    8  A    between atoms: C_17  and  C_19
REMARK    9  A    between atoms: C_20  and  C_22
REMARK                            x       y       z     vdW  Elec       q    Type
REMARK                         _______ _______ _______ _____ _____    ______ ____
ROOT
ATOM      1  C   LIG A   1      -7.270   0.020 124.698  0.00  0.00    +0.028 C 
ATOM      2  C   LIG A   1      -7.229   1.012 123.533  0.00  0.00    +0.032 C 
ATOM      3  C   LIG A   1      -7.652   2.284 123.622  0.00  0.00    +0.162 C 
ATOM      4  C   LIG A   1      -8.177   2.768 124.971  0.00  0.00    +0.232 C 
ATOM      5  C   LIG A   1      -8.081   1.760 126.153  0.00  0.00    +0.168 C 
ATOM      6  O   LIG A   1      -8.616   3.897 125.100  0.00  0.00    -0.286 OA
ATOM      7  C   LIG A   1      -8.477   0.377 125.583  0.00  0.00    +0.165 C 
ATOM      8  C   LIG A   1      -6.058   0.373 125.629  0.00  0.00    +0.009 C 
ATOM      9  C   LIG A   1      -5.432  -0.772 126.428  0.00  0.00    +0.009 C 
ATOM     10  C   LIG A   1      -6.608   1.474 126.621  0.00  0.00    +0.065 C 
ENDROOT
BRANCH  10  11
ATOM     11  C   LIG A   1      -5.629   2.638 126.803  0.00  0.00    -0.037 A 
ATOM     12  C   LIG A   1      -5.874   3.629 127.779  0.00  0.00    +0.053 A 
ATOM     13  C   LIG A   1      -4.941   4.641 127.954  0.00  0.00    +0.167 A 
ATOM     14  O   LIG A   1      -5.039   5.684 128.827  0.00  0.00    -0.453 OA
ATOM     15  C   LIG A   1      -3.830   6.416 128.515  0.00  0.00    +0.466 C 
ATOM     16  O   LIG A   1      -2.989   5.745 127.557  0.00  0.00    -0.453 OA
ATOM     17  C   LIG A   1      -3.778   4.691 127.225  0.00  0.00    +0.166 A 
ATOM     18  C   LIG A   1      -3.497   3.754 126.267  0.00  0.00    +0.050 A 
ATOM     19  C   LIG A   1      -4.431   2.735 126.056  0.00  0.00    +0.008 A 
ENDBRANCH  10  11
BRANCH   3  20
ATOM     20  O   LIG A   1      -7.559   3.236 122.624  0.00  0.00    -0.492 OA
ATOM     21  C   LIG A   1      -6.255   3.739 122.349  0.00  0.00    +0.277 C 
ENDBRANCH   3  20
BRANCH   5  22
ATOM     22  O   LIG A   1      -8.986   1.928 127.253  0.00  0.00    -0.365 OA
ATOM     23  C   LIG A   1      -8.573   1.412 128.507  0.00  0.00    +0.195 C 
ENDBRANCH   5  22
BRANCH   7  24
ATOM     24  O   LIG A   1      -9.716   0.382 124.871  0.00  0.00    -0.388 OA
ATOM     25  H   LIG A   1     -10.422   0.235 125.533  0.00  0.00    +0.210 HD
ENDBRANCH   7  24
BRANCH   1  26
ATOM     26  C   LIG A   1      -7.400  -1.432 124.169  0.00  0.00    +0.040 C 
BRANCH  26  28
ATOM     27  C   LIG A   1      -5.434  -2.675 123.182  0.00  0.00    +0.004 C 
ATOM     28  C   LIG A   1      -6.459  -1.824 123.053  0.00  0.00    -0.034 C 
ENDBRANCH  26  28
ENDBRANCH   1  26
TORSDOF 6
ENDMDL
MODEL 2
REMARK VINA RESULT:      -7.1      5.014      7.743
REMARK  Name = NuBBE_2296
REMARK  9 active torsions:
REMARK  status: ('A' for Active; 'I' for Inactive)
REMARK    1  A    between atoms: C_2  and  C_3
REMARK    2  A    between atoms: C_3  and  C_4
REMARK    3  A    between atoms: C_6  and  O_7
REMARK    4  A    between atoms: O_7  and  C_8
REMARK    5  A    between atoms: C_10  and  O_11
REMARK    6  A    between atoms: O_11  and  C_12
REMARK    7  A    between atoms: C_14  and  O_15
REMARK    8  A    between atoms: C_17  and  C_19
REMARK    9  A    between atoms: C_20  and  C_22
REMARK                            x       y       z     vdW  Elec       q    Type
REMARK                         _______ _______ _______ _____ _____    ______ ____
ROOT
ATOM      1  C   LIG A   1      -6.523   4.263 130.796  0.00  0.00    +0.028 C 
ATOM      2  C   LIG A   1      -7.239   3.584 129.626  0.00  0.00    +0.032 C 
ATOM      3  C   LIG A   1      -8.477   3.067 129.710  0.00  0.00    +0.162 C 
ATOM      4  C   LIG A   1      -9.214   3.192 131.040  0.00  0.00    +0.232 C 
ATOM      5  C   LIG A   1      -8.493   4.000 132.158  0.00  0.00    +0.168 C 
ATOM      6  O   LIG A   1     -10.319   2.703 131.188  0.00  0.00    -0.286 OA
ATOM      7  C   LIG A   1      -7.000   3.596 132.098  0.00  0.00    +0.165 C 
ATOM      8  C   LIG A   1      -7.131   5.703 130.918  0.00  0.00    +0.009 C 
ATOM      9  C   LIG A   1      -6.221   6.805 131.465  0.00  0.00    +0.009 C 
ATOM     10  C   LIG A   1      -8.392   5.540 131.859  0.00  0.00    +0.065 C 
ENDROOT
BRANCH  10  11
ATOM     11  C   LIG A   1      -9.617   6.293 131.330  0.00  0.00    -0.037 A 
ATOM     12  C   LIG A   1      -9.541   7.014 130.118  0.00  0.00    +0.053 A 
ATOM     13  C   LIG A   1     -10.682   7.642 129.640  0.00  0.00    +0.167 A 
ATOM     14  O   LIG A   1     -10.772   8.397 128.509  0.00  0.00    -0.453 OA
ATOM     15  C   LIG A   1     -12.155   8.820 128.571  0.00  0.00    +0.466 C 
ATOM     16  O   LIG A   1     -12.884   8.224 129.661  0.00  0.00    -0.453 OA
ATOM     17  C   LIG A   1     -11.885   7.560 130.297  0.00  0.00    +0.166 A 
ATOM     18  C   LIG A   1     -12.008   6.874 131.477  0.00  0.00    +0.050 A 
ATOM     19  C   LIG A   1     -10.867   6.251 131.991  0.00  0.00    +0.008 A 
ENDBRANCH  10  11
BRANCH   3  20
ATOM     20  O   LIG A   1      -9.193   2.519 128.662  0.00  0.00    -0.492 OA
ATOM     21  C   LIG A   1      -8.508   1.563 127.858  0.00  0.00    +0.277 C 
ENDBRANCH   3  20
BRANCH   5  22
ATOM     22  O   LIG A   1      -8.848   3.725 133.520  0.00  0.00    -0.365 OA
ATOM     23  C   LIG A   1      -8.223   4.515 134.517  0.00  0.00    +0.195 C 
ENDBRANCH   5  22
BRANCH   7  24
ATOM     24  O   LIG A   1      -6.787   2.183 132.117  0.00  0.00    -0.388 OA
ATOM     25  H   LIG A   1      -6.707   1.923 133.058  0.00  0.00    +0.210 HD
ENDBRANCH   7  24
BRANCH   1  26
ATOM     26  C   LIG A   1      -4.986   4.118 130.648  0.00  0.00    +0.040 C 
BRANCH  26  28
ATOM     27  C   LIG A   1      -3.550   5.138 128.836  0.00  0.00    +0.004 C 
ATOM     28  C   LIG A   1      -4.437   4.222 129.244  0.00  0.00    -0.034 C 
ENDBRANCH  26  28
ENDBRANCH   1  26
TORSDOF 6
ENDMDL
MODEL 3
REMARK VINA RESULT:      -7.0      2.831      4.750
REMARK  Name = NuBBE_2296
REMARK  9 active torsions:
REMARK  status: ('A' for Active; 'I' for Inactive)
REMARK    1  A    between atoms: C_2  and  C_3
REMARK    2  A    between atoms: C_3  and  C_4
REMARK    3  A    between atoms: C_6  and  O_7
REMARK    4  A    between atoms: O_7  and  C_8
REMARK    5  A    between atoms: C_10  and  O_11
REMARK    6  A    between atoms: O_11  and  C_12
REMARK    7  A    between atoms: C_14  and  O_15
REMARK    8  A    between atoms: C_17  and  C_19
REMARK    9  A    between atoms: C_20  and  C_22
REMARK                            x       y       z     vdW  Elec       q    Type
REMARK                         _______ _______ _______ _____ _____    ______ ____
ROOT
ATOM      1  C   LIG A   1      -7.854  -0.548 126.669  0.00  0.00    +0.028 C 
ATOM      2  C   LIG A   1      -6.629  -1.245 126.071  0.00  0.00    +0.032 C 
ATOM      3  C   LIG A   1      -6.427  -1.392 124.751  0.00  0.00    +0.162 C 
ATOM      4  C   LIG A   1      -7.466  -0.806 123.800  0.00  0.00    +0.232 C 
ATOM      5  C   LIG A   1      -8.626   0.000 124.453  0.00  0.00    +0.168 C 
ATOM      6  O   LIG A   1      -7.358  -0.948 122.595  0.00  0.00    -0.286 OA
ATOM      7  C   LIG A   1      -9.044  -0.782 125.721  0.00  0.00    +0.165 C 
ATOM      8  C   LIG A   1      -7.609   0.993 126.520  0.00  0.00    +0.009 C 
ATOM      9  C   LIG A   1      -8.242   1.909 127.571  0.00  0.00    +0.009 C 
ATOM     10  C   LIG A   1      -8.168   1.363 125.088  0.00  0.00    +0.065 C 
ENDROOT
BRANCH  10  11
ATOM     11  C   LIG A   1      -7.221   2.283 124.311  0.00  0.00    -0.037 A 
ATOM     12  C   LIG A   1      -7.388   2.467 122.920  0.00  0.00    +0.053 A 
ATOM     13  C   LIG A   1      -6.547   3.347 122.255  0.00  0.00    +0.167 A 
ATOM     14  O   LIG A   1      -6.555   3.614 120.919  0.00  0.00    -0.453 OA
ATOM     15  C   LIG A   1      -5.443   4.535 120.817  0.00  0.00    +0.466 C 
ATOM     16  O   LIG A   1      -4.873   4.883 122.092  0.00  0.00    -0.453 OA
ATOM     17  C   LIG A   1      -5.577   4.062 122.914  0.00  0.00    +0.166 A 
ATOM     18  C   LIG A   1      -5.376   3.918 124.262  0.00  0.00    +0.050 A 
ATOM     19  C   LIG A   1      -6.197   3.021 124.951  0.00  0.00    +0.008 A 
ENDBRANCH  10  11
BRANCH   3  20
ATOM     20  O   LIG A   1      -5.300  -1.940 124.164  0.00  0.00    -0.492 OA
ATOM     21  C   LIG A   1      -5.263  -3.361 124.071  0.00  0.00    +0.277 C 
ENDBRANCH   3  20
BRANCH   5  22
ATOM     22  O   LIG A   1      -9.856   0.117 123.725  0.00  0.00    -0.365 OA
ATOM     23  C   LIG A   1     -10.657   1.254 123.998  0.00  0.00    +0.195 C 
ENDBRANCH   5  22
BRANCH   7  24
ATOM     24  O   LIG A   1      -9.308  -2.167 125.481  0.00  0.00    -0.388 OA
ATOM     25  H   LIG A   1      -9.315  -2.288 124.510  0.00  0.00    +0.210 HD
ENDBRANCH   7  24
BRANCH   1  26
ATOM     26  C   LIG A   1      -8.167  -1.116 128.077  0.00  0.00    +0.040 C 
BRANCH  26  28
ATOM     27  C   LIG A   1      -8.454  -3.578 128.572  0.00  0.00    +0.004 C 
ATOM     28  C   LIG A   1      -7.669  -2.515 128.360  0.00  0.00    -0.034 C 
ENDBRANCH  26  28
ENDBRANCH   1  26
TORSDOF 6
ENDMDL
MODEL 4
REMARK VINA RESULT:      -6.7      3.585      6.053
REMARK  Name = NuBBE_2296
REMARK  9 active torsions:
REMARK  status: ('A' for Active; 'I' for Inactive)
REMARK    1  A    between atoms: C_2  and  C_3
REMARK    2  A    between atoms: C_3  and  C_4
REMARK    3  A    between atoms: C_6  and  O_7
REMARK    4  A    between atoms: O_7  and  C_8
REMARK    5  A    between atoms: C_10  and  O_11
REMARK    6  A    between atoms: O_11  and  C_12
REMARK    7  A    between atoms: C_14  and  O_15
REMARK    8  A    between atoms: C_17  and  C_19
REMARK    9  A    between atoms: C_20  and  C_22
REMARK                            x       y       z     vdW  Elec       q    Type
REMARK                         _______ _______ _______ _____ _____    ______ ____
ROOT
ATOM      1  C   LIG A   1      -9.065   2.592 131.335  0.00  0.00    +0.028 C 
ATOM      2  C   LIG A   1      -8.674   2.282 129.888  0.00  0.00    +0.032 C 
ATOM      3  C   LIG A   1      -8.641   3.204 128.912  0.00  0.00    +0.162 C 
ATOM      4  C   LIG A   1      -8.986   4.645 129.278  0.00  0.00    +0.232 C 
ATOM      5  C   LIG A   1      -9.253   4.930 130.784  0.00  0.00    +0.168 C 
ATOM      6  O   LIG A   1      -9.016   5.514 128.426  0.00  0.00    -0.286 OA
ATOM      7  C   LIG A   1     -10.089   3.740 131.315  0.00  0.00    +0.165 C 
ATOM      8  C   LIG A   1      -7.817   3.271 131.999  0.00  0.00    +0.009 C 
ATOM      9  C   LIG A   1      -7.627   3.069 133.504  0.00  0.00    +0.009 C 
ATOM     10  C   LIG A   1      -7.972   4.813 131.687  0.00  0.00    +0.065 C 
ENDROOT
BRANCH  10  11
ATOM     11  C   LIG A   1      -6.657   5.451 131.225  0.00  0.00    -0.037 A 
ATOM     12  C   LIG A   1      -5.588   4.639 130.786  0.00  0.00    +0.053 A 
ATOM     13  C   LIG A   1      -4.430   5.248 130.325  0.00  0.00    +0.167 A 
ATOM     14  O   LIG A   1      -3.302   4.614 129.896  0.00  0.00    -0.453 OA
ATOM     15  C   LIG A   1      -2.445   5.744 129.610  0.00  0.00    +0.466 C 
ATOM     16  O   LIG A   1      -3.106   7.014 129.762  0.00  0.00    -0.453 OA
ATOM     17  C   LIG A   1      -4.305   6.614 130.259  0.00  0.00    +0.166 A 
ATOM     18  C   LIG A   1      -5.314   7.443 130.674  0.00  0.00    +0.050 A 
ATOM     19  C   LIG A   1      -6.484   6.854 131.164  0.00  0.00    +0.008 A 
ENDBRANCH  10  11
BRANCH   3  20
ATOM     20  O   LIG A   1      -8.217   2.988 127.613  0.00  0.00    -0.492 OA
ATOM     21  C   LIG A   1      -7.344   1.881 127.409  0.00  0.00    +0.277 C 
ENDBRANCH   3  20
BRANCH   5  22
ATOM     22  O   LIG A   1     -10.061   6.068 131.119  0.00  0.00    -0.365 OA
ATOM     23  C   LIG A   1     -10.457   6.196 132.474  0.00  0.00    +0.195 C 
ENDBRANCH   5  22
BRANCH   7  24
ATOM     24  O   LIG A   1     -11.244   3.451 130.524  0.00  0.00    -0.388 OA
ATOM     25  H   LIG A   1     -11.903   4.147 130.721  0.00  0.00    +0.210 HD
ENDBRANCH   7  24
BRANCH   1  26
ATOM     26  C   LIG A   1      -9.675   1.338 132.013  0.00  0.00    +0.040 C 
BRANCH  26  28
ATOM     27  C   LIG A   1      -8.042  -0.568 132.310  0.00  0.00    +0.004 C 
ATOM     28  C   LIG A   1      -9.051   0.011 131.647  0.00  0.00    -0.034 C 
ENDBRANCH  26  28
ENDBRANCH   1  26
TORSDOF 6
ENDMDL
MODEL 5
REMARK VINA RESULT:      -6.5      4.691      7.562
REMARK  Name = NuBBE_2296
REMARK  9 active torsions:
REMARK  status: ('A' for Active; 'I' for Inactive)
REMARK    1  A    between atoms: C_2  and  C_3
REMARK    2  A    between atoms: C_3  and  C_4
REMARK    3  A    between atoms: C_6  and  O_7
REMARK    4  A    between atoms: O_7  and  C_8
REMARK    5  A    between atoms: C_10  and  O_11
REMARK    6  A    between atoms: O_11  and  C_12
REMARK    7  A    between atoms: C_14  and  O_15
REMARK    8  A    between atoms: C_17  and  C_19
REMARK    9  A    between atoms: C_20  and  C_22
REMARK                            x       y       z     vdW  Elec       q    Type
REMARK                         _______ _______ _______ _____ _____    ______ ____
ROOT
ATOM      1  C   LIG A   1      -6.612   4.334 131.521  0.00  0.00    +0.028 C 
ATOM      2  C   LIG A   1      -6.057   4.639 130.128  0.00  0.00    +0.032 C 
ATOM      3  C   LIG A   1      -6.678   4.296 128.987  0.00  0.00    +0.162 C 
ATOM      4  C   LIG A   1      -8.025   3.585 129.094  0.00  0.00    +0.232 C 
ATOM      5  C   LIG A   1      -8.603   3.410 130.528  0.00  0.00    +0.168 C 
ATOM      6  O   LIG A   1      -8.612   3.210 128.095  0.00  0.00    -0.286 OA
ATOM      7  C   LIG A   1      -7.412   3.022 131.437  0.00  0.00    +0.165 C 
ATOM      8  C   LIG A   1      -7.736   5.392 131.798  0.00  0.00    +0.009 C 
ATOM      9  C   LIG A   1      -7.977   5.794 133.254  0.00  0.00    +0.009 C 
ATOM     10  C   LIG A   1      -9.054   4.759 131.196  0.00  0.00    +0.065 C 
ENDROOT
BRANCH  10  11
ATOM     11  C   LIG A   1      -9.871   5.772 130.387  0.00  0.00    -0.037 A 
ATOM     12  C   LIG A   1     -11.213   5.493 130.044  0.00  0.00    +0.053 A 
ATOM     13  C   LIG A   1     -11.942   6.453 129.357  0.00  0.00    +0.167 A 
ATOM     14  O   LIG A   1     -13.230   6.332 128.927  0.00  0.00    -0.453 OA
ATOM     15  C   LIG A   1     -13.410   7.594 128.243  0.00  0.00    +0.466 C 
ATOM     16  O   LIG A   1     -12.282   8.479 128.374  0.00  0.00    -0.453 OA
ATOM     17  C   LIG A   1     -11.405   7.673 129.025  0.00  0.00    +0.166 A 
ATOM     18  C   LIG A   1     -10.108   7.989 129.335  0.00  0.00    +0.050 A 
ATOM     19  C   LIG A   1      -9.345   7.030 130.009  0.00  0.00    +0.008 A 
ENDBRANCH  10  11
BRANCH   3  20
ATOM     20  O   LIG A   1      -6.258   4.622 127.711  0.00  0.00    -0.492 OA
ATOM     21  C   LIG A   1      -4.850   4.703 127.510  0.00  0.00    +0.277 C 
ENDBRANCH   3  20
BRANCH   5  22
ATOM     22  O   LIG A   1      -9.540   2.346 130.749  0.00  0.00    -0.365 OA
ATOM     23  C   LIG A   1      -9.908   2.085 132.092  0.00  0.00    +0.195 C 
ENDBRANCH   5  22
BRANCH   7  24
ATOM     24  O   LIG A   1      -6.644   1.924 130.939  0.00  0.00    -0.388 OA
ATOM     25  H   LIG A   1      -7.278   1.292 130.544  0.00  0.00    +0.210 HD
ENDBRANCH   7  24
BRANCH   1  26
ATOM     26  C   LIG A   1      -5.457   4.195 132.546  0.00  0.00    +0.040 C 
BRANCH  26  28
ATOM     27  C   LIG A   1      -2.934   4.111 132.679  0.00  0.00    +0.004 C 
ATOM     28  C   LIG A   1      -4.058   4.392 132.008  0.00  0.00    -0.034 C 
ENDBRANCH  26  28
ENDBRANCH   1  26
TORSDOF 6
ENDMDL
MODEL 6
REMARK VINA RESULT:      -6.3      1.824      6.544
REMARK  Name = NuBBE_2296
REMARK  9 active torsions:
REMARK  status: ('A' for Active; 'I' for Inactive)
REMARK    1  A    between atoms: C_2  and  C_3
REMARK    2  A    between atoms: C_3  and  C_4
REMARK    3  A    between atoms: C_6  and  O_7
REMARK    4  A    between atoms: O_7  and  C_8
REMARK    5  A    between atoms: C_10  and  O_11
REMARK    6  A    between atoms: O_11  and  C_12
REMARK    7  A    between atoms: C_14  and  O_15
REMARK    8  A    between atoms: C_17  and  C_19
REMARK    9  A    between atoms: C_20  and  C_22
REMARK                            x       y       z     vdW  Elec       q    Type
REMARK                         _______ _______ _______ _____ _____    ______ ____
ROOT
ATOM      1  C   LIG A   1      -4.305   3.540 128.516  0.00  0.00    +0.028 C 
ATOM      2  C   LIG A   1      -5.100   2.667 129.490  0.00  0.00    +0.032 C 
ATOM      3  C   LIG A   1      -6.410   2.402 129.353  0.00  0.00    +0.162 C 
ATOM      4  C   LIG A   1      -7.133   2.983 128.142  0.00  0.00    +0.232 C 
ATOM      5  C   LIG A   1      -6.254   3.757 127.117  0.00  0.00    +0.168 C 
ATOM      6  O   LIG A   1      -8.329   2.813 127.989  0.00  0.00    -0.286 OA
ATOM      7  C   LIG A   1      -5.258   4.604 127.945  0.00  0.00    +0.165 C 
ATOM      8  C   LIG A   1      -4.008   2.651 127.259  0.00  0.00    +0.009 C 
ATOM      9  C   LIG A   1      -2.727   2.949 126.476  0.00  0.00    +0.009 C 
ATOM     10  C   LIG A   1      -5.262   2.840 126.315  0.00  0.00    +0.065 C 
ENDROOT
BRANCH  10  11
ATOM     11  C   LIG A   1      -5.758   1.513 125.731  0.00  0.00    -0.037 A 
ATOM     12  C   LIG A   1      -6.740   1.505 124.715  0.00  0.00    +0.053 A 
ATOM     13  C   LIG A   1      -7.129   0.290 124.170  0.00  0.00    +0.167 A 
ATOM     14  O   LIG A   1      -8.078   0.105 123.209  0.00  0.00    -0.453 OA
ATOM     15  C   LIG A   1      -8.082  -1.338 123.102  0.00  0.00    +0.466 C 
ATOM     16  O   LIG A   1      -7.069  -1.972 123.906  0.00  0.00    -0.453 OA
ATOM     17  C   LIG A   1      -6.570  -0.898 124.571  0.00  0.00    +0.166 A 
ATOM     18  C   LIG A   1      -5.615  -0.942 125.554  0.00  0.00    +0.050 A 
ATOM     19  C   LIG A   1      -5.221   0.267 126.134  0.00  0.00    +0.008 A 
ENDBRANCH  10  11
BRANCH   3  20
ATOM     20  O   LIG A   1      -7.149   1.555 130.159  0.00  0.00    -0.492 OA
ATOM     21  C   LIG A   1      -6.984   0.159 129.929  0.00  0.00    +0.277 C 
ENDBRANCH   3  20
BRANCH   5  22
ATOM     22  O   LIG A   1      -6.896   4.734 126.285  0.00  0.00    -0.365 OA
ATOM     23  C   LIG A   1      -6.161   5.208 125.169  0.00  0.00    +0.195 C 
ENDBRANCH   5  22
BRANCH   7  24
ATOM     24  O   LIG A   1      -5.882   5.401 128.955  0.00  0.00    -0.388 OA
ATOM     25  H   LIG A   1      -6.554   4.834 129.386  0.00  0.00    +0.210 HD
ENDBRANCH   7  24
BRANCH   1  26
ATOM     26  C   LIG A   1      -3.114   4.217 129.243  0.00  0.00    +0.040 C 
BRANCH  26  28
ATOM     27  C   LIG A   1      -2.118   6.540 129.255  0.00  0.00    +0.004 C 
ATOM     28  C   LIG A   1      -2.555   5.462 128.592  0.00  0.00    -0.034 C 
ENDBRANCH  26  28
ENDBRANCH   1  26
TORSDOF 6
ENDMDL
MODEL 7
REMARK VINA RESULT:      -6.3      3.141      5.420
REMARK  Name = NuBBE_2296
REMARK  9 active torsions:
REMARK  status: ('A' for Active; 'I' for Inactive)
REMARK    1  A    between atoms: C_2  and  C_3
REMARK    2  A    between atoms: C_3  and  C_4
REMARK    3  A    between atoms: C_6  and  O_7
REMARK    4  A    between atoms: O_7  and  C_8
REMARK    5  A    between atoms: C_10  and  O_11
REMARK    6  A    between atoms: O_11  and  C_12
REMARK    7  A    between atoms: C_14  and  O_15
REMARK    8  A    between atoms: C_17  and  C_19
REMARK    9  A    between atoms: C_20  and  C_22
REMARK                            x       y       z     vdW  Elec       q    Type
REMARK                         _______ _______ _______ _____ _____    ______ ____
ROOT
ATOM      1  C   LIG A   1      -4.828   3.114 128.472  0.00  0.00    +0.028 C 
ATOM      2  C   LIG A   1      -5.260   3.961 127.273  0.00  0.00    +0.032 C 
ATOM      3  C   LIG A   1      -6.397   3.757 126.587  0.00  0.00    +0.162 C 
ATOM      4  C   LIG A   1      -7.318   2.632 127.051  0.00  0.00    +0.232 C 
ATOM      5  C   LIG A   1      -6.896   1.883 128.348  0.00  0.00    +0.168 C 
ATOM      6  O   LIG A   1      -8.339   2.371 126.441  0.00  0.00    -0.286 OA
ATOM      7  C   LIG A   1      -5.363   1.687 128.262  0.00  0.00    +0.165 C 
ATOM      8  C   LIG A   1      -5.673   3.609 129.697  0.00  0.00    +0.009 C 
ATOM      9  C   LIG A   1      -5.036   3.487 131.083  0.00  0.00    +0.009 C 
ATOM     10  C   LIG A   1      -7.006   2.759 129.648  0.00  0.00    +0.065 C 
ENDROOT
BRANCH  10  11
ATOM     11  C   LIG A   1      -8.254   3.616 129.883  0.00  0.00    -0.037 A 
ATOM     12  C   LIG A   1      -8.216   5.008 129.648  0.00  0.00    +0.053 A 
ATOM     13  C   LIG A   1      -9.377   5.748 129.820  0.00  0.00    +0.167 A 
ATOM     14  O   LIG A   1      -9.504   7.096 129.664  0.00  0.00    -0.453 OA
ATOM     15  C   LIG A   1     -10.891   7.285 130.029  0.00  0.00    +0.466 C 
ATOM     16  O   LIG A   1     -11.587   6.050 130.281  0.00  0.00    -0.453 OA
ATOM     17  C   LIG A   1     -10.564   5.162 130.185  0.00  0.00    +0.166 A 
ATOM     18  C   LIG A   1     -10.651   3.816 130.425  0.00  0.00    +0.050 A 
ATOM     19  C   LIG A   1      -9.489   3.051 130.280  0.00  0.00    +0.008 A 
ENDBRANCH  10  11
BRANCH   3  20
ATOM     20  O   LIG A   1      -6.866   4.545 125.552  0.00  0.00    -0.492 OA
ATOM     21  C   LIG A   1      -6.106   4.526 124.347  0.00  0.00    +0.277 C 
ENDBRANCH   3  20
BRANCH   5  22
ATOM     22  O   LIG A   1      -7.383   0.547 128.541  0.00  0.00    -0.365 OA
ATOM     23  C   LIG A   1      -7.238  -0.007 129.837  0.00  0.00    +0.195 C 
ENDBRANCH   5  22
BRANCH   7  24
ATOM     24  O   LIG A   1      -4.927   1.097 127.035  0.00  0.00    -0.388 OA
ATOM     25  H   LIG A   1      -5.599   1.322 126.360  0.00  0.00    +0.210 HD
ENDBRANCH   7  24
BRANCH   1  26
ATOM     26  C   LIG A   1      -3.282   3.098 128.596  0.00  0.00    +0.040 C 
BRANCH  26  28
ATOM     27  C   LIG A   1      -1.683   2.986 126.643  0.00  0.00    +0.004 C 
ATOM     28  C   LIG A   1      -2.512   3.679 127.433  0.00  0.00    -0.034 C 
ENDBRANCH  26  28
ENDBRANCH   1  26
TORSDOF 6
ENDMDL
MODEL 8
REMARK VINA RESULT:      -6.2      4.699      8.165
REMARK  Name = NuBBE_2296
REMARK  9 active torsions:
REMARK  status: ('A' for Active; 'I' for Inactive)
REMARK    1  A    between atoms: C_2  and  C_3
REMARK    2  A    between atoms: C_3  and  C_4
REMARK    3  A    between atoms: C_6  and  O_7
REMARK    4  A    between atoms: O_7  and  C_8
REMARK    5  A    between atoms: C_10  and  O_11
REMARK    6  A    between atoms: O_11  and  C_12
REMARK    7  A    between atoms: C_14  and  O_15
REMARK    8  A    between atoms: C_17  and  C_19
REMARK    9  A    between atoms: C_20  and  C_22
REMARK                            x       y       z     vdW  Elec       q    Type
REMARK                         _______ _______ _______ _____ _____    ______ ____
ROOT
ATOM      1  C   LIG A   1      -6.574  -2.523 132.000  0.00  0.00    +0.028 C 
ATOM      2  C   LIG A   1      -7.744  -1.555 131.818  0.00  0.00    +0.032 C 
ATOM      3  C   LIG A   1      -7.687  -0.454 131.049  0.00  0.00    +0.162 C 
ATOM      4  C   LIG A   1      -6.389  -0.174 130.299  0.00  0.00    +0.232 C 
ATOM      5  C   LIG A   1      -5.274  -1.253 130.419  0.00  0.00    +0.168 C 
ATOM      6  O   LIG A   1      -6.264   0.832 129.624  0.00  0.00    -0.286 OA
ATOM      7  C   LIG A   1      -5.268  -1.716 131.896  0.00  0.00    +0.165 C 
ATOM      8  C   LIG A   1      -6.521  -3.410 130.709  0.00  0.00    +0.009 C 
ATOM      9  C   LIG A   1      -5.978  -4.834 130.857  0.00  0.00    +0.009 C 
ATOM     10  C   LIG A   1      -5.619  -2.603 129.691  0.00  0.00    +0.065 C 
ENDROOT
BRANCH  10  11
ATOM     11  C   LIG A   1      -6.215  -2.574 128.279  0.00  0.00    -0.037 A 
ATOM     12  C   LIG A   1      -7.564  -2.934 128.068  0.00  0.00    +0.053 A 
ATOM     13  C   LIG A   1      -8.087  -2.847 126.786  0.00  0.00    +0.167 A 
ATOM     14  O   LIG A   1      -9.353  -3.182 126.408  0.00  0.00    -0.453 OA
ATOM     15  C   LIG A   1      -9.287  -2.941 124.983  0.00  0.00    +0.466 C 
ATOM     16  O   LIG A   1      -8.037  -2.365 124.561  0.00  0.00    -0.453 OA
ATOM     17  C   LIG A   1      -7.340  -2.396 125.726  0.00  0.00    +0.166 A 
ATOM     18  C   LIG A   1      -6.027  -2.036 125.880  0.00  0.00    +0.050 A 
ATOM     19  C   LIG A   1      -5.469  -2.136 127.159  0.00  0.00    +0.008 A 
ENDBRANCH  10  11
BRANCH   3  20
ATOM     20  O   LIG A   1      -8.742   0.403 130.790  0.00  0.00    -0.492 OA
ATOM     21  C   LIG A   1      -9.399   0.959 131.925  0.00  0.00    +0.277 C 
ENDBRANCH   3  20
BRANCH   5  22
ATOM     22  O   LIG A   1      -3.916  -0.842 130.203  0.00  0.00    -0.365 OA
ATOM     23  C   LIG A   1      -2.924  -1.852 130.267  0.00  0.00    +0.195 C 
ENDBRANCH   5  22
BRANCH   7  24
ATOM     24  O   LIG A   1      -5.194  -0.640 132.834  0.00  0.00    -0.388 OA
ATOM     25  H   LIG A   1      -5.748  -0.895 133.600  0.00  0.00    +0.210 HD
ENDBRANCH   7  24
BRANCH   1  26
ATOM     26  C   LIG A   1      -6.662  -3.227 133.379  0.00  0.00    +0.040 C 
BRANCH  26  28
ATOM     27  C   LIG A   1      -8.329  -3.541 135.253  0.00  0.00    +0.004 C 
ATOM     28  C   LIG A   1      -8.050  -3.405 133.951  0.00  0.00    -0.034 C 
ENDBRANCH  26  28
ENDBRANCH   1  26
TORSDOF 6
ENDMDL
MODEL 9
REMARK VINA RESULT:      -6.2      3.793      6.598
REMARK  Name = NuBBE_2296
REMARK  9 active torsions:
REMARK  status: ('A' for Active; 'I' for Inactive)
REMARK    1  A    between atoms: C_2  and  C_3
REMARK    2  A    between atoms: C_3  and  C_4
REMARK    3  A    between atoms: C_6  and  O_7
REMARK    4  A    between atoms: O_7  and  C_8
REMARK    5  A    between atoms: C_10  and  O_11
REMARK    6  A    between atoms: O_11  and  C_12
REMARK    7  A    between atoms: C_14  and  O_15
REMARK    8  A    between atoms: C_17  and  C_19
REMARK    9  A    between atoms: C_20  and  C_22
REMARK                            x       y       z     vdW  Elec       q    Type
REMARK                         _______ _______ _______ _____ _____    ______ ____
ROOT
ATOM      1  C   LIG A   1      -4.797   3.191 130.116  0.00  0.00    +0.028 C 
ATOM      2  C   LIG A   1      -3.725   3.296 129.028  0.00  0.00    +0.032 C 
ATOM      3  C   LIG A   1      -3.399   4.445 128.412  0.00  0.00    +0.162 C 
ATOM      4  C   LIG A   1      -4.122   5.717 128.846  0.00  0.00    +0.232 C 
ATOM      5  C   LIG A   1      -5.110   5.579 130.039  0.00  0.00    +0.168 C 
ATOM      6  O   LIG A   1      -3.900   6.779 128.292  0.00  0.00    -0.286 OA
ATOM      7  C   LIG A   1      -5.874   4.250 129.824  0.00  0.00    +0.165 C 
ATOM      8  C   LIG A   1      -4.148   3.731 131.437  0.00  0.00    +0.009 C 
ATOM      9  C   LIG A   1      -4.655   3.147 132.757  0.00  0.00    +0.009 C 
ATOM     10  C   LIG A   1      -4.405   5.292 131.414  0.00  0.00    +0.065 C 
ENDROOT
BRANCH  10  11
ATOM     11  C   LIG A   1      -3.162   6.094 131.812  0.00  0.00    -0.037 A 
ATOM     12  C   LIG A   1      -3.284   7.441 132.220  0.00  0.00    +0.053 A 
ATOM     13  C   LIG A   1      -2.146   8.124 132.624  0.00  0.00    +0.167 A 
ATOM     14  O   LIG A   1      -2.087   9.428 133.017  0.00  0.00    -0.453 OA
ATOM     15  C   LIG A   1      -0.667   9.579 133.251  0.00  0.00    +0.466 C 
ATOM     16  O   LIG A   1       0.068   8.349 133.106  0.00  0.00    -0.453 OA
ATOM     17  C   LIG A   1      -0.913   7.521 132.664  0.00  0.00    +0.166 A 
ATOM     18  C   LIG A   1      -0.744   6.217 132.277  0.00  0.00    +0.050 A 
ATOM     19  C   LIG A   1      -1.872   5.513 131.845  0.00  0.00    +0.008 A 
ENDBRANCH  10  11
BRANCH   3  20
ATOM     20  O   LIG A   1      -2.384   4.603 127.486  0.00  0.00    -0.492 OA
ATOM     21  C   LIG A   1      -2.002   3.437 126.762  0.00  0.00    +0.277 C 
ENDBRANCH   3  20
BRANCH   5  22
ATOM     22  O   LIG A   1      -6.166   6.544 130.153  0.00  0.00    -0.365 OA
ATOM     23  C   LIG A   1      -6.859   6.593 131.388  0.00  0.00    +0.195 C 
ENDBRANCH   5  22
BRANCH   7  24
ATOM     24  O   LIG A   1      -6.452   4.123 128.523  0.00  0.00    -0.388 OA
ATOM     25  H   LIG A   1      -5.775   3.704 127.954  0.00  0.00    +0.210 HD
ENDBRANCH   7  24
BRANCH   1  26
ATOM     26  C   LIG A   1      -5.423   1.772 130.124  0.00  0.00    +0.040 C 
BRANCH  26  28
ATOM     27  C   LIG A   1      -5.838   0.340 128.084  0.00  0.00    +0.004 C 
ATOM     28  C   LIG A   1      -5.007   0.851 129.001  0.00  0.00    -0.034 C 
ENDBRANCH  26  28
ENDBRANCH   1  26
TORSDOF 6
ENDMDL
