MODEL 1
REMARK VINA RESULT:      -8.0      0.000      0.000
REMARK  Name = NuBBE_2236
REMARK  4 active torsions:
REMARK  status: ('A' for Active; 'I' for Inactive)
REMARK    1  A    between atoms: C_1  and  C_2
REMARK    2  A    between atoms: C_14  and  O_15
REMARK    3  A    between atoms: C_19  and  C_20
REMARK    4  A    between atoms: C_19  and  C_21
REMARK                            x       y       z     vdW  Elec       q    Type
REMARK                         _______ _______ _______ _____ _____    ______ ____
ROOT
ATOM      1  C   LIG A   1      -6.494  -1.736 123.320  0.00  0.00    +0.015 C 
ATOM      2  C   LIG A   1      -7.790  -0.977 123.755  0.00  0.00    +0.007 C 
ATOM      3  C   LIG A   1      -7.580   0.581 123.511  0.00  0.00    +0.004 C 
ATOM      4  C   LIG A   1      -6.531   1.149 124.484  0.00  0.00    +0.005 C 
ATOM      5  C   LIG A   1      -6.877   0.929 125.947  0.00  0.00    +0.011 C 
ATOM      6  C   LIG A   1      -7.123  -0.541 126.292  0.00  0.00    +0.011 C 
ATOM      7  C   LIG A   1      -5.741  -1.254 126.485  0.00  0.00    +0.040 C 
ATOM      8  C   LIG A   1      -5.924  -2.067 127.732  0.00  0.00    -0.072 C 
ATOM      9  C   LIG A   1      -7.383  -2.079 128.082  0.00  0.00    +0.022 C 
ATOM     10  C   LIG A   1      -7.738  -0.645 127.710  0.00  0.00    +0.018 C 
ATOM     11  C   LIG A   1      -8.090  -3.115 127.212  0.00  0.00    +0.085 C 
ATOM     12  C   LIG A   1      -4.939  -2.592 128.465  0.00  0.00    +0.008 C 
ATOM     13  C   LIG A   1      -8.096  -1.283 125.283  0.00  0.00    +0.135 C 
ATOM     14  C   LIG A   1      -8.191  -2.777 125.714  0.00  0.00    +0.166 C 
ATOM     15  O   LIG A   1      -8.527  -3.660 124.930  0.00  0.00    -0.294 OA
ATOM     16  C   LIG A   1      -8.863   1.506 123.354  0.00  0.00    -0.032 C 
ATOM     17  C   LIG A   1      -9.565   2.010 124.638  0.00  0.00    +0.011 C 
ATOM     18  C   LIG A   1      -8.424   2.835 122.659  0.00  0.00    +0.011 C 
ATOM     19  C   LIG A   1      -9.908   0.858 122.417  0.00  0.00    +0.007 C 
ATOM     20  C   LIG A   1     -10.107  -0.645 122.500  0.00  0.00    +0.001 C 
ATOM     21  C   LIG A   1      -8.864  -1.484 122.742  0.00  0.00    +0.010 C 
ENDROOT
BRANCH  13  22
ATOM     22  O   LIG A   1      -9.444  -0.870 125.549  0.00  0.00    -0.380 OA
ATOM     23  H   LIG A   1     -10.037  -1.566 125.208  0.00  0.00    +0.211 HD
ENDBRANCH  13  22
TORSDOF 1
ENDMDL
MODEL 2
REMARK VINA RESULT:      -7.6      2.138      4.059
REMARK  Name = NuBBE_2236
REMARK  4 active torsions:
REMARK  status: ('A' for Active; 'I' for Inactive)
REMARK    1  A    between atoms: C_1  and  C_2
REMARK    2  A    between atoms: C_14  and  O_15
REMARK    3  A    between atoms: C_19  and  C_20
REMARK    4  A    between atoms: C_19  and  C_21
REMARK                            x       y       z     vdW  Elec       q    Type
REMARK                         _______ _______ _______ _____ _____    ______ ____
ROOT
ATOM      1  C   LIG A   1      -8.469   0.388 126.530  0.00  0.00    +0.015 C 
ATOM      2  C   LIG A   1      -7.675  -0.768 125.838  0.00  0.00    +0.007 C 
ATOM      3  C   LIG A   1      -8.710  -1.838 125.277  0.00  0.00    +0.004 C 
ATOM      4  C   LIG A   1      -9.414  -2.575 126.432  0.00  0.00    +0.005 C 
ATOM      5  C   LIG A   1      -8.454  -3.277 127.379  0.00  0.00    +0.011 C 
ATOM      6  C   LIG A   1      -7.395  -2.342 127.964  0.00  0.00    +0.011 C 
ATOM      7  C   LIG A   1      -8.027  -1.543 129.155  0.00  0.00    +0.040 C 
ATOM      8  C   LIG A   1      -6.984  -1.612 130.231  0.00  0.00    -0.072 C 
ATOM      9  C   LIG A   1      -5.714  -2.142 129.629  0.00  0.00    +0.022 C 
ATOM     10  C   LIG A   1      -6.304  -3.177 128.680  0.00  0.00    +0.018 C 
ATOM     11  C   LIG A   1      -5.001  -1.003 128.905  0.00  0.00    +0.085 C 
ATOM     12  C   LIG A   1      -7.188  -1.355 131.525  0.00  0.00    +0.008 C 
ATOM     13  C   LIG A   1      -6.679  -1.427 126.884  0.00  0.00    +0.135 C 
ATOM     14  C   LIG A   1      -5.689  -0.483 127.630  0.00  0.00    +0.166 C 
ATOM     15  O   LIG A   1      -5.303   0.574 127.139  0.00  0.00    -0.294 OA
ATOM     16  C   LIG A   1      -8.246  -2.802 124.102  0.00  0.00    -0.032 C 
ATOM     17  C   LIG A   1      -7.445  -4.074 124.470  0.00  0.00    +0.011 C 
ATOM     18  C   LIG A   1      -9.523  -3.388 123.418  0.00  0.00    +0.011 C 
ATOM     19  C   LIG A   1      -7.493  -2.020 123.002  0.00  0.00    +0.007 C 
ATOM     20  C   LIG A   1      -6.557  -0.904 123.433  0.00  0.00    +0.001 C 
ATOM     21  C   LIG A   1      -7.000  -0.065 124.619  0.00  0.00    +0.010 C 
ENDROOT
BRANCH  13  22
ATOM     22  O   LIG A   1      -5.740  -2.225 126.148  0.00  0.00    -0.380 OA
ATOM     23  H   LIG A   1      -6.191  -3.053 125.897  0.00  0.00    +0.211 HD
ENDBRANCH  13  22
TORSDOF 1
ENDMDL
MODEL 3
REMARK VINA RESULT:      -7.5      1.835      4.676
REMARK  Name = NuBBE_2236
REMARK  4 active torsions:
REMARK  status: ('A' for Active; 'I' for Inactive)
REMARK    1  A    between atoms: C_1  and  C_2
REMARK    2  A    between atoms: C_14  and  O_15
REMARK    3  A    between atoms: C_19  and  C_20
REMARK    4  A    between atoms: C_19  and  C_21
REMARK                            x       y       z     vdW  Elec       q    Type
REMARK                         _______ _______ _______ _____ _____    ______ ____
ROOT
ATOM      1  C   LIG A   1      -8.054  -0.779 127.308  0.00  0.00    +0.015 C 
ATOM      2  C   LIG A   1      -7.949  -1.241 125.818  0.00  0.00    +0.007 C 
ATOM      3  C   LIG A   1      -6.500  -1.848 125.569  0.00  0.00    +0.004 C 
ATOM      4  C   LIG A   1      -5.426  -0.747 125.643  0.00  0.00    +0.005 C 
ATOM      5  C   LIG A   1      -5.653   0.389 124.659  0.00  0.00    +0.011 C 
ATOM      6  C   LIG A   1      -7.031   1.036 124.795  0.00  0.00    +0.011 C 
ATOM      7  C   LIG A   1      -7.002   2.045 125.993  0.00  0.00    +0.040 C 
ATOM      8  C   LIG A   1      -7.694   3.264 125.457  0.00  0.00    -0.072 C 
ATOM      9  C   LIG A   1      -8.351   2.904 124.157  0.00  0.00    +0.022 C 
ATOM     10  C   LIG A   1      -7.284   1.976 123.590  0.00  0.00    +0.018 C 
ATOM     11  C   LIG A   1      -9.669   2.192 124.452  0.00  0.00    +0.085 C 
ATOM     12  C   LIG A   1      -7.635   4.486 125.993  0.00  0.00    +0.008 C 
ATOM     13  C   LIG A   1      -8.226  -0.006 124.860  0.00  0.00    +0.135 C 
ATOM     14  C   LIG A   1      -9.549   0.789 125.073  0.00  0.00    +0.166 C 
ATOM     15  O   LIG A   1     -10.552   0.266 125.550  0.00  0.00    -0.294 OA
ATOM     16  C   LIG A   1      -6.294  -2.851 124.354  0.00  0.00    -0.032 C 
ATOM     17  C   LIG A   1      -6.063  -2.257 122.944  0.00  0.00    +0.011 C 
ATOM     18  C   LIG A   1      -4.980  -3.659 124.604  0.00  0.00    +0.011 C 
ATOM     19  C   LIG A   1      -7.432  -3.895 124.292  0.00  0.00    +0.007 C 
ATOM     20  C   LIG A   1      -8.842  -3.435 124.618  0.00  0.00    +0.001 C 
ATOM     21  C   LIG A   1      -8.983  -2.407 125.726  0.00  0.00    +0.010 C 
ENDROOT
BRANCH  13  22
ATOM     22  O   LIG A   1      -8.465  -0.522 123.543  0.00  0.00    -0.380 OA
ATOM     23  H   LIG A   1      -7.597  -0.695 123.132  0.00  0.00    +0.211 HD
ENDBRANCH  13  22
TORSDOF 1
ENDMDL
MODEL 4
REMARK VINA RESULT:      -7.2      2.092      4.441
REMARK  Name = NuBBE_2236
REMARK  4 active torsions:
REMARK  status: ('A' for Active; 'I' for Inactive)
REMARK    1  A    between atoms: C_1  and  C_2
REMARK    2  A    between atoms: C_14  and  O_15
REMARK    3  A    between atoms: C_19  and  C_20
REMARK    4  A    between atoms: C_19  and  C_21
REMARK                            x       y       z     vdW  Elec       q    Type
REMARK                         _______ _______ _______ _____ _____    ______ ____
ROOT
ATOM      1  C   LIG A   1      -6.707  -1.029 127.251  0.00  0.00    +0.015 C 
ATOM      2  C   LIG A   1      -6.567   0.234 126.340  0.00  0.00    +0.007 C 
ATOM      3  C   LIG A   1      -7.503   1.387 126.912  0.00  0.00    +0.004 C 
ATOM      4  C   LIG A   1      -8.988   1.022 126.734  0.00  0.00    +0.005 C 
ATOM      5  C   LIG A   1      -9.378   0.751 125.290  0.00  0.00    +0.011 C 
ATOM      6  C   LIG A   1      -8.523  -0.331 124.630  0.00  0.00    +0.011 C 
ATOM      7  C   LIG A   1      -9.059  -1.737 125.065  0.00  0.00    +0.040 C 
ATOM      8  C   LIG A   1      -9.089  -2.525 123.789  0.00  0.00    -0.072 C 
ATOM      9  C   LIG A   1      -8.346  -1.755 122.737  0.00  0.00    +0.022 C 
ATOM     10  C   LIG A   1      -8.790  -0.345 123.104  0.00  0.00    +0.018 C 
ATOM     11  C   LIG A   1      -6.848  -1.979 122.930  0.00  0.00    +0.085 C 
ATOM     12  C   LIG A   1      -9.763  -3.663 123.597  0.00  0.00    +0.008 C 
ATOM     13  C   LIG A   1      -6.963  -0.140 124.850  0.00  0.00    +0.135 C 
ATOM     14  C   LIG A   1      -6.232  -1.348 124.191  0.00  0.00    +0.166 C 
ATOM     15  O   LIG A   1      -5.100  -1.685 124.529  0.00  0.00    -0.294 OA
ATOM     16  C   LIG A   1      -7.172   2.894 126.533  0.00  0.00    -0.032 C 
ATOM     17  C   LIG A   1      -7.679   3.437 125.176  0.00  0.00    +0.011 C 
ATOM     18  C   LIG A   1      -7.888   3.825 127.563  0.00  0.00    +0.011 C 
ATOM     19  C   LIG A   1      -5.660   3.186 126.671  0.00  0.00    +0.007 C 
ATOM     20  C   LIG A   1      -4.682   2.104 126.248  0.00  0.00    +0.001 C 
ATOM     21  C   LIG A   1      -5.083   0.670 126.550  0.00  0.00    +0.010 C 
ENDROOT
BRANCH  13  22
ATOM     22  O   LIG A   1      -6.499   0.916 123.996  0.00  0.00    -0.380 OA
ATOM     23  H   LIG A   1      -7.257   1.504 123.817  0.00  0.00    +0.211 HD
ENDBRANCH  13  22
TORSDOF 1
ENDMDL
MODEL 5
REMARK VINA RESULT:      -7.0      2.305      4.799
REMARK  Name = NuBBE_2236
REMARK  4 active torsions:
REMARK  status: ('A' for Active; 'I' for Inactive)
REMARK    1  A    between atoms: C_1  and  C_2
REMARK    2  A    between atoms: C_14  and  O_15
REMARK    3  A    between atoms: C_19  and  C_20
REMARK    4  A    between atoms: C_19  and  C_21
REMARK                            x       y       z     vdW  Elec       q    Type
REMARK                         _______ _______ _______ _____ _____    ______ ____
ROOT
ATOM      1  C   LIG A   1      -4.946  -1.997 127.887  0.00  0.00    +0.015 C 
ATOM      2  C   LIG A   1      -6.471  -1.845 127.575  0.00  0.00    +0.007 C 
ATOM      3  C   LIG A   1      -6.786  -2.565 126.192  0.00  0.00    +0.004 C 
ATOM      4  C   LIG A   1      -6.139  -1.804 125.020  0.00  0.00    +0.005 C 
ATOM      5  C   LIG A   1      -6.576  -0.351 124.924  0.00  0.00    +0.011 C 
ATOM      6  C   LIG A   1      -6.338   0.435 126.213  0.00  0.00    +0.011 C 
ATOM      7  C   LIG A   1      -4.833   0.866 126.274  0.00  0.00    +0.040 C 
ATOM      8  C   LIG A   1      -4.884   2.302 126.701  0.00  0.00    -0.072 C 
ATOM      9  C   LIG A   1      -6.280   2.615 127.154  0.00  0.00    +0.022 C 
ATOM     10  C   LIG A   1      -7.060   1.803 126.127  0.00  0.00    +0.018 C 
ATOM     11  C   LIG A   1      -6.460   2.104 128.582  0.00  0.00    +0.085 C 
ATOM     12  C   LIG A   1      -3.883   3.180 126.588  0.00  0.00    +0.008 C 
ATOM     13  C   LIG A   1      -6.849  -0.305 127.520  0.00  0.00    +0.135 C 
ATOM     14  C   LIG A   1      -6.474   0.574 128.750  0.00  0.00    +0.166 C 
ATOM     15  O   LIG A   1      -6.375   0.103 129.880  0.00  0.00    -0.294 OA
ATOM     16  C   LIG A   1      -8.278  -3.027 125.898  0.00  0.00    -0.032 C 
ATOM     17  C   LIG A   1      -9.275  -1.980 125.346  0.00  0.00    +0.011 C 
ATOM     18  C   LIG A   1      -8.243  -4.098 124.761  0.00  0.00    +0.011 C 
ATOM     19  C   LIG A   1      -8.899  -3.729 127.127  0.00  0.00    +0.007 C 
ATOM     20  C   LIG A   1      -8.571  -3.179 128.504  0.00  0.00    +0.001 C 
ATOM     21  C   LIG A   1      -7.157  -2.665 128.713  0.00  0.00    +0.010 C 
ENDROOT
BRANCH  13  22
ATOM     22  O   LIG A   1      -8.279  -0.205 127.581  0.00  0.00    -0.380 OA
ATOM     23  H   LIG A   1      -8.642  -0.702 126.824  0.00  0.00    +0.211 HD
ENDBRANCH  13  22
TORSDOF 1
ENDMDL
MODEL 6
REMARK VINA RESULT:      -6.9      7.435      9.433
REMARK  Name = NuBBE_2236
REMARK  4 active torsions:
REMARK  status: ('A' for Active; 'I' for Inactive)
REMARK    1  A    between atoms: C_1  and  C_2
REMARK    2  A    between atoms: C_14  and  O_15
REMARK    3  A    between atoms: C_19  and  C_20
REMARK    4  A    between atoms: C_19  and  C_21
REMARK                            x       y       z     vdW  Elec       q    Type
REMARK                         _______ _______ _______ _____ _____    ______ ____
ROOT
ATOM      1  C   LIG A   1      -4.176   2.827 130.451  0.00  0.00    +0.015 C 
ATOM      2  C   LIG A   1      -4.102   4.372 130.227  0.00  0.00    +0.007 C 
ATOM      3  C   LIG A   1      -2.975   4.975 131.174  0.00  0.00    +0.004 C 
ATOM      4  C   LIG A   1      -3.396   4.882 132.652  0.00  0.00    +0.005 C 
ATOM      5  C   LIG A   1      -4.711   5.583 132.954  0.00  0.00    +0.011 C 
ATOM      6  C   LIG A   1      -5.867   5.094 132.081  0.00  0.00    +0.011 C 
ATOM      7  C   LIG A   1      -6.417   3.752 132.673  0.00  0.00    +0.040 C 
ATOM      8  C   LIG A   1      -7.906   3.924 132.638  0.00  0.00    -0.072 C 
ATOM      9  C   LIG A   1      -8.226   5.137 131.813  0.00  0.00    +0.022 C 
ATOM     10  C   LIG A   1      -7.081   6.041 132.250  0.00  0.00    +0.018 C 
ATOM     11  C   LIG A   1      -8.158   4.758 130.335  0.00  0.00    +0.085 C 
ATOM     12  C   LIG A   1      -8.787   3.188 133.320  0.00  0.00    +0.008 C 
ATOM     13  C   LIG A   1      -5.518   5.021 130.535  0.00  0.00    +0.135 C 
ATOM     14  C   LIG A   1      -6.755   4.440 129.788  0.00  0.00    +0.166 C 
ATOM     15  O   LIG A   1      -6.657   3.904 128.688  0.00  0.00    -0.294 OA
ATOM     16  C   LIG A   1      -2.325   6.373 130.789  0.00  0.00    -0.032 C 
ATOM     17  C   LIG A   1      -3.072   7.666 131.197  0.00  0.00    +0.011 C 
ATOM     18  C   LIG A   1      -0.967   6.508 131.550  0.00  0.00    +0.011 C 
ATOM     19  C   LIG A   1      -1.979   6.433 129.283  0.00  0.00    +0.007 C 
ATOM     20  C   LIG A   1      -2.945   5.790 128.303  0.00  0.00    +0.001 C 
ATOM     21  C   LIG A   1      -3.612   4.501 128.751  0.00  0.00    +0.010 C 
ENDROOT
BRANCH  13  22
ATOM     22  O   LIG A   1      -5.514   6.351 129.996  0.00  0.00    -0.380 OA
ATOM     23  H   LIG A   1      -6.015   6.919 130.611  0.00  0.00    +0.211 HD
ENDBRANCH  13  22
TORSDOF 1
ENDMDL
MODEL 7
REMARK VINA RESULT:      -6.9      7.510      9.608
REMARK  Name = NuBBE_2236
REMARK  4 active torsions:
REMARK  status: ('A' for Active; 'I' for Inactive)
REMARK    1  A    between atoms: C_1  and  C_2
REMARK    2  A    between atoms: C_14  and  O_15
REMARK    3  A    between atoms: C_19  and  C_20
REMARK    4  A    between atoms: C_19  and  C_21
REMARK                            x       y       z     vdW  Elec       q    Type
REMARK                         _______ _______ _______ _____ _____    ______ ____
ROOT
ATOM      1  C   LIG A   1      -8.531   3.793 134.109  0.00  0.00    +0.015 C 
ATOM      2  C   LIG A   1      -7.677   3.586 132.816  0.00  0.00    +0.007 C 
ATOM      3  C   LIG A   1      -6.378   4.499 132.905  0.00  0.00    +0.004 C 
ATOM      4  C   LIG A   1      -6.751   5.990 132.810  0.00  0.00    +0.005 C 
ATOM      5  C   LIG A   1      -7.510   6.347 131.542  0.00  0.00    +0.011 C 
ATOM      6  C   LIG A   1      -8.773   5.509 131.342  0.00  0.00    +0.011 C 
ATOM      7  C   LIG A   1      -9.922   6.104 132.227  0.00  0.00    +0.040 C 
ATOM      8  C   LIG A   1     -11.110   6.123 131.313  0.00  0.00    -0.072 C 
ATOM      9  C   LIG A   1     -10.780   5.325 130.086  0.00  0.00    +0.022 C 
ATOM     10  C   LIG A   1      -9.323   5.733 129.911  0.00  0.00    +0.018 C 
ATOM     11  C   LIG A   1     -10.952   3.841 130.403  0.00  0.00    +0.085 C 
ATOM     12  C   LIG A   1     -12.228   6.828 131.511  0.00  0.00    +0.008 C 
ATOM     13  C   LIG A   1      -8.549   3.951 131.540  0.00  0.00    +0.135 C 
ATOM     14  C   LIG A   1      -9.926   3.241 131.381  0.00  0.00    +0.166 C 
ATOM     15  O   LIG A   1     -10.145   2.132 131.860  0.00  0.00    -0.294 OA
ATOM     16  C   LIG A   1      -5.111   4.108 132.030  0.00  0.00    -0.032 C 
ATOM     17  C   LIG A   1      -5.075   4.558 130.549  0.00  0.00    +0.011 C 
ATOM     18  C   LIG A   1      -3.859   4.822 132.634  0.00  0.00    +0.011 C 
ATOM     19  C   LIG A   1      -4.820   2.593 132.113  0.00  0.00    +0.007 C 
ATOM     20  C   LIG A   1      -6.001   1.639 132.140  0.00  0.00    +0.001 C 
ATOM     21  C   LIG A   1      -7.226   2.095 132.915  0.00  0.00    +0.010 C 
ENDROOT
BRANCH  13  22
ATOM     22  O   LIG A   1      -7.875   3.428 130.387  0.00  0.00    -0.380 OA
ATOM     23  H   LIG A   1      -8.425   2.709 130.025  0.00  0.00    +0.211 HD
ENDBRANCH  13  22
TORSDOF 1
ENDMDL
MODEL 8
REMARK VINA RESULT:      -6.9      4.100      7.750
REMARK  Name = NuBBE_2236
REMARK  4 active torsions:
REMARK  status: ('A' for Active; 'I' for Inactive)
REMARK    1  A    between atoms: C_1  and  C_2
REMARK    2  A    between atoms: C_14  and  O_15
REMARK    3  A    between atoms: C_19  and  C_20
REMARK    4  A    between atoms: C_19  and  C_21
REMARK                            x       y       z     vdW  Elec       q    Type
REMARK                         _______ _______ _______ _____ _____    ______ ____
ROOT
ATOM      1  C   LIG A   1      -5.536  -4.500 131.137  0.00  0.00    +0.015 C 
ATOM      2  C   LIG A   1      -5.230  -2.979 131.332  0.00  0.00    +0.007 C 
ATOM      3  C   LIG A   1      -5.975  -2.469 132.641  0.00  0.00    +0.004 C 
ATOM      4  C   LIG A   1      -7.501  -2.467 132.435  0.00  0.00    +0.005 C 
ATOM      5  C   LIG A   1      -7.954  -1.621 131.257  0.00  0.00    +0.011 C 
ATOM      6  C   LIG A   1      -7.280  -2.013 129.941  0.00  0.00    +0.011 C 
ATOM      7  C   LIG A   1      -8.009  -3.270 129.353  0.00  0.00    +0.040 C 
ATOM      8  C   LIG A   1      -8.179  -2.942 127.899  0.00  0.00    -0.072 C 
ATOM      9  C   LIG A   1      -7.351  -1.730 127.585  0.00  0.00    +0.022 C 
ATOM     10  C   LIG A   1      -7.576  -0.938 128.866  0.00  0.00    +0.018 C 
ATOM     11  C   LIG A   1      -5.899  -2.163 127.395  0.00  0.00    +0.085 C 
ATOM     12  C   LIG A   1      -9.016  -3.558 127.060  0.00  0.00    +0.008 C 
ATOM     13  C   LIG A   1      -5.706  -2.174 130.049  0.00  0.00    +0.135 C 
ATOM     14  C   LIG A   1      -5.173  -2.646 128.663  0.00  0.00    +0.166 C 
ATOM     15  O   LIG A   1      -4.097  -3.226 128.544  0.00  0.00    -0.294 OA
ATOM     16  C   LIG A   1      -5.433  -1.161 133.363  0.00  0.00    -0.032 C 
ATOM     17  C   LIG A   1      -5.882   0.217 132.818  0.00  0.00    +0.011 C 
ATOM     18  C   LIG A   1      -5.985  -1.146 134.825  0.00  0.00    +0.011 C 
ATOM     19  C   LIG A   1      -3.893  -1.188 133.487  0.00  0.00    +0.007 C 
ATOM     20  C   LIG A   1      -3.093  -1.757 132.328  0.00  0.00    +0.001 C 
ATOM     21  C   LIG A   1      -3.694  -2.952 131.609  0.00  0.00    +0.010 C 
ENDROOT
BRANCH  13  22
ATOM     22  O   LIG A   1      -5.108  -0.871 130.106  0.00  0.00    -0.380 OA
ATOM     23  H   LIG A   1      -5.068  -0.606 131.044  0.00  0.00    +0.211 HD
ENDBRANCH  13  22
TORSDOF 1
ENDMDL
MODEL 9
REMARK VINA RESULT:      -6.8      7.392      9.705
REMARK  Name = NuBBE_2236
REMARK  4 active torsions:
REMARK  status: ('A' for Active; 'I' for Inactive)
REMARK    1  A    between atoms: C_1  and  C_2
REMARK    2  A    between atoms: C_14  and  O_15
REMARK    3  A    between atoms: C_19  and  C_20
REMARK    4  A    between atoms: C_19  and  C_21
REMARK                            x       y       z     vdW  Elec       q    Type
REMARK                         _______ _______ _______ _____ _____    ______ ____
ROOT
ATOM      1  C   LIG A   1      -7.142   6.991 131.045  0.00  0.00    +0.015 C 
ATOM      2  C   LIG A   1      -7.181   5.554 131.660  0.00  0.00    +0.007 C 
ATOM      3  C   LIG A   1      -6.913   5.657 133.225  0.00  0.00    +0.004 C 
ATOM      4  C   LIG A   1      -5.461   6.089 133.503  0.00  0.00    +0.005 C 
ATOM      5  C   LIG A   1      -4.424   5.160 132.892  0.00  0.00    +0.011 C 
ATOM      6  C   LIG A   1      -4.601   4.970 131.385  0.00  0.00    +0.011 C 
ATOM      7  C   LIG A   1      -3.976   6.199 130.641  0.00  0.00    +0.040 C 
ATOM      8  C   LIG A   1      -3.193   5.584 129.520  0.00  0.00    -0.072 C 
ATOM      9  C   LIG A   1      -3.567   4.134 129.418  0.00  0.00    +0.022 C 
ATOM     10  C   LIG A   1      -3.698   3.808 130.900  0.00  0.00    +0.018 C 
ATOM     11  C   LIG A   1      -4.888   4.019 128.660  0.00  0.00    +0.085 C 
ATOM     12  C   LIG A   1      -2.243   6.199 128.811  0.00  0.00    +0.008 C 
ATOM     13  C   LIG A   1      -6.091   4.643 130.950  0.00  0.00    +0.135 C 
ATOM     14  C   LIG A   1      -6.131   4.552 129.396  0.00  0.00    +0.166 C 
ATOM     15  O   LIG A   1      -7.171   4.709 128.761  0.00  0.00    -0.294 OA
ATOM     16  C   LIG A   1      -7.411   4.474 134.162  0.00  0.00    -0.032 C 
ATOM     17  C   LIG A   1      -6.514   3.220 134.299  0.00  0.00    +0.011 C 
ATOM     18  C   LIG A   1      -7.478   5.008 135.629  0.00  0.00    +0.011 C 
ATOM     19  C   LIG A   1      -8.849   4.041 133.798  0.00  0.00    +0.007 C 
ATOM     20  C   LIG A   1      -9.236   4.011 132.330  0.00  0.00    +0.001 C 
ATOM     21  C   LIG A   1      -8.663   5.111 131.453  0.00  0.00    +0.010 C 
ENDROOT
BRANCH  13  22
ATOM     22  O   LIG A   1      -6.383   3.278 131.279  0.00  0.00    -0.380 OA
ATOM     23  H   LIG A   1      -5.713   2.720 130.840  0.00  0.00    +0.211 HD
ENDBRANCH  13  22
TORSDOF 1
ENDMDL
