MODEL 1
REMARK VINA RESULT:      -5.8      0.000      0.000
REMARK  Name = NuBBE_45
REMARK  14 active torsions:
REMARK  status: ('A' for Active; 'I' for Inactive)
REMARK    1  A    between atoms: O_1  and  C_2
REMARK    2  A    between atoms: C_4  and  C_6
REMARK    3  A    between atoms: C_8  and  C_10
REMARK    4  A    between atoms: C_10  and  C_11
REMARK    5  A    between atoms: C_11  and  C_12
REMARK    6  A    between atoms: C_12  and  C_13
REMARK    7  A    between atoms: C_13  and  C_14
REMARK    8  A    between atoms: C_14  and  C_15
REMARK    9  A    between atoms: C_15  and  C_16
REMARK   10  A    between atoms: C_16  and  C_17
REMARK   11  A    between atoms: C_17  and  C_18
REMARK   12  A    between atoms: C_18  and  C_19
REMARK   13  A    between atoms: C_19  and  C_20
REMARK   14  A    between atoms: C_20  and  C_21
REMARK                            x       y       z     vdW  Elec       q    Type
REMARK                         _______ _______ _______ _____ _____    ______ ____
ROOT
ATOM      1  C   LIG A   1      -7.503   6.788 131.209  0.00  0.00    +0.002 C 
ENDROOT
BRANCH   1   2
ATOM      2  C   LIG A   1      -7.014   5.347 131.153  0.00  0.00    +0.019 C 
BRANCH   2   7
ATOM      3  C   LIG A   1      -9.340   2.089 132.546  0.00  0.00    +0.131 C 
ATOM      4  C   LIG A   1      -8.152   1.755 131.646  0.00  0.00    +0.079 C 
ATOM      5  C   LIG A   1      -8.391   0.627 130.625  0.00  0.00    +0.026 C 
ATOM      6  N   LIG A   1      -7.952   3.042 131.004  0.00  0.00    -0.308 NA
ATOM      7  C   LIG A   1      -7.368   4.076 131.899  0.00  0.00    +0.054 C 
ATOM      8  C   LIG A   1      -8.344   4.447 132.934  0.00  0.00    +0.021 C 
ATOM      9  C   LIG A   1      -8.914   3.186 133.558  0.00  0.00    +0.034 C 
ATOM     10  H   LIG A   1      -8.728   3.343 130.419  0.00  0.00    +0.122 HD
BRANCH   3  11
ATOM     11  O   LIG A   1     -10.431   2.592 131.748  0.00  0.00    -0.390 OA
ATOM     12  H   LIG A   1     -10.294   2.278 130.837  0.00  0.00    +0.210 HD
ENDBRANCH   3  11
ENDBRANCH   2   7
ENDBRANCH   1   2
BRANCH   1  13
ATOM     13  C   LIG A   1      -8.815   7.165 130.402  0.00  0.00    +0.000 C 
BRANCH  13  14
ATOM     14  C   LIG A   1     -10.059   6.242 130.122  0.00  0.00    -0.000 C 
BRANCH  14  15
ATOM     15  C   LIG A   1     -11.106   5.822 131.179  0.00  0.00    -0.000 C 
BRANCH  15  16
ATOM     16  C   LIG A   1     -11.993   6.900 131.777  0.00  0.00    -0.000 C 
BRANCH  16  17
ATOM     17  C   LIG A   1     -13.028   7.314 130.792  0.00  0.00    +0.000 C 
BRANCH  17  18
ATOM     18  C   LIG A   1     -12.918   8.791 130.390  0.00  0.00    +0.000 C 
BRANCH  18  19
ATOM     19  C   LIG A   1     -12.308   8.989 129.046  0.00  0.00    +0.007 C 
BRANCH  19  20
ATOM     20  C   LIG A   1     -12.976   7.853 128.293  0.00  0.00    +0.074 C 
BRANCH  20  21
ATOM     21  C   LIG A   1     -12.174   7.444 127.192  0.00  0.00    +0.130 C 
ATOM     22  C   LIG A   1     -10.843   8.045 127.019  0.00  0.00    +0.086 C 
ATOM     23  O   LIG A   1     -12.646   6.568 126.362  0.00  0.00    -0.298 OA
ENDBRANCH  20  21
ENDBRANCH  19  20
ENDBRANCH  18  19
ENDBRANCH  17  18
ENDBRANCH  16  17
ENDBRANCH  15  16
ENDBRANCH  14  15
ENDBRANCH  13  14
ENDBRANCH   1  13
TORSDOF 12
ENDMDL
MODEL 2
REMARK VINA RESULT:      -5.6      8.433     10.387
REMARK  Name = NuBBE_45
REMARK  14 active torsions:
REMARK  status: ('A' for Active; 'I' for Inactive)
REMARK    1  A    between atoms: O_1  and  C_2
REMARK    2  A    between atoms: C_4  and  C_6
REMARK    3  A    between atoms: C_8  and  C_10
REMARK    4  A    between atoms: C_10  and  C_11
REMARK    5  A    between atoms: C_11  and  C_12
REMARK    6  A    between atoms: C_12  and  C_13
REMARK    7  A    between atoms: C_13  and  C_14
REMARK    8  A    between atoms: C_14  and  C_15
REMARK    9  A    between atoms: C_15  and  C_16
REMARK   10  A    between atoms: C_16  and  C_17
REMARK   11  A    between atoms: C_17  and  C_18
REMARK   12  A    between atoms: C_18  and  C_19
REMARK   13  A    between atoms: C_19  and  C_20
REMARK   14  A    between atoms: C_20  and  C_21
REMARK                            x       y       z     vdW  Elec       q    Type
REMARK                         _______ _______ _______ _____ _____    ______ ____
ROOT
ATOM      1  C   LIG A   1      -8.739  -3.608 126.754  0.00  0.00    +0.002 C 
ENDROOT
BRANCH   1   2
ATOM      2  C   LIG A   1      -8.238  -2.570 127.749  0.00  0.00    +0.019 C 
BRANCH   2   7
ATOM      3  C   LIG A   1      -6.182  -2.745 131.452  0.00  0.00    +0.131 C 
ATOM      4  C   LIG A   1      -5.814  -3.796 130.407  0.00  0.00    +0.079 C 
ATOM      5  C   LIG A   1      -5.556  -5.212 130.955  0.00  0.00    +0.026 C 
ATOM      6  N   LIG A   1      -6.997  -3.742 129.567  0.00  0.00    -0.308 NA
ATOM      7  C   LIG A   1      -7.088  -2.513 128.734  0.00  0.00    +0.054 C 
ATOM      8  C   LIG A   1      -7.324  -1.345 129.597  0.00  0.00    +0.021 C 
ATOM      9  C   LIG A   1      -6.337  -1.369 130.751  0.00  0.00    +0.034 C 
ATOM     10  H   LIG A   1      -7.855  -4.032 130.032  0.00  0.00    +0.122 HD
BRANCH   3  11
ATOM     11  O   LIG A   1      -7.436  -3.092 132.074  0.00  0.00    -0.390 OA
ATOM     12  H   LIG A   1      -7.957  -2.274 132.156  0.00  0.00    +0.210 HD
ENDBRANCH   3  11
ENDBRANCH   2   7
ENDBRANCH   1   2
BRANCH   1  13
ATOM     13  C   LIG A   1      -9.624  -3.112 125.535  0.00  0.00    +0.000 C 
BRANCH  13  14
ATOM     14  C   LIG A   1      -9.351  -3.346 124.002  0.00  0.00    -0.000 C 
BRANCH  14  15
ATOM     15  C   LIG A   1      -8.722  -2.306 123.046  0.00  0.00    -0.000 C 
BRANCH  15  16
ATOM     16  C   LIG A   1      -8.805  -0.838 123.429  0.00  0.00    -0.000 C 
BRANCH  16  17
ATOM     17  C   LIG A   1      -7.441  -0.299 123.681  0.00  0.00    +0.000 C 
BRANCH  17  18
ATOM     18  C   LIG A   1      -6.851  -0.758 125.021  0.00  0.00    +0.000 C 
BRANCH  18  19
ATOM     19  C   LIG A   1      -5.442  -1.226 124.912  0.00  0.00    +0.007 C 
BRANCH  19  20
ATOM     20  C   LIG A   1      -5.672  -2.726 124.890  0.00  0.00    +0.074 C 
BRANCH  20  21
ATOM     21  C   LIG A   1      -5.145  -3.295 123.697  0.00  0.00    +0.130 C 
ATOM     22  C   LIG A   1      -4.465  -4.596 123.771  0.00  0.00    +0.086 C 
ATOM     23  O   LIG A   1      -5.262  -2.641 122.585  0.00  0.00    -0.298 OA
ENDBRANCH  20  21
ENDBRANCH  19  20
ENDBRANCH  18  19
ENDBRANCH  17  18
ENDBRANCH  16  17
ENDBRANCH  15  16
ENDBRANCH  14  15
ENDBRANCH  13  14
ENDBRANCH   1  13
TORSDOF 12
ENDMDL
MODEL 3
REMARK VINA RESULT:      -5.6      2.907      4.048
REMARK  Name = NuBBE_45
REMARK  14 active torsions:
REMARK  status: ('A' for Active; 'I' for Inactive)
REMARK    1  A    between atoms: O_1  and  C_2
REMARK    2  A    between atoms: C_4  and  C_6
REMARK    3  A    between atoms: C_8  and  C_10
REMARK    4  A    between atoms: C_10  and  C_11
REMARK    5  A    between atoms: C_11  and  C_12
REMARK    6  A    between atoms: C_12  and  C_13
REMARK    7  A    between atoms: C_13  and  C_14
REMARK    8  A    between atoms: C_14  and  C_15
REMARK    9  A    between atoms: C_15  and  C_16
REMARK   10  A    between atoms: C_16  and  C_17
REMARK   11  A    between atoms: C_17  and  C_18
REMARK   12  A    between atoms: C_18  and  C_19
REMARK   13  A    between atoms: C_19  and  C_20
REMARK   14  A    between atoms: C_20  and  C_21
REMARK                            x       y       z     vdW  Elec       q    Type
REMARK                         _______ _______ _______ _____ _____    ______ ____
ROOT
ATOM      1  C   LIG A   1      -7.234   6.896 131.155  0.00  0.00    +0.002 C 
ENDROOT
BRANCH   1   2
ATOM      2  C   LIG A   1      -6.561   5.545 130.954  0.00  0.00    +0.019 C 
BRANCH   2   7
ATOM      3  C   LIG A   1      -4.199   4.918 127.490  0.00  0.00    +0.131 C 
ATOM      4  C   LIG A   1      -3.567   5.730 128.620  0.00  0.00    +0.079 C 
ATOM      5  C   LIG A   1      -2.713   6.932 128.175  0.00  0.00    +0.026 C 
ATOM      6  N   LIG A   1      -4.763   6.142 129.333  0.00  0.00    -0.308 NA
ATOM      7  C   LIG A   1      -5.423   5.043 130.087  0.00  0.00    +0.054 C 
ATOM      8  C   LIG A   1      -6.000   4.071 129.146  0.00  0.00    +0.021 C 
ATOM      9  C   LIG A   1      -4.960   3.711 128.100  0.00  0.00    +0.034 C 
ATOM     10  H   LIG A   1      -5.380   6.752 128.800  0.00  0.00    +0.122 HD
BRANCH   3  11
ATOM     11  O   LIG A   1      -5.136   5.739 126.764  0.00  0.00    -0.390 OA
ATOM     12  H   LIG A   1      -4.627   6.437 126.317  0.00  0.00    +0.210 HD
ENDBRANCH   3  11
ENDBRANCH   2   7
ENDBRANCH   1   2
BRANCH   1  13
ATOM     13  C   LIG A   1      -8.715   7.082 130.620  0.00  0.00    +0.000 C 
BRANCH  13  14
ATOM     14  C   LIG A   1      -9.718   5.952 130.179  0.00  0.00    -0.000 C 
BRANCH  14  15
ATOM     15  C   LIG A   1     -11.007   5.564 130.940  0.00  0.00    -0.000 C 
BRANCH  15  16
ATOM     16  C   LIG A   1     -11.767   6.661 131.667  0.00  0.00    -0.000 C 
BRANCH  16  17
ATOM     17  C   LIG A   1     -12.891   7.148 130.821  0.00  0.00    +0.000 C 
BRANCH  17  18
ATOM     18  C   LIG A   1     -12.822   8.655 130.542  0.00  0.00    +0.000 C 
BRANCH  18  19
ATOM     19  C   LIG A   1     -12.446   8.976 129.138  0.00  0.00    +0.007 C 
BRANCH  19  20
ATOM     20  C   LIG A   1     -12.886   7.692 128.457  0.00  0.00    +0.074 C 
BRANCH  20  21
ATOM     21  C   LIG A   1     -12.089   7.439 127.306  0.00  0.00    +0.130 C 
ATOM     22  C   LIG A   1     -10.764   8.067 127.207  0.00  0.00    +0.086 C 
ATOM     23  O   LIG A   1     -12.562   6.677 126.370  0.00  0.00    -0.298 OA
ENDBRANCH  20  21
ENDBRANCH  19  20
ENDBRANCH  18  19
ENDBRANCH  17  18
ENDBRANCH  16  17
ENDBRANCH  15  16
ENDBRANCH  14  15
ENDBRANCH  13  14
ENDBRANCH   1  13
TORSDOF 12
ENDMDL
MODEL 4
REMARK VINA RESULT:      -5.5      6.647      9.674
REMARK  Name = NuBBE_45
REMARK  14 active torsions:
REMARK  status: ('A' for Active; 'I' for Inactive)
REMARK    1  A    between atoms: O_1  and  C_2
REMARK    2  A    between atoms: C_4  and  C_6
REMARK    3  A    between atoms: C_8  and  C_10
REMARK    4  A    between atoms: C_10  and  C_11
REMARK    5  A    between atoms: C_11  and  C_12
REMARK    6  A    between atoms: C_12  and  C_13
REMARK    7  A    between atoms: C_13  and  C_14
REMARK    8  A    between atoms: C_14  and  C_15
REMARK    9  A    between atoms: C_15  and  C_16
REMARK   10  A    between atoms: C_16  and  C_17
REMARK   11  A    between atoms: C_17  and  C_18
REMARK   12  A    between atoms: C_18  and  C_19
REMARK   13  A    between atoms: C_19  and  C_20
REMARK   14  A    between atoms: C_20  and  C_21
REMARK                            x       y       z     vdW  Elec       q    Type
REMARK                         _______ _______ _______ _____ _____    ______ ____
ROOT
ATOM      1  C   LIG A   1      -6.848  -0.225 128.773  0.00  0.00    +0.002 C 
ENDROOT
BRANCH   1   2
ATOM      2  C   LIG A   1      -7.766   0.601 127.883  0.00  0.00    +0.019 C 
BRANCH   2   7
ATOM      3  C   LIG A   1      -8.596   2.643 124.262  0.00  0.00    +0.131 C 
ATOM      4  C   LIG A   1      -7.126   2.386 124.589  0.00  0.00    +0.079 C 
ATOM      5  C   LIG A   1      -6.160   3.534 124.239  0.00  0.00    +0.026 C 
ATOM      6  N   LIG A   1      -7.221   2.169 126.022  0.00  0.00    -0.308 NA
ATOM      7  C   LIG A   1      -7.841   0.869 126.393  0.00  0.00    +0.054 C 
ATOM      8  C   LIG A   1      -9.267   0.878 126.033  0.00  0.00    +0.021 C 
ATOM      9  C   LIG A   1      -9.419   1.373 124.606  0.00  0.00    +0.034 C 
ATOM     10  H   LIG A   1      -7.535   2.981 126.549  0.00  0.00    +0.122 HD
BRANCH   3  11
ATOM     11  O   LIG A   1      -9.088   3.743 125.054  0.00  0.00    -0.390 OA
ATOM     12  H   LIG A   1      -8.331   4.112 125.542  0.00  0.00    +0.210 HD
ENDBRANCH   3  11
ENDBRANCH   2   7
ENDBRANCH   1   2
BRANCH   1  13
ATOM     13  C   LIG A   1      -7.498  -1.038 129.970  0.00  0.00    +0.000 C 
BRANCH  13  14
ATOM     14  C   LIG A   1      -8.145  -2.471 129.907  0.00  0.00    -0.000 C 
BRANCH  14  15
ATOM     15  C   LIG A   1      -7.813  -3.548 128.848  0.00  0.00    -0.000 C 
BRANCH  15  16
ATOM     16  C   LIG A   1      -8.819  -3.793 127.736  0.00  0.00    -0.000 C 
BRANCH  16  17
ATOM     17  C   LIG A   1      -8.715  -2.722 126.708  0.00  0.00    +0.000 C 
BRANCH  17  18
ATOM     18  C   LIG A   1      -9.312  -3.128 125.355  0.00  0.00    +0.000 C 
BRANCH  18  19
ATOM     19  C   LIG A   1      -8.291  -3.606 124.382  0.00  0.00    +0.007 C 
BRANCH  19  20
ATOM     20  C   LIG A   1      -8.242  -2.406 123.454  0.00  0.00    +0.074 C 
BRANCH  20  21
ATOM     21  C   LIG A   1      -6.913  -1.911 123.346  0.00  0.00    +0.130 C 
ATOM     22  C   LIG A   1      -5.792  -2.809 123.661  0.00  0.00    +0.086 C 
ATOM     23  O   LIG A   1      -6.729  -0.678 122.992  0.00  0.00    -0.298 OA
ENDBRANCH  20  21
ENDBRANCH  19  20
ENDBRANCH  18  19
ENDBRANCH  17  18
ENDBRANCH  16  17
ENDBRANCH  15  16
ENDBRANCH  14  15
ENDBRANCH  13  14
ENDBRANCH   1  13
TORSDOF 12
ENDMDL
MODEL 5
REMARK VINA RESULT:      -5.5      8.658     10.073
REMARK  Name = NuBBE_45
REMARK  14 active torsions:
REMARK  status: ('A' for Active; 'I' for Inactive)
REMARK    1  A    between atoms: O_1  and  C_2
REMARK    2  A    between atoms: C_4  and  C_6
REMARK    3  A    between atoms: C_8  and  C_10
REMARK    4  A    between atoms: C_10  and  C_11
REMARK    5  A    between atoms: C_11  and  C_12
REMARK    6  A    between atoms: C_12  and  C_13
REMARK    7  A    between atoms: C_13  and  C_14
REMARK    8  A    between atoms: C_14  and  C_15
REMARK    9  A    between atoms: C_15  and  C_16
REMARK   10  A    between atoms: C_16  and  C_17
REMARK   11  A    between atoms: C_17  and  C_18
REMARK   12  A    between atoms: C_18  and  C_19
REMARK   13  A    between atoms: C_19  and  C_20
REMARK   14  A    between atoms: C_20  and  C_21
REMARK                            x       y       z     vdW  Elec       q    Type
REMARK                         _______ _______ _______ _____ _____    ______ ____
ROOT
ATOM      1  C   LIG A   1      -8.697  -3.944 127.823  0.00  0.00    +0.002 C 
ENDROOT
BRANCH   1   2
ATOM      2  C   LIG A   1      -8.426  -3.200 129.123  0.00  0.00    +0.019 C 
BRANCH   2   7
ATOM      3  C   LIG A   1      -4.908  -3.510 131.468  0.00  0.00    +0.131 C 
ATOM      4  C   LIG A   1      -4.733  -3.079 130.013  0.00  0.00    +0.079 C 
ATOM      5  C   LIG A   1      -3.506  -3.667 129.291  0.00  0.00    +0.026 C 
ATOM      6  N   LIG A   1      -5.981  -3.565 129.454  0.00  0.00    -0.308 NA
ATOM      7  C   LIG A   1      -7.172  -2.772 129.859  0.00  0.00    +0.054 C 
ATOM      8  C   LIG A   1      -7.433  -2.964 131.293  0.00  0.00    +0.021 C 
ATOM      9  C   LIG A   1      -6.139  -2.779 132.066  0.00  0.00    +0.034 C 
ATOM     10  H   LIG A   1      -6.088  -4.577 129.482  0.00  0.00    +0.122 HD
BRANCH   3  11
ATOM     11  O   LIG A   1      -5.137  -4.932 131.532  0.00  0.00    -0.390 OA
ATOM     12  H   LIG A   1      -5.220  -5.172 132.471  0.00  0.00    +0.210 HD
ENDBRANCH   3  11
ENDBRANCH   2   7
ENDBRANCH   1   2
BRANCH   1  13
ATOM     13  C   LIG A   1      -8.935  -3.091 126.507  0.00  0.00    +0.000 C 
BRANCH  13  14
ATOM     14  C   LIG A   1      -8.580  -3.501 125.029  0.00  0.00    -0.000 C 
BRANCH  14  15
ATOM     15  C   LIG A   1      -9.263  -2.935 123.763  0.00  0.00    -0.000 C 
BRANCH  15  16
ATOM     16  C   LIG A   1      -8.378  -2.422 122.639  0.00  0.00    -0.000 C 
BRANCH  16  17
ATOM     17  C   LIG A   1      -7.209  -1.693 123.202  0.00  0.00    +0.000 C 
BRANCH  17  18
ATOM     18  C   LIG A   1      -7.547  -0.261 123.634  0.00  0.00    +0.000 C 
BRANCH  18  19
ATOM     19  C   LIG A   1      -7.107   0.052 125.022  0.00  0.00    +0.007 C 
BRANCH  19  20
ATOM     20  C   LIG A   1      -5.878  -0.836 125.106  0.00  0.00    +0.074 C 
BRANCH  20  21
ATOM     21  C   LIG A   1      -5.671  -1.275 126.443  0.00  0.00    +0.130 C 
ATOM     22  C   LIG A   1      -5.654  -0.280 127.524  0.00  0.00    +0.086 C 
ATOM     23  O   LIG A   1      -5.483  -2.538 126.667  0.00  0.00    -0.298 OA
ENDBRANCH  20  21
ENDBRANCH  19  20
ENDBRANCH  18  19
ENDBRANCH  17  18
ENDBRANCH  16  17
ENDBRANCH  15  16
ENDBRANCH  14  15
ENDBRANCH  13  14
ENDBRANCH   1  13
TORSDOF 12
ENDMDL
MODEL 6
REMARK VINA RESULT:      -5.4      4.052      7.728
REMARK  Name = NuBBE_45
REMARK  14 active torsions:
REMARK  status: ('A' for Active; 'I' for Inactive)
REMARK    1  A    between atoms: O_1  and  C_2
REMARK    2  A    between atoms: C_4  and  C_6
REMARK    3  A    between atoms: C_8  and  C_10
REMARK    4  A    between atoms: C_10  and  C_11
REMARK    5  A    between atoms: C_11  and  C_12
REMARK    6  A    between atoms: C_12  and  C_13
REMARK    7  A    between atoms: C_13  and  C_14
REMARK    8  A    between atoms: C_14  and  C_15
REMARK    9  A    between atoms: C_15  and  C_16
REMARK   10  A    between atoms: C_16  and  C_17
REMARK   11  A    between atoms: C_17  and  C_18
REMARK   12  A    between atoms: C_18  and  C_19
REMARK   13  A    between atoms: C_19  and  C_20
REMARK   14  A    between atoms: C_20  and  C_21
REMARK                            x       y       z     vdW  Elec       q    Type
REMARK                         _______ _______ _______ _____ _____    ______ ____
ROOT
ATOM      1  C   LIG A   1      -9.252   6.301 131.565  0.00  0.00    +0.002 C 
ENDROOT
BRANCH   1   2
ATOM      2  C   LIG A   1     -10.294   5.680 130.646  0.00  0.00    +0.019 C 
BRANCH   2   7
ATOM      3  C   LIG A   1     -12.958   8.266 128.600  0.00  0.00    +0.131 C 
ATOM      4  C   LIG A   1     -12.596   6.955 127.904  0.00  0.00    +0.079 C 
ATOM      5  C   LIG A   1     -12.388   7.051 126.381  0.00  0.00    +0.026 C 
ATOM      6  N   LIG A   1     -11.367   6.629 128.605  0.00  0.00    -0.308 NA
ATOM      7  C   LIG A   1     -11.575   6.174 130.006  0.00  0.00    +0.054 C 
ATOM      8  C   LIG A   1     -12.056   7.297 130.825  0.00  0.00    +0.021 C 
ATOM      9  C   LIG A   1     -13.203   7.985 130.108  0.00  0.00    +0.034 C 
ATOM     10  H   LIG A   1     -10.611   7.295 128.458  0.00  0.00    +0.122 HD
BRANCH   3  11
ATOM     11  O   LIG A   1     -11.870   9.203 128.474  0.00  0.00    -0.390 OA
ATOM     12  H   LIG A   1     -12.122  10.008 128.959  0.00  0.00    +0.210 HD
ENDBRANCH   3  11
ENDBRANCH   2   7
ENDBRANCH   1   2
BRANCH   1  13
ATOM     13  C   LIG A   1      -7.917   6.860 130.916  0.00  0.00    +0.000 C 
BRANCH  13  14
ATOM     14  C   LIG A   1      -6.449   6.681 131.455  0.00  0.00    -0.000 C 
BRANCH  14  15
ATOM     15  C   LIG A   1      -5.184   7.279 130.797  0.00  0.00    -0.000 C 
BRANCH  15  16
ATOM     16  C   LIG A   1      -3.869   6.535 130.963  0.00  0.00    -0.000 C 
BRANCH  16  17
ATOM     17  C   LIG A   1      -2.829   7.134 130.084  0.00  0.00    +0.000 C 
BRANCH  17  18
ATOM     18  C   LIG A   1      -2.232   6.129 129.090  0.00  0.00    +0.000 C 
BRANCH  18  19
ATOM     19  C   LIG A   1      -3.077   5.927 127.881  0.00  0.00    +0.007 C 
BRANCH  19  20
ATOM     20  C   LIG A   1      -3.310   4.431 127.980  0.00  0.00    +0.074 C 
BRANCH  20  21
ATOM     21  C   LIG A   1      -2.935   3.785 126.769  0.00  0.00    +0.130 C 
ATOM     22  C   LIG A   1      -1.665   3.046 126.721  0.00  0.00    +0.086 C 
ATOM     23  O   LIG A   1      -3.714   3.884 125.737  0.00  0.00    -0.298 OA
ENDBRANCH  20  21
ENDBRANCH  19  20
ENDBRANCH  18  19
ENDBRANCH  17  18
ENDBRANCH  16  17
ENDBRANCH  15  16
ENDBRANCH  14  15
ENDBRANCH  13  14
ENDBRANCH   1  13
TORSDOF 12
ENDMDL
MODEL 7
REMARK VINA RESULT:      -5.4      7.759     11.101
REMARK  Name = NuBBE_45
REMARK  14 active torsions:
REMARK  status: ('A' for Active; 'I' for Inactive)
REMARK    1  A    between atoms: O_1  and  C_2
REMARK    2  A    between atoms: C_4  and  C_6
REMARK    3  A    between atoms: C_8  and  C_10
REMARK    4  A    between atoms: C_10  and  C_11
REMARK    5  A    between atoms: C_11  and  C_12
REMARK    6  A    between atoms: C_12  and  C_13
REMARK    7  A    between atoms: C_13  and  C_14
REMARK    8  A    between atoms: C_14  and  C_15
REMARK    9  A    between atoms: C_15  and  C_16
REMARK   10  A    between atoms: C_16  and  C_17
REMARK   11  A    between atoms: C_17  and  C_18
REMARK   12  A    between atoms: C_18  and  C_19
REMARK   13  A    between atoms: C_19  and  C_20
REMARK   14  A    between atoms: C_20  and  C_21
REMARK                            x       y       z     vdW  Elec       q    Type
REMARK                         _______ _______ _______ _____ _____    ______ ____
ROOT
ATOM      1  C   LIG A   1      -6.951  -2.730 124.394  0.00  0.00    +0.002 C 
ENDROOT
BRANCH   1   2
ATOM      2  C   LIG A   1      -7.115  -1.221 124.503  0.00  0.00    +0.019 C 
BRANCH   2   7
ATOM      3  C   LIG A   1      -9.121   2.318 123.309  0.00  0.00    +0.131 C 
ATOM      4  C   LIG A   1      -7.613   2.263 123.068  0.00  0.00    +0.079 C 
ATOM      5  C   LIG A   1      -6.852   3.577 123.330  0.00  0.00    +0.026 C 
ATOM      6  N   LIG A   1      -7.245   1.220 124.008  0.00  0.00    -0.308 NA
ATOM      7  C   LIG A   1      -7.665  -0.144 123.589  0.00  0.00    +0.054 C 
ATOM      8  C   LIG A   1      -9.131  -0.250 123.638  0.00  0.00    +0.021 C 
ATOM      9  C   LIG A   1      -9.743   0.947 122.932  0.00  0.00    +0.034 C 
ATOM     10  H   LIG A   1      -7.410   1.458 124.984  0.00  0.00    +0.122 HD
BRANCH   3  11
ATOM     11  O   LIG A   1      -9.383   2.579 124.703  0.00  0.00    -0.390 OA
ATOM     12  H   LIG A   1      -8.636   3.099 125.047  0.00  0.00    +0.210 HD
ENDBRANCH   3  11
ENDBRANCH   2   7
ENDBRANCH   1   2
BRANCH   1  13
ATOM     13  C   LIG A   1      -8.065  -3.654 125.043  0.00  0.00    +0.000 C 
BRANCH  13  14
ATOM     14  C   LIG A   1      -9.063  -3.273 126.199  0.00  0.00    -0.000 C 
BRANCH  14  15
ATOM     15  C   LIG A   1      -9.013  -3.841 127.636  0.00  0.00    -0.000 C 
BRANCH  15  16
ATOM     16  C   LIG A   1      -8.137  -3.133 128.657  0.00  0.00    -0.000 C 
BRANCH  16  17
ATOM     17  C   LIG A   1      -7.775  -1.777 128.165  0.00  0.00    +0.000 C 
BRANCH  17  18
ATOM     18  C   LIG A   1      -6.277  -1.471 128.294  0.00  0.00    +0.000 C 
BRANCH  18  19
ATOM     19  C   LIG A   1      -5.423  -2.690 128.246  0.00  0.00    +0.007 C 
BRANCH  19  20
ATOM     20  C   LIG A   1      -4.390  -2.319 129.295  0.00  0.00    +0.074 C 
BRANCH  20  21
ATOM     21  C   LIG A   1      -4.204  -3.389 130.214  0.00  0.00    +0.130 C 
ATOM     22  C   LIG A   1      -5.267  -4.395 130.358  0.00  0.00    +0.086 C 
ATOM     23  O   LIG A   1      -3.114  -3.435 130.913  0.00  0.00    -0.298 OA
ENDBRANCH  20  21
ENDBRANCH  19  20
ENDBRANCH  18  19
ENDBRANCH  17  18
ENDBRANCH  16  17
ENDBRANCH  15  16
ENDBRANCH  14  15
ENDBRANCH  13  14
ENDBRANCH   1  13
TORSDOF 12
ENDMDL
MODEL 8
REMARK VINA RESULT:      -5.4      5.970      9.772
REMARK  Name = NuBBE_45
REMARK  14 active torsions:
REMARK  status: ('A' for Active; 'I' for Inactive)
REMARK    1  A    between atoms: O_1  and  C_2
REMARK    2  A    between atoms: C_4  and  C_6
REMARK    3  A    between atoms: C_8  and  C_10
REMARK    4  A    between atoms: C_10  and  C_11
REMARK    5  A    between atoms: C_11  and  C_12
REMARK    6  A    between atoms: C_12  and  C_13
REMARK    7  A    between atoms: C_13  and  C_14
REMARK    8  A    between atoms: C_14  and  C_15
REMARK    9  A    between atoms: C_15  and  C_16
REMARK   10  A    between atoms: C_16  and  C_17
REMARK   11  A    between atoms: C_17  and  C_18
REMARK   12  A    between atoms: C_18  and  C_19
REMARK   13  A    between atoms: C_19  and  C_20
REMARK   14  A    between atoms: C_20  and  C_21
REMARK                            x       y       z     vdW  Elec       q    Type
REMARK                         _______ _______ _______ _____ _____    ______ ____
ROOT
ATOM      1  C   LIG A   1      -6.325  -2.325 123.755  0.00  0.00    +0.002 C 
ENDROOT
BRANCH   1   2
ATOM      2  C   LIG A   1      -6.684  -0.917 124.209  0.00  0.00    +0.019 C 
BRANCH   2   7
ATOM      3  C   LIG A   1      -8.632   2.818 123.727  0.00  0.00    +0.131 C 
ATOM      4  C   LIG A   1      -7.138   2.772 123.411  0.00  0.00    +0.079 C 
ATOM      5  C   LIG A   1      -6.329   4.003 123.858  0.00  0.00    +0.026 C 
ATOM      6  N   LIG A   1      -6.763   1.575 124.142  0.00  0.00    -0.308 NA
ATOM      7  C   LIG A   1      -7.239   0.313 123.517  0.00  0.00    +0.054 C 
ATOM      8  C   LIG A   1      -8.704   0.232 123.614  0.00  0.00    +0.021 C 
ATOM      9  C   LIG A   1      -9.310   1.545 123.151  0.00  0.00    +0.034 C 
ATOM     10  H   LIG A   1      -6.880   1.646 125.151  0.00  0.00    +0.122 HD
BRANCH   3  11
ATOM     11  O   LIG A   1      -8.829   2.841 125.155  0.00  0.00    -0.390 OA
ATOM     12  H   LIG A   1      -8.772   3.770 125.441  0.00  0.00    +0.210 HD
ENDBRANCH   3  11
ENDBRANCH   2   7
ENDBRANCH   1   2
BRANCH   1  13
ATOM     13  C   LIG A   1      -7.215  -3.530 124.274  0.00  0.00    +0.000 C 
BRANCH  13  14
ATOM     14  C   LIG A   1      -8.757  -3.508 124.589  0.00  0.00    -0.000 C 
BRANCH  14  15
ATOM     15  C   LIG A   1      -9.387  -2.982 125.900  0.00  0.00    -0.000 C 
BRANCH  15  16
ATOM     16  C   LIG A   1      -9.053  -3.704 127.195  0.00  0.00    -0.000 C 
BRANCH  16  17
ATOM     17  C   LIG A   1      -8.060  -2.918 127.976  0.00  0.00    +0.000 C 
BRANCH  17  18
ATOM     18  C   LIG A   1      -7.988  -1.447 127.548  0.00  0.00    +0.000 C 
BRANCH  18  19
ATOM     19  C   LIG A   1      -6.863  -0.706 128.182  0.00  0.00    +0.007 C 
BRANCH  19  20
ATOM     20  C   LIG A   1      -7.133   0.685 127.636  0.00  0.00    +0.074 C 
BRANCH  20  21
ATOM     21  C   LIG A   1      -8.087   1.363 128.445  0.00  0.00    +0.130 C 
ATOM     22  C   LIG A   1      -7.922   1.342 129.906  0.00  0.00    +0.086 C 
ATOM     23  O   LIG A   1      -9.083   1.962 127.873  0.00  0.00    -0.298 OA
ENDBRANCH  20  21
ENDBRANCH  19  20
ENDBRANCH  18  19
ENDBRANCH  17  18
ENDBRANCH  16  17
ENDBRANCH  15  16
ENDBRANCH  14  15
ENDBRANCH  13  14
ENDBRANCH   1  13
TORSDOF 12
ENDMDL
MODEL 9
REMARK VINA RESULT:      -5.3      7.800      9.668
REMARK  Name = NuBBE_45
REMARK  14 active torsions:
REMARK  status: ('A' for Active; 'I' for Inactive)
REMARK    1  A    between atoms: O_1  and  C_2
REMARK    2  A    between atoms: C_4  and  C_6
REMARK    3  A    between atoms: C_8  and  C_10
REMARK    4  A    between atoms: C_10  and  C_11
REMARK    5  A    between atoms: C_11  and  C_12
REMARK    6  A    between atoms: C_12  and  C_13
REMARK    7  A    between atoms: C_13  and  C_14
REMARK    8  A    between atoms: C_14  and  C_15
REMARK    9  A    between atoms: C_15  and  C_16
REMARK   10  A    between atoms: C_16  and  C_17
REMARK   11  A    between atoms: C_17  and  C_18
REMARK   12  A    between atoms: C_18  and  C_19
REMARK   13  A    between atoms: C_19  and  C_20
REMARK   14  A    between atoms: C_20  and  C_21
REMARK                            x       y       z     vdW  Elec       q    Type
REMARK                         _______ _______ _______ _____ _____    ______ ____
ROOT
ATOM      1  C   LIG A   1      -8.653  -3.553 127.553  0.00  0.00    +0.002 C 
ENDROOT
BRANCH   1   2
ATOM      2  C   LIG A   1      -8.066  -2.486 128.465  0.00  0.00    +0.019 C 
BRANCH   2   7
ATOM      3  C   LIG A   1      -5.135  -3.951 131.156  0.00  0.00    +0.131 C 
ATOM      4  C   LIG A   1      -4.637  -3.113 129.980  0.00  0.00    +0.079 C 
ATOM      5  C   LIG A   1      -3.325  -3.595 129.332  0.00  0.00    +0.026 C 
ATOM      6  N   LIG A   1      -5.770  -3.240 129.081  0.00  0.00    -0.308 NA
ATOM      7  C   LIG A   1      -6.968  -2.470 129.510  0.00  0.00    +0.054 C 
ATOM      8  C   LIG A   1      -7.531  -3.066 130.730  0.00  0.00    +0.021 C 
ATOM      9  C   LIG A   1      -6.417  -3.295 131.736  0.00  0.00    +0.034 C 
ATOM     10  H   LIG A   1      -5.942  -4.188 128.754  0.00  0.00    +0.122 HD
BRANCH   3  11
ATOM     11  O   LIG A   1      -5.459  -5.282 130.704  0.00  0.00    -0.390 OA
ATOM     12  H   LIG A   1      -6.415  -5.303 130.524  0.00  0.00    +0.210 HD
ENDBRANCH   3  11
ENDBRANCH   2   7
ENDBRANCH   1   2
BRANCH   1  13
ATOM     13  C   LIG A   1      -8.983  -3.157 126.052  0.00  0.00    +0.000 C 
BRANCH  13  14
ATOM     14  C   LIG A   1      -8.358  -3.774 124.746  0.00  0.00    -0.000 C 
BRANCH  14  15
ATOM     15  C   LIG A   1      -6.982  -3.388 124.155  0.00  0.00    -0.000 C 
BRANCH  15  16
ATOM     16  C   LIG A   1      -5.904  -2.900 125.108  0.00  0.00    -0.000 C 
BRANCH  16  17
ATOM     17  C   LIG A   1      -5.519  -1.503 124.771  0.00  0.00    +0.000 C 
BRANCH  17  18
ATOM     18  C   LIG A   1      -5.590  -0.554 125.974  0.00  0.00    +0.000 C 
BRANCH  18  19
ATOM     19  C   LIG A   1      -6.934   0.059 126.161  0.00  0.00    +0.007 C 
BRANCH  19  20
ATOM     20  C   LIG A   1      -7.302   0.312 124.710  0.00  0.00    +0.074 C 
BRANCH  20  21
ATOM     21  C   LIG A   1      -8.710   0.223 124.529  0.00  0.00    +0.130 C 
ATOM     22  C   LIG A   1      -9.593   0.506 125.670  0.00  0.00    +0.086 C 
ATOM     23  O   LIG A   1      -9.174  -0.125 123.370  0.00  0.00    -0.298 OA
ENDBRANCH  20  21
ENDBRANCH  19  20
ENDBRANCH  18  19
ENDBRANCH  17  18
ENDBRANCH  16  17
ENDBRANCH  15  16
ENDBRANCH  14  15
ENDBRANCH  13  14
ENDBRANCH   1  13
TORSDOF 12
ENDMDL
