MODEL 1
REMARK VINA RESULT:      -7.7      0.000      0.000
REMARK  Name = NuBBE_369
REMARK  14 active torsions:
REMARK  status: ('A' for Active; 'I' for Inactive)
REMARK    1  A    between atoms: O_1  and  C_2
REMARK    2  A    between atoms: C_8  and  O_39
REMARK    3  A    between atoms: C_9  and  C_10
REMARK    4  A    between atoms: C_13  and  C_35
REMARK    5  A    between atoms: C_15  and  O_34
REMARK    6  A    between atoms: C_17  and  O_33
REMARK    7  A    between atoms: C_19  and  O_21
REMARK    8  A    between atoms: O_21  and  C_22
REMARK    9  A    between atoms: C_22  and  C_23
REMARK   10  A    between atoms: C_24  and  C_25
REMARK   11  A    between atoms: C_28  and  O_31
REMARK   12  A    between atoms: C_35  and  O_36
REMARK   13  A    between atoms: C_37  and  O_38
REMARK   14  A    between atoms: C_45  and  O_46
REMARK                            x       y       z     vdW  Elec       q    Type
REMARK                         _______ _______ _______ _____ _____    ______ ____
ROOT
ATOM      1  C   LIG A   1      -6.330   0.248 128.927  0.00  0.00    +0.199 C 
ATOM      2  O   LIG A   1      -7.354  -0.732 128.659  0.00  0.00    -0.360 OA
ATOM      3  C   LIG A   1      -6.831  -2.065 128.659  0.00  0.00    +0.175 C 
ATOM      4  C   LIG A   1      -6.396  -2.447 130.081  0.00  0.00    +0.177 C 
ATOM      5  C   LIG A   1      -5.258  -1.519 130.498  0.00  0.00    +0.189 C 
ATOM      6  C   LIG A   1      -5.595  -0.029 130.273  0.00  0.00    +0.241 C 
ENDROOT
BRANCH   1  14
ATOM      7  C   LIG A   1     -11.397   7.527 129.871  0.00  0.00    +0.162 A 
ATOM      8  C   LIG A   1     -10.251   7.131 129.181  0.00  0.00    +0.096 A 
ATOM      9  C   LIG A   1      -9.765   5.831 129.342  0.00  0.00    +0.143 A 
ATOM     10  O   LIG A   1      -8.629   5.507 128.641  0.00  0.00    -0.454 OA
ATOM     11  C   LIG A   1      -8.129   4.232 128.756  0.00  0.00    +0.146 A 
ATOM     12  C   LIG A   1      -6.980   3.950 128.018  0.00  0.00    +0.093 A 
ATOM     13  C   LIG A   1      -6.407   2.673 128.071  0.00  0.00    +0.130 A 
ATOM     14  C   LIG A   1      -6.958   1.643 128.855  0.00  0.00    +0.068 A 
ATOM     15  C   LIG A   1      -8.118   1.954 129.594  0.00  0.00    +0.141 A 
ATOM     16  C   LIG A   1      -8.694   3.238 129.548  0.00  0.00    +0.106 A 
ATOM     17  C   LIG A   1      -9.893   3.584 130.329  0.00  0.00    +0.204 A 
ATOM     18  O   LIG A   1     -10.416   2.760 131.073  0.00  0.00    -0.286 OA
ATOM     19  C   LIG A   1     -10.430   4.943 130.186  0.00  0.00    +0.068 A 
ATOM     20  C   LIG A   1     -11.580   5.335 130.881  0.00  0.00    +0.064 A 
ATOM     21  C   LIG A   1     -12.058   6.633 130.718  0.00  0.00    +0.159 A 
BRANCH   7  22
ATOM     22  O   LIG A   1     -11.886   8.795 129.728  0.00  0.00    -0.503 OA
ATOM     23  H   LIG A   1     -11.153   9.416 129.603  0.00  0.00    +0.292 HD
ENDBRANCH   7  22
BRANCH  15  24
ATOM     24  O   LIG A   1      -8.678   0.967 130.368  0.00  0.00    -0.505 OA
ATOM     25  H   LIG A   1      -9.600   1.229 130.597  0.00  0.00    +0.292 HD
ENDBRANCH  15  24
BRANCH  13  26
ATOM     26  O   LIG A   1      -5.280   2.425 127.337  0.00  0.00    -0.506 OA
ATOM     27  H   LIG A   1      -5.045   1.485 127.410  0.00  0.00    +0.292 HD
ENDBRANCH  13  26
BRANCH  21  28
ATOM     28  O   LIG A   1     -13.177   7.047 131.384  0.00  0.00    -0.503 OA
ATOM     29  H   LIG A   1     -13.646   6.276 131.742  0.00  0.00    +0.292 HD
ENDBRANCH  21  28
ENDBRANCH   1  14
BRANCH   5  30
ATOM     30  O   LIG A   1      -4.938  -1.758 131.884  0.00  0.00    -0.385 OA
ATOM     31  H   LIG A   1      -3.987  -1.987 131.882  0.00  0.00    +0.210 HD
ENDBRANCH   5  30
BRANCH   4  32
ATOM     32  O   LIG A   1      -5.903  -3.791 130.188  0.00  0.00    -0.387 OA
ATOM     33  H   LIG A   1      -6.678  -4.362 130.384  0.00  0.00    +0.210 HD
ENDBRANCH   4  32
BRANCH   6  34
ATOM     34  O   LIG A   1      -4.393   0.769 130.431  0.00  0.00    -0.453 OA
BRANCH  34  35
ATOM     35  C   LIG A   1      -4.167   1.298 131.658  0.00  0.00    +0.332 C 
ATOM     36  O   LIG A   1      -3.459   0.849 132.538  0.00  0.00    -0.246 OA
BRANCH  35  37
ATOM     37  C   LIG A   1      -5.002   2.498 131.788  0.00  0.00    +0.092 C 
ATOM     38  C   LIG A   1      -5.948   2.502 132.735  0.00  0.00    +0.015 C 
BRANCH  38  39
ATOM     39  C   LIG A   1      -6.899   3.593 132.943  0.00  0.00    -0.025 A 
ATOM     40  C   LIG A   1      -6.758   4.842 132.321  0.00  0.00    +0.011 A 
ATOM     41  C   LIG A   1      -7.715   5.839 132.512  0.00  0.00    +0.046 A 
ATOM     42  C   LIG A   1      -8.820   5.578 133.315  0.00  0.00    +0.117 A 
ATOM     43  C   LIG A   1      -8.987   4.340 133.921  0.00  0.00    +0.046 A 
ATOM     44  C   LIG A   1      -8.029   3.347 133.732  0.00  0.00    +0.011 A 
BRANCH  42  45
ATOM     45  O   LIG A   1      -9.777   6.525 133.529  0.00  0.00    -0.507 OA
ATOM     46  H   LIG A   1     -10.222   6.325 134.368  0.00  0.00    +0.292 HD
ENDBRANCH  42  45
ENDBRANCH  38  39
ENDBRANCH  35  37
ENDBRANCH  34  35
ENDBRANCH   6  34
BRANCH   3  47
ATOM     47  C   LIG A   1      -7.912  -3.007 128.122  0.00  0.00    +0.190 C 
BRANCH  47  48
ATOM     48  O   LIG A   1      -8.763  -3.471 129.167  0.00  0.00    -0.392 OA
ATOM     49  H   LIG A   1      -9.579  -3.801 128.744  0.00  0.00    +0.209 HD
ENDBRANCH  47  48
ENDBRANCH   3  47
TORSDOF 14
ENDMDL
MODEL 2
REMARK VINA RESULT:      -7.7      2.988      5.296
REMARK  Name = NuBBE_369
REMARK  14 active torsions:
REMARK  status: ('A' for Active; 'I' for Inactive)
REMARK    1  A    between atoms: O_1  and  C_2
REMARK    2  A    between atoms: C_8  and  O_39
REMARK    3  A    between atoms: C_9  and  C_10
REMARK    4  A    between atoms: C_13  and  C_35
REMARK    5  A    between atoms: C_15  and  O_34
REMARK    6  A    between atoms: C_17  and  O_33
REMARK    7  A    between atoms: C_19  and  O_21
REMARK    8  A    between atoms: O_21  and  C_22
REMARK    9  A    between atoms: C_22  and  C_23
REMARK   10  A    between atoms: C_24  and  C_25
REMARK   11  A    between atoms: C_28  and  O_31
REMARK   12  A    between atoms: C_35  and  O_36
REMARK   13  A    between atoms: C_37  and  O_38
REMARK   14  A    between atoms: C_45  and  O_46
REMARK                            x       y       z     vdW  Elec       q    Type
REMARK                         _______ _______ _______ _____ _____    ______ ____
ROOT
ATOM      1  C   LIG A   1      -7.196   0.784 125.519  0.00  0.00    +0.199 C 
ATOM      2  O   LIG A   1      -7.999   1.698 124.744  0.00  0.00    -0.360 OA
ATOM      3  C   LIG A   1      -8.401   1.129 123.493  0.00  0.00    +0.175 C 
ATOM      4  C   LIG A   1      -9.388  -0.021 123.744  0.00  0.00    +0.177 C 
ATOM      5  C   LIG A   1      -8.660  -1.114 124.521  0.00  0.00    +0.189 C 
ATOM      6  C   LIG A   1      -7.928  -0.570 125.767  0.00  0.00    +0.241 C 
ENDROOT
BRANCH   1  14
ATOM      7  C   LIG A   1      -6.758   5.362 133.160  0.00  0.00    +0.162 A 
ATOM      8  C   LIG A   1      -5.903   4.667 132.305  0.00  0.00    +0.096 A 
ATOM      9  C   LIG A   1      -6.420   4.053 131.162  0.00  0.00    +0.143 A 
ATOM     10  O   LIG A   1      -5.526   3.377 130.367  0.00  0.00    -0.454 OA
ATOM     11  C   LIG A   1      -5.993   2.776 129.222  0.00  0.00    +0.146 A 
ATOM     12  C   LIG A   1      -5.045   2.111 128.445  0.00  0.00    +0.093 A 
ATOM     13  C   LIG A   1      -5.431   1.476 127.257  0.00  0.00    +0.130 A 
ATOM     14  C   LIG A   1      -6.764   1.485 126.810  0.00  0.00    +0.068 A 
ATOM     15  C   LIG A   1      -7.704   2.162 127.615  0.00  0.00    +0.141 A 
ATOM     16  C   LIG A   1      -7.320   2.797 128.812  0.00  0.00    +0.106 A 
ATOM     17  C   LIG A   1      -8.293   3.491 129.672  0.00  0.00    +0.204 A 
ATOM     18  O   LIG A   1      -9.484   3.512 129.381  0.00  0.00    -0.286 OA
ATOM     19  C   LIG A   1      -7.783   4.144 130.885  0.00  0.00    +0.068 A 
ATOM     20  C   LIG A   1      -8.646   4.842 131.739  0.00  0.00    +0.064 A 
ATOM     21  C   LIG A   1      -8.124   5.448 132.878  0.00  0.00    +0.159 A 
BRANCH   7  22
ATOM     22  O   LIG A   1      -6.270   5.967 134.284  0.00  0.00    -0.503 OA
ATOM     23  H   LIG A   1      -5.571   5.419 134.673  0.00  0.00    +0.292 HD
ENDBRANCH   7  22
BRANCH  15  24
ATOM     24  O   LIG A   1      -9.014   2.189 127.201  0.00  0.00    -0.505 OA
ATOM     25  H   LIG A   1      -9.043   2.012 126.232  0.00  0.00    +0.292 HD
ENDBRANCH  15  24
BRANCH  13  26
ATOM     26  O   LIG A   1      -4.480   0.831 126.515  0.00  0.00    -0.506 OA
ATOM     27  H   LIG A   1      -3.715   0.624 127.078  0.00  0.00    +0.292 HD
ENDBRANCH  13  26
BRANCH  21  28
ATOM     28  O   LIG A   1      -8.941   6.134 133.732  0.00  0.00    -0.503 OA
ATOM     29  H   LIG A   1      -9.640   5.544 134.057  0.00  0.00    +0.292 HD
ENDBRANCH  21  28
ENDBRANCH   1  14
BRANCH   5  30
ATOM     30  O   LIG A   1      -9.607  -2.133 124.900  0.00  0.00    -0.385 OA
ATOM     31  H   LIG A   1      -9.066  -2.826 125.330  0.00  0.00    +0.210 HD
ENDBRANCH   5  30
BRANCH   4  32
ATOM     32  O   LIG A   1      -9.886  -0.622 122.539  0.00  0.00    -0.387 OA
ATOM     33  H   LIG A   1      -9.476  -1.512 122.476  0.00  0.00    +0.210 HD
ENDBRANCH   4  32
BRANCH   6  34
ATOM     34  O   LIG A   1      -7.048  -1.595 126.298  0.00  0.00    -0.453 OA
BRANCH  34  35
ATOM     35  C   LIG A   1      -7.514  -2.319 127.344  0.00  0.00    +0.332 C 
ATOM     36  O   LIG A   1      -8.241  -3.292 127.303  0.00  0.00    -0.246 OA
BRANCH  35  37
ATOM     37  C   LIG A   1      -7.051  -1.673 128.578  0.00  0.00    +0.092 C 
ATOM     38  C   LIG A   1      -7.976  -1.158 129.398  0.00  0.00    +0.015 C 
BRANCH  38  39
ATOM     39  C   LIG A   1      -7.669  -0.426 130.627  0.00  0.00    -0.025 A 
ATOM     40  C   LIG A   1      -6.362  -0.300 131.119  0.00  0.00    +0.011 A 
ATOM     41  C   LIG A   1      -6.110   0.447 132.271  0.00  0.00    +0.046 A 
ATOM     42  C   LIG A   1      -7.167   1.075 132.921  0.00  0.00    +0.117 A 
ATOM     43  C   LIG A   1      -8.464   0.979 132.435  0.00  0.00    +0.046 A 
ATOM     44  C   LIG A   1      -8.714   0.231 131.286  0.00  0.00    +0.011 A 
BRANCH  42  45
ATOM     45  O   LIG A   1      -6.964   1.812 134.049  0.00  0.00    -0.507 OA
ATOM     46  H   LIG A   1      -7.436   1.384 134.782  0.00  0.00    +0.292 HD
ENDBRANCH  42  45
ENDBRANCH  38  39
ENDBRANCH  35  37
ENDBRANCH  34  35
ENDBRANCH   6  34
BRANCH   3  47
ATOM     47  C   LIG A   1      -9.022   2.235 122.637  0.00  0.00    +0.190 C 
BRANCH  47  48
ATOM     48  O   LIG A   1      -8.543   3.522 123.023  0.00  0.00    -0.392 OA
ATOM     49  H   LIG A   1      -9.302   4.005 123.404  0.00  0.00    +0.209 HD
ENDBRANCH  47  48
ENDBRANCH   3  47
TORSDOF 14
ENDMDL
MODEL 3
REMARK VINA RESULT:      -7.7      2.166      8.011
REMARK  Name = NuBBE_369
REMARK  14 active torsions:
REMARK  status: ('A' for Active; 'I' for Inactive)
REMARK    1  A    between atoms: O_1  and  C_2
REMARK    2  A    between atoms: C_8  and  O_39
REMARK    3  A    between atoms: C_9  and  C_10
REMARK    4  A    between atoms: C_13  and  C_35
REMARK    5  A    between atoms: C_15  and  O_34
REMARK    6  A    between atoms: C_17  and  O_33
REMARK    7  A    between atoms: C_19  and  O_21
REMARK    8  A    between atoms: O_21  and  C_22
REMARK    9  A    between atoms: C_22  and  C_23
REMARK   10  A    between atoms: C_24  and  C_25
REMARK   11  A    between atoms: C_28  and  O_31
REMARK   12  A    between atoms: C_35  and  O_36
REMARK   13  A    between atoms: C_37  and  O_38
REMARK   14  A    between atoms: C_45  and  O_46
REMARK                            x       y       z     vdW  Elec       q    Type
REMARK                         _______ _______ _______ _____ _____    ______ ____
ROOT
ATOM      1  C   LIG A   1      -9.135   3.741 130.945  0.00  0.00    +0.199 C 
ATOM      2  O   LIG A   1     -10.257   4.042 130.090  0.00  0.00    -0.360 OA
ATOM      3  C   LIG A   1     -10.826   5.323 130.383  0.00  0.00    +0.175 C 
ATOM      4  C   LIG A   1      -9.831   6.427 129.995  0.00  0.00    +0.177 C 
ATOM      5  C   LIG A   1      -8.587   6.278 130.866  0.00  0.00    +0.189 C 
ATOM      6  C   LIG A   1      -8.030   4.838 130.864  0.00  0.00    +0.241 C 
ENDROOT
BRANCH   1  14
ATOM      7  C   LIG A   1      -5.999  -4.606 131.097  0.00  0.00    +0.162 A 
ATOM      8  C   LIG A   1      -6.397  -3.654 130.159  0.00  0.00    +0.096 A 
ATOM      9  C   LIG A   1      -6.863  -2.411 130.594  0.00  0.00    +0.143 A 
ATOM     10  O   LIG A   1      -7.247  -1.522 129.619  0.00  0.00    -0.454 OA
ATOM     11  C   LIG A   1      -7.692  -0.279 130.005  0.00  0.00    +0.146 A 
ATOM     12  C   LIG A   1      -8.062   0.589 128.979  0.00  0.00    +0.093 A 
ATOM     13  C   LIG A   1      -8.520   1.878 129.281  0.00  0.00    +0.130 A 
ATOM     14  C   LIG A   1      -8.623   2.338 130.606  0.00  0.00    +0.068 A 
ATOM     15  C   LIG A   1      -8.246   1.440 131.626  0.00  0.00    +0.141 A 
ATOM     16  C   LIG A   1      -7.790   0.142 131.326  0.00  0.00    +0.106 A 
ATOM     17  C   LIG A   1      -7.411  -0.814 132.380  0.00  0.00    +0.204 A 
ATOM     18  O   LIG A   1      -7.510  -0.512 133.565  0.00  0.00    -0.286 OA
ATOM     19  C   LIG A   1      -6.920  -2.132 131.958  0.00  0.00    +0.068 A 
ATOM     20  C   LIG A   1      -6.521  -3.084 132.905  0.00  0.00    +0.064 A 
ATOM     21  C   LIG A   1      -6.061  -4.322 132.465  0.00  0.00    +0.159 A 
BRANCH   7  22
ATOM     22  O   LIG A   1      -5.543  -5.829 130.691  0.00  0.00    -0.503 OA
ATOM     23  H   LIG A   1      -4.573  -5.838 130.707  0.00  0.00    +0.292 HD
ENDBRANCH   7  22
BRANCH  15  24
ATOM     24  O   LIG A   1      -8.335   1.863 132.930  0.00  0.00    -0.505 OA
ATOM     25  H   LIG A   1      -8.815   2.723 132.951  0.00  0.00    +0.292 HD
ENDBRANCH  15  24
BRANCH  13  26
ATOM     26  O   LIG A   1      -8.877   2.709 128.255  0.00  0.00    -0.506 OA
ATOM     27  H   LIG A   1      -9.225   2.181 127.517  0.00  0.00    +0.292 HD
ENDBRANCH  13  26
BRANCH  21  28
ATOM     28  O   LIG A   1      -5.667  -5.273 133.363  0.00  0.00    -0.503 OA
ATOM     29  H   LIG A   1      -5.084  -5.913 132.925  0.00  0.00    +0.292 HD
ENDBRANCH  21  28
ENDBRANCH   1  14
BRANCH   5  30
ATOM     30  O   LIG A   1      -7.581   7.207 130.415  0.00  0.00    -0.385 OA
ATOM     31  H   LIG A   1      -6.880   7.163 131.096  0.00  0.00    +0.210 HD
ENDBRANCH   5  30
BRANCH   4  32
ATOM     32  O   LIG A   1     -10.337   7.754 130.208  0.00  0.00    -0.387 OA
ATOM     33  H   LIG A   1     -10.833   7.736 131.054  0.00  0.00    +0.210 HD
ENDBRANCH   4  32
BRANCH   6  34
ATOM     34  O   LIG A   1      -7.029   4.703 131.906  0.00  0.00    -0.453 OA
BRANCH  34  35
ATOM     35  C   LIG A   1      -5.735   4.647 131.507  0.00  0.00    +0.332 C 
ATOM     36  O   LIG A   1      -5.126   5.472 130.855  0.00  0.00    -0.246 OA
BRANCH  35  37
ATOM     37  C   LIG A   1      -5.191   3.353 131.935  0.00  0.00    +0.092 C 
ATOM     38  C   LIG A   1      -4.769   2.508 130.985  0.00  0.00    +0.015 C 
BRANCH  38  39
ATOM     39  C   LIG A   1      -4.267   1.160 131.249  0.00  0.00    -0.025 A 
ATOM     40  C   LIG A   1      -3.987   0.702 132.545  0.00  0.00    +0.011 A 
ATOM     41  C   LIG A   1      -3.553  -0.608 132.753  0.00  0.00    +0.046 A 
ATOM     42  C   LIG A   1      -3.412  -1.461 131.663  0.00  0.00    +0.117 A 
ATOM     43  C   LIG A   1      -3.706  -1.031 130.376  0.00  0.00    +0.046 A 
ATOM     44  C   LIG A   1      -4.137   0.278 130.170  0.00  0.00    +0.011 A 
BRANCH  42  45
ATOM     45  O   LIG A   1      -2.990  -2.746 131.823  0.00  0.00    -0.507 OA
ATOM     46  H   LIG A   1      -3.583  -3.328 131.320  0.00  0.00    +0.292 HD
ENDBRANCH  42  45
ENDBRANCH  38  39
ENDBRANCH  35  37
ENDBRANCH  34  35
ENDBRANCH   6  34
BRANCH   3  47
ATOM     47  C   LIG A   1     -12.146   5.452 129.620  0.00  0.00    +0.190 C 
BRANCH  47  48
ATOM     48  O   LIG A   1     -11.992   6.245 128.445  0.00  0.00    -0.392 OA
ATOM     49  H   LIG A   1     -11.094   6.627 128.476  0.00  0.00    +0.209 HD
ENDBRANCH  47  48
ENDBRANCH   3  47
TORSDOF 14
ENDMDL
MODEL 4
REMARK VINA RESULT:      -7.7      4.037      7.985
REMARK  Name = NuBBE_369
REMARK  14 active torsions:
REMARK  status: ('A' for Active; 'I' for Inactive)
REMARK    1  A    between atoms: O_1  and  C_2
REMARK    2  A    between atoms: C_8  and  O_39
REMARK    3  A    between atoms: C_9  and  C_10
REMARK    4  A    between atoms: C_13  and  C_35
REMARK    5  A    between atoms: C_15  and  O_34
REMARK    6  A    between atoms: C_17  and  O_33
REMARK    7  A    between atoms: C_19  and  O_21
REMARK    8  A    between atoms: O_21  and  C_22
REMARK    9  A    between atoms: C_22  and  C_23
REMARK   10  A    between atoms: C_24  and  C_25
REMARK   11  A    between atoms: C_28  and  O_31
REMARK   12  A    between atoms: C_35  and  O_36
REMARK   13  A    between atoms: C_37  and  O_38
REMARK   14  A    between atoms: C_45  and  O_46
REMARK                            x       y       z     vdW  Elec       q    Type
REMARK                         _______ _______ _______ _____ _____    ______ ____
ROOT
ATOM      1  C   LIG A   1      -7.040   0.059 127.079  0.00  0.00    +0.199 C 
ATOM      2  O   LIG A   1      -7.491   1.321 126.545  0.00  0.00    -0.360 OA
ATOM      3  C   LIG A   1      -7.771   1.239 125.143  0.00  0.00    +0.175 C 
ATOM      4  C   LIG A   1      -8.999   0.345 124.916  0.00  0.00    +0.177 C 
ATOM      5  C   LIG A   1      -8.657  -1.065 125.388  0.00  0.00    +0.189 C 
ATOM      6  C   LIG A   1      -8.063  -1.086 126.813  0.00  0.00    +0.241 C 
ENDROOT
BRANCH   1  14
ATOM      7  C   LIG A   1      -3.447  -0.101 135.240  0.00  0.00    +0.162 A 
ATOM      8  C   LIG A   1      -4.548   0.456 134.592  0.00  0.00    +0.096 A 
ATOM      9  C   LIG A   1      -4.734   0.227 133.226  0.00  0.00    +0.143 A 
ATOM     10  O   LIG A   1      -5.834   0.812 132.647  0.00  0.00    -0.454 OA
ATOM     11  C   LIG A   1      -6.062   0.594 131.309  0.00  0.00    +0.146 A 
ATOM     12  C   LIG A   1      -7.196   1.201 130.770  0.00  0.00    +0.093 A 
ATOM     13  C   LIG A   1      -7.510   1.026 129.416  0.00  0.00    +0.130 A 
ATOM     14  C   LIG A   1      -6.710   0.245 128.563  0.00  0.00    +0.068 A 
ATOM     15  C   LIG A   1      -5.568  -0.357 129.131  0.00  0.00    +0.141 A 
ATOM     16  C   LIG A   1      -5.246  -0.179 130.491  0.00  0.00    +0.106 A 
ATOM     17  C   LIG A   1      -4.047  -0.784 131.094  0.00  0.00    +0.204 A 
ATOM     18  O   LIG A   1      -3.270  -1.446 130.414  0.00  0.00    -0.286 OA
ATOM     19  C   LIG A   1      -3.820  -0.560 132.527  0.00  0.00    +0.068 A 
ATOM     20  C   LIG A   1      -2.713  -1.123 133.173  0.00  0.00    +0.064 A 
ATOM     21  C   LIG A   1      -2.532  -0.888 134.533  0.00  0.00    +0.159 A 
BRANCH   7  22
ATOM     22  O   LIG A   1      -3.248   0.114 136.575  0.00  0.00    -0.503 OA
ATOM     23  H   LIG A   1      -3.314   1.062 136.766  0.00  0.00    +0.292 HD
ENDBRANCH   7  22
BRANCH  15  24
ATOM     24  O   LIG A   1      -4.769  -1.126 128.321  0.00  0.00    -0.505 OA
ATOM     25  H   LIG A   1      -4.206  -1.704 128.888  0.00  0.00    +0.292 HD
ENDBRANCH  15  24
BRANCH  13  26
ATOM     26  O   LIG A   1      -8.627   1.635 128.914  0.00  0.00    -0.506 OA
ATOM     27  H   LIG A   1      -8.467   1.898 127.992  0.00  0.00    +0.292 HD
ENDBRANCH  13  26
BRANCH  21  28
ATOM     28  O   LIG A   1      -1.460  -1.421 135.191  0.00  0.00    -0.503 OA
ATOM     29  H   LIG A   1      -1.616  -1.386 136.149  0.00  0.00    +0.292 HD
ENDBRANCH  21  28
ENDBRANCH   1  14
BRANCH   5  30
ATOM     30  O   LIG A   1      -9.843  -1.884 125.326  0.00  0.00    -0.385 OA
ATOM     31  H   LIG A   1     -10.113  -1.999 126.259  0.00  0.00    +0.210 HD
ENDBRANCH   5  30
BRANCH   4  32
ATOM     32  O   LIG A   1      -9.387   0.244 123.537  0.00  0.00    -0.387 OA
ATOM     33  H   LIG A   1     -10.369   0.266 123.517  0.00  0.00    +0.210 HD
ENDBRANCH   4  32
BRANCH   6  34
ATOM     34  O   LIG A   1      -7.517  -2.403 127.091  0.00  0.00    -0.453 OA
BRANCH  34  35
ATOM     35  C   LIG A   1      -8.294  -3.247 127.811  0.00  0.00    +0.332 C 
ATOM     36  O   LIG A   1      -9.172  -3.978 127.397  0.00  0.00    -0.246 OA
BRANCH  35  37
ATOM     37  C   LIG A   1      -7.949  -3.073 129.227  0.00  0.00    +0.092 C 
ATOM     38  C   LIG A   1      -6.850  -3.688 129.683  0.00  0.00    +0.015 C 
BRANCH  38  39
ATOM     39  C   LIG A   1      -6.415  -3.666 131.079  0.00  0.00    -0.025 A 
ATOM     40  C   LIG A   1      -5.230  -4.284 131.506  0.00  0.00    +0.011 A 
ATOM     41  C   LIG A   1      -4.831  -4.199 132.841  0.00  0.00    +0.046 A 
ATOM     42  C   LIG A   1      -5.613  -3.484 133.742  0.00  0.00    +0.117 A 
ATOM     43  C   LIG A   1      -6.776  -2.848 133.331  0.00  0.00    +0.046 A 
ATOM     44  C   LIG A   1      -7.176  -2.936 132.000  0.00  0.00    +0.011 A 
BRANCH  42  45
ATOM     45  O   LIG A   1      -5.259  -3.378 135.053  0.00  0.00    -0.507 OA
ATOM     46  H   LIG A   1      -5.884  -2.777 135.491  0.00  0.00    +0.292 HD
ENDBRANCH  42  45
ENDBRANCH  38  39
ENDBRANCH  35  37
ENDBRANCH  34  35
ENDBRANCH   6  34
BRANCH   3  47
ATOM     47  C   LIG A   1      -7.993   2.657 124.612  0.00  0.00    +0.190 C 
BRANCH  47  48
ATOM     48  O   LIG A   1      -9.360   3.048 124.728  0.00  0.00    -0.392 OA
ATOM     49  H   LIG A   1      -9.897   2.303 124.395  0.00  0.00    +0.209 HD
ENDBRANCH  47  48
ENDBRANCH   3  47
TORSDOF 14
ENDMDL
MODEL 5
REMARK VINA RESULT:      -7.5      3.912      7.308
REMARK  Name = NuBBE_369
REMARK  14 active torsions:
REMARK  status: ('A' for Active; 'I' for Inactive)
REMARK    1  A    between atoms: O_1  and  C_2
REMARK    2  A    between atoms: C_8  and  O_39
REMARK    3  A    between atoms: C_9  and  C_10
REMARK    4  A    between atoms: C_13  and  C_35
REMARK    5  A    between atoms: C_15  and  O_34
REMARK    6  A    between atoms: C_17  and  O_33
REMARK    7  A    between atoms: C_19  and  O_21
REMARK    8  A    between atoms: O_21  and  C_22
REMARK    9  A    between atoms: C_22  and  C_23
REMARK   10  A    between atoms: C_24  and  C_25
REMARK   11  A    between atoms: C_28  and  O_31
REMARK   12  A    between atoms: C_35  and  O_36
REMARK   13  A    between atoms: C_37  and  O_38
REMARK   14  A    between atoms: C_45  and  O_46
REMARK                            x       y       z     vdW  Elec       q    Type
REMARK                         _______ _______ _______ _____ _____    ______ ____
ROOT
ATOM      1  C   LIG A   1      -8.391   1.703 125.561  0.00  0.00    +0.199 C 
ATOM      2  O   LIG A   1      -8.912   1.055 124.383  0.00  0.00    -0.360 OA
ATOM      3  C   LIG A   1      -9.394   2.000 123.421  0.00  0.00    +0.175 C 
ATOM      4  C   LIG A   1      -8.213   2.796 122.846  0.00  0.00    +0.177 C 
ATOM      5  C   LIG A   1      -7.577   3.594 123.980  0.00  0.00    +0.189 C 
ATOM      6  C   LIG A   1      -7.265   2.723 125.217  0.00  0.00    +0.241 C 
ENDROOT
BRANCH   1  14
ATOM      7  C   LIG A   1      -6.736  -3.258 132.786  0.00  0.00    +0.162 A 
ATOM      8  C   LIG A   1      -6.515  -3.306 131.410  0.00  0.00    +0.096 A 
ATOM      9  C   LIG A   1      -6.981  -2.267 130.600  0.00  0.00    +0.143 A 
ATOM     10  O   LIG A   1      -6.737  -2.379 129.253  0.00  0.00    -0.454 OA
ATOM     11  C   LIG A   1      -7.163  -1.368 128.424  0.00  0.00    +0.146 A 
ATOM     12  C   LIG A   1      -6.884  -1.524 127.067  0.00  0.00    +0.093 A 
ATOM     13  C   LIG A   1      -7.275  -0.539 126.151  0.00  0.00    +0.130 A 
ATOM     14  C   LIG A   1      -7.950   0.626 126.557  0.00  0.00    +0.068 A 
ATOM     15  C   LIG A   1      -8.223   0.760 127.935  0.00  0.00    +0.141 A 
ATOM     16  C   LIG A   1      -7.836  -0.232 128.857  0.00  0.00    +0.106 A 
ATOM     17  C   LIG A   1      -8.131  -0.116 130.295  0.00  0.00    +0.204 A 
ATOM     18  O   LIG A   1      -8.753   0.847 130.732  0.00  0.00    -0.286 OA
ATOM     19  C   LIG A   1      -7.658  -1.192 131.175  0.00  0.00    +0.068 A 
ATOM     20  C   LIG A   1      -7.882  -1.139 132.556  0.00  0.00    +0.064 A 
ATOM     21  C   LIG A   1      -7.417  -2.179 133.357  0.00  0.00    +0.159 A 
BRANCH   7  22
ATOM     22  O   LIG A   1      -6.289  -4.265 133.594  0.00  0.00    -0.503 OA
ATOM     23  H   LIG A   1      -5.619  -4.787 133.125  0.00  0.00    +0.292 HD
ENDBRANCH   7  22
BRANCH  15  24
ATOM     24  O   LIG A   1      -8.880   1.888 128.360  0.00  0.00    -0.505 OA
ATOM     25  H   LIG A   1      -9.527   2.158 127.668  0.00  0.00    +0.292 HD
ENDBRANCH  15  24
BRANCH  13  26
ATOM     26  O   LIG A   1      -6.989  -0.719 124.826  0.00  0.00    -0.506 OA
ATOM     27  H   LIG A   1      -6.627  -1.611 124.691  0.00  0.00    +0.292 HD
ENDBRANCH  13  26
BRANCH  21  28
ATOM     28  O   LIG A   1      -7.623  -2.157 134.707  0.00  0.00    -0.503 OA
ATOM     29  H   LIG A   1      -7.975  -1.291 134.969  0.00  0.00    +0.292 HD
ENDBRANCH  21  28
ENDBRANCH   1  14
BRANCH   5  30
ATOM     30  O   LIG A   1      -6.376   4.228 123.495  0.00  0.00    -0.385 OA
ATOM     31  H   LIG A   1      -5.647   3.688 123.861  0.00  0.00    +0.210 HD
ENDBRANCH   5  30
BRANCH   4  32
ATOM     32  O   LIG A   1      -8.596   3.737 121.832  0.00  0.00    -0.387 OA
ATOM     33  H   LIG A   1      -8.659   4.614 122.269  0.00  0.00    +0.210 HD
ENDBRANCH   4  32
BRANCH   6  34
ATOM     34  O   LIG A   1      -6.920   3.579 126.338  0.00  0.00    -0.453 OA
BRANCH  34  35
ATOM     35  C   LIG A   1      -5.614   3.623 126.694  0.00  0.00    +0.332 C 
ATOM     36  O   LIG A   1      -4.662   3.880 125.984  0.00  0.00    -0.246 OA
BRANCH  35  37
ATOM     37  C   LIG A   1      -5.520   3.219 128.102  0.00  0.00    +0.092 C 
ATOM     38  C   LIG A   1      -4.855   2.093 128.386  0.00  0.00    +0.015 C 
BRANCH  38  39
ATOM     39  C   LIG A   1      -4.734   1.526 129.729  0.00  0.00    -0.025 A 
ATOM     40  C   LIG A   1      -5.244   2.171 130.866  0.00  0.00    +0.011 A 
ATOM     41  C   LIG A   1      -5.146   1.571 132.122  0.00  0.00    +0.046 A 
ATOM     42  C   LIG A   1      -4.548   0.321 132.236  0.00  0.00    +0.117 A 
ATOM     43  C   LIG A   1      -4.057  -0.341 131.118  0.00  0.00    +0.046 A 
ATOM     44  C   LIG A   1      -4.153   0.260 129.865  0.00  0.00    +0.011 A 
BRANCH  42  45
ATOM     45  O   LIG A   1      -4.431  -0.299 133.444  0.00  0.00    -0.507 OA
ATOM     46  H   LIG A   1      -3.561  -0.728 133.484  0.00  0.00    +0.292 HD
ENDBRANCH  42  45
ENDBRANCH  38  39
ENDBRANCH  35  37
ENDBRANCH  34  35
ENDBRANCH   6  34
BRANCH   3  47
ATOM     47  C   LIG A   1     -10.151   1.237 122.332  0.00  0.00    +0.190 C 
BRANCH  47  48
ATOM     48  O   LIG A   1     -11.314   0.600 122.856  0.00  0.00    -0.392 OA
ATOM     49  H   LIG A   1     -11.474   0.983 123.740  0.00  0.00    +0.209 HD
ENDBRANCH  47  48
ENDBRANCH   3  47
TORSDOF 14
ENDMDL
MODEL 6
REMARK VINA RESULT:      -7.4      4.137      6.979
REMARK  Name = NuBBE_369
REMARK  14 active torsions:
REMARK  status: ('A' for Active; 'I' for Inactive)
REMARK    1  A    between atoms: O_1  and  C_2
REMARK    2  A    between atoms: C_8  and  O_39
REMARK    3  A    between atoms: C_9  and  C_10
REMARK    4  A    between atoms: C_13  and  C_35
REMARK    5  A    between atoms: C_15  and  O_34
REMARK    6  A    between atoms: C_17  and  O_33
REMARK    7  A    between atoms: C_19  and  O_21
REMARK    8  A    between atoms: O_21  and  C_22
REMARK    9  A    between atoms: C_22  and  C_23
REMARK   10  A    between atoms: C_24  and  C_25
REMARK   11  A    between atoms: C_28  and  O_31
REMARK   12  A    between atoms: C_35  and  O_36
REMARK   13  A    between atoms: C_37  and  O_38
REMARK   14  A    between atoms: C_45  and  O_46
REMARK                            x       y       z     vdW  Elec       q    Type
REMARK                         _______ _______ _______ _____ _____    ______ ____
ROOT
ATOM      1  C   LIG A   1      -5.458   0.284 131.547  0.00  0.00    +0.199 C 
ATOM      2  O   LIG A   1      -4.674   1.407 131.997  0.00  0.00    -0.360 OA
ATOM      3  C   LIG A   1      -3.978   1.121 133.216  0.00  0.00    +0.175 C 
ATOM      4  C   LIG A   1      -2.893   0.066 132.952  0.00  0.00    +0.177 C 
ATOM      5  C   LIG A   1      -3.578  -1.224 132.513  0.00  0.00    +0.189 C 
ATOM      6  C   LIG A   1      -4.590  -0.999 131.369  0.00  0.00    +0.241 C 
ENDROOT
BRANCH   1  14
ATOM      7  C   LIG A   1      -7.886   3.226 123.486  0.00  0.00    +0.162 A 
ATOM      8  C   LIG A   1      -8.477   2.664 124.617  0.00  0.00    +0.096 A 
ATOM      9  C   LIG A   1      -7.680   2.320 125.712  0.00  0.00    +0.143 A 
ATOM     10  O   LIG A   1      -8.324   1.764 126.791  0.00  0.00    -0.454 OA
ATOM     11  C   LIG A   1      -7.578   1.430 127.897  0.00  0.00    +0.146 A 
ATOM     12  C   LIG A   1      -8.277   0.876 128.969  0.00  0.00    +0.093 A 
ATOM     13  C   LIG A   1      -7.598   0.513 130.139  0.00  0.00    +0.130 A 
ATOM     14  C   LIG A   1      -6.210   0.689 130.276  0.00  0.00    +0.068 A 
ATOM     15  C   LIG A   1      -5.524   1.248 129.177  0.00  0.00    +0.141 A 
ATOM     16  C   LIG A   1      -6.203   1.610 127.998  0.00  0.00    +0.106 A 
ATOM     17  C   LIG A   1      -5.499   2.176 126.836  0.00  0.00    +0.204 A 
ATOM     18  O   LIG A   1      -4.281   2.325 126.852  0.00  0.00    -0.286 OA
ATOM     19  C   LIG A   1      -6.306   2.546 125.666  0.00  0.00    +0.068 A 
ATOM     20  C   LIG A   1      -5.707   3.110 124.533  0.00  0.00    +0.064 A 
ATOM     21  C   LIG A   1      -6.506   3.447 123.444  0.00  0.00    +0.159 A 
BRANCH   7  22
ATOM     22  O   LIG A   1      -8.649   3.567 122.405  0.00  0.00    -0.503 OA
ATOM     23  H   LIG A   1      -9.568   3.296 122.554  0.00  0.00    +0.292 HD
ENDBRANCH   7  22
BRANCH  15  24
ATOM     24  O   LIG A   1      -4.167   1.433 129.285  0.00  0.00    -0.505 OA
ATOM     25  H   LIG A   1      -3.826   1.781 128.429  0.00  0.00    +0.292 HD
ENDBRANCH  15  24
BRANCH  13  26
ATOM     26  O   LIG A   1      -8.310  -0.028 131.174  0.00  0.00    -0.506 OA
ATOM     27  H   LIG A   1      -9.259   0.000 130.964  0.00  0.00    +0.292 HD
ENDBRANCH  13  26
BRANCH  21  28
ATOM     28  O   LIG A   1      -5.952   3.997 122.323  0.00  0.00    -0.503 OA
ATOM     29  H   LIG A   1      -5.214   3.444 122.020  0.00  0.00    +0.292 HD
ENDBRANCH  21  28
ENDBRANCH   1  14
BRANCH   5  30
ATOM     30  O   LIG A   1      -2.573  -2.179 132.113  0.00  0.00    -0.385 OA
ATOM     31  H   LIG A   1      -1.722  -1.743 132.319  0.00  0.00    +0.210 HD
ENDBRANCH   5  30
BRANCH   4  32
ATOM     32  O   LIG A   1      -2.107  -0.249 134.111  0.00  0.00    -0.387 OA
ATOM     33  H   LIG A   1      -1.854  -1.194 134.034  0.00  0.00    +0.210 HD
ENDBRANCH   4  32
BRANCH   6  34
ATOM     34  O   LIG A   1      -5.390  -2.197 131.186  0.00  0.00    -0.453 OA
BRANCH  34  35
ATOM     35  C   LIG A   1      -5.091  -2.974 130.118  0.00  0.00    +0.332 C 
ATOM     36  O   LIG A   1      -4.116  -3.685 129.971  0.00  0.00    -0.246 OA
BRANCH  35  37
ATOM     37  C   LIG A   1      -6.125  -2.754 129.100  0.00  0.00    +0.092 C 
ATOM     38  C   LIG A   1      -5.750  -2.209 127.936  0.00  0.00    +0.015 C 
BRANCH  38  39
ATOM     39  C   LIG A   1      -6.672  -1.867 126.853  0.00  0.00    -0.025 A 
ATOM     40  C   LIG A   1      -6.237  -1.299 125.647  0.00  0.00    +0.011 A 
ATOM     41  C   LIG A   1      -7.147  -1.031 124.623  0.00  0.00    +0.046 A 
ATOM     42  C   LIG A   1      -8.489  -1.344 124.806  0.00  0.00    +0.117 A 
ATOM     43  C   LIG A   1      -8.934  -1.927 125.985  0.00  0.00    +0.046 A 
ATOM     44  C   LIG A   1      -8.025  -2.191 127.007  0.00  0.00    +0.011 A 
BRANCH  42  45
ATOM     45  O   LIG A   1      -9.410  -1.098 123.832  0.00  0.00    -0.507 OA
ATOM     46  H   LIG A   1      -9.210  -1.666 123.071  0.00  0.00    +0.292 HD
ENDBRANCH  42  45
ENDBRANCH  38  39
ENDBRANCH  35  37
ENDBRANCH  34  35
ENDBRANCH   6  34
BRANCH   3  47
ATOM     47  C   LIG A   1      -3.386   2.426 133.752  0.00  0.00    +0.190 C 
BRANCH  47  48
ATOM     48  O   LIG A   1      -3.304   2.414 135.176  0.00  0.00    -0.392 OA
ATOM     49  H   LIG A   1      -3.989   1.795 135.494  0.00  0.00    +0.209 HD
ENDBRANCH  47  48
ENDBRANCH   3  47
TORSDOF 14
ENDMDL
MODEL 7
REMARK VINA RESULT:      -7.4      4.223      7.676
REMARK  Name = NuBBE_369
REMARK  14 active torsions:
REMARK  status: ('A' for Active; 'I' for Inactive)
REMARK    1  A    between atoms: O_1  and  C_2
REMARK    2  A    between atoms: C_8  and  O_39
REMARK    3  A    between atoms: C_9  and  C_10
REMARK    4  A    between atoms: C_13  and  C_35
REMARK    5  A    between atoms: C_15  and  O_34
REMARK    6  A    between atoms: C_17  and  O_33
REMARK    7  A    between atoms: C_19  and  O_21
REMARK    8  A    between atoms: O_21  and  C_22
REMARK    9  A    between atoms: C_22  and  C_23
REMARK   10  A    between atoms: C_24  and  C_25
REMARK   11  A    between atoms: C_28  and  O_31
REMARK   12  A    between atoms: C_35  and  O_36
REMARK   13  A    between atoms: C_37  and  O_38
REMARK   14  A    between atoms: C_45  and  O_46
REMARK                            x       y       z     vdW  Elec       q    Type
REMARK                         _______ _______ _______ _____ _____    ______ ____
ROOT
ATOM      1  C   LIG A   1      -4.533  -2.015 131.586  0.00  0.00    +0.199 C 
ATOM      2  O   LIG A   1      -4.390  -3.158 132.455  0.00  0.00    -0.360 OA
ATOM      3  C   LIG A   1      -3.377  -2.953 133.447  0.00  0.00    +0.175 C 
ATOM      4  C   LIG A   1      -3.833  -1.865 134.430  0.00  0.00    +0.177 C 
ATOM      5  C   LIG A   1      -3.979  -0.555 133.660  0.00  0.00    +0.189 C 
ATOM      6  C   LIG A   1      -4.833  -0.710 132.383  0.00  0.00    +0.241 C 
ENDROOT
BRANCH   1  14
ATOM      7  C   LIG A   1      -9.257  -3.014 124.088  0.00  0.00    +0.162 A 
ATOM      8  C   LIG A   1      -9.384  -3.288 125.449  0.00  0.00    +0.096 A 
ATOM      9  C   LIG A   1      -8.339  -2.961 126.318  0.00  0.00    +0.143 A 
ATOM     10  O   LIG A   1      -8.524  -3.265 127.645  0.00  0.00    -0.454 OA
ATOM     11  C   LIG A   1      -7.528  -2.942 128.536  0.00  0.00    +0.146 A 
ATOM     12  C   LIG A   1      -7.767  -3.261 129.871  0.00  0.00    +0.093 A 
ATOM     13  C   LIG A   1      -6.808  -2.961 130.848  0.00  0.00    +0.130 A 
ATOM     14  C   LIG A   1      -5.591  -2.336 130.526  0.00  0.00    +0.068 A 
ATOM     15  C   LIG A   1      -5.371  -2.025 129.168  0.00  0.00    +0.141 A 
ATOM     16  C   LIG A   1      -6.331  -2.330 128.183  0.00  0.00    +0.106 A 
ATOM     17  C   LIG A   1      -6.108  -2.030 126.759  0.00  0.00    +0.204 A 
ATOM     18  O   LIG A   1      -5.056  -1.523 126.382  0.00  0.00    -0.286 OA
ATOM     19  C   LIG A   1      -7.185  -2.363 125.817  0.00  0.00    +0.068 A 
ATOM     20  C   LIG A   1      -7.052  -2.085 124.451  0.00  0.00    +0.064 A 
ATOM     21  C   LIG A   1      -8.095  -2.415 123.591  0.00  0.00    +0.159 A 
BRANCH   7  22
ATOM     22  O   LIG A   1     -10.267  -3.328 123.222  0.00  0.00    -0.503 OA
ATOM     23  H   LIG A   1     -10.542  -2.533 122.739  0.00  0.00    +0.292 HD
ENDBRANCH   7  22
BRANCH  15  24
ATOM     24  O   LIG A   1      -4.191  -1.413 128.825  0.00  0.00    -0.505 OA
ATOM     25  H   LIG A   1      -3.786  -1.028 129.636  0.00  0.00    +0.292 HD
ENDBRANCH  15  24
BRANCH  13  26
ATOM     26  O   LIG A   1      -7.069  -3.288 132.150  0.00  0.00    -0.506 OA
ATOM     27  H   LIG A   1      -7.846  -2.791 132.460  0.00  0.00    +0.292 HD
ENDBRANCH  13  26
BRANCH  21  28
ATOM     28  O   LIG A   1      -7.996  -2.160 122.252  0.00  0.00    -0.503 OA
ATOM     29  H   LIG A   1      -8.267  -1.245 122.074  0.00  0.00    +0.292 HD
ENDBRANCH  21  28
ENDBRANCH   1  14
BRANCH   5  30
ATOM     30  O   LIG A   1      -4.553   0.442 134.530  0.00  0.00    -0.385 OA
ATOM     31  H   LIG A   1      -4.152   0.267 135.405  0.00  0.00    +0.210 HD
ENDBRANCH   5  30
BRANCH   4  32
ATOM     32  O   LIG A   1      -2.899  -1.625 135.493  0.00  0.00    -0.387 OA
ATOM     33  H   LIG A   1      -2.260  -2.371 135.482  0.00  0.00    +0.210 HD
ENDBRANCH   4  32
BRANCH   6  34
ATOM     34  O   LIG A   1      -4.709   0.486 131.569  0.00  0.00    -0.453 OA
BRANCH  34  35
ATOM     35  C   LIG A   1      -5.816   1.255 131.439  0.00  0.00    +0.332 C 
ATOM     36  O   LIG A   1      -6.579   1.607 132.318  0.00  0.00    -0.246 OA
BRANCH  35  37
ATOM     37  C   LIG A   1      -5.999   1.539 130.011  0.00  0.00    +0.092 C 
ATOM     38  C   LIG A   1      -7.096   1.055 129.413  0.00  0.00    +0.015 C 
BRANCH  38  39
ATOM     39  C   LIG A   1      -7.384   1.195 127.986  0.00  0.00    -0.025 A 
ATOM     40  C   LIG A   1      -6.428   1.654 127.068  0.00  0.00    +0.011 A 
ATOM     41  C   LIG A   1      -6.733   1.728 125.708  0.00  0.00    +0.046 A 
ATOM     42  C   LIG A   1      -7.991   1.331 125.269  0.00  0.00    +0.117 A 
ATOM     43  C   LIG A   1      -8.942   0.854 126.161  0.00  0.00    +0.046 A 
ATOM     44  C   LIG A   1      -8.637   0.783 127.519  0.00  0.00    +0.011 A 
BRANCH  42  45
ATOM     45  O   LIG A   1      -8.330   1.389 123.951  0.00  0.00    -0.507 OA
ATOM     46  H   LIG A   1      -9.149   0.885 123.823  0.00  0.00    +0.292 HD
ENDBRANCH  42  45
ENDBRANCH  38  39
ENDBRANCH  35  37
ENDBRANCH  34  35
ENDBRANCH   6  34
BRANCH   3  47
ATOM     47  C   LIG A   1      -3.116  -4.285 134.152  0.00  0.00    +0.190 C 
BRANCH  47  48
ATOM     48  O   LIG A   1      -1.888  -4.869 133.723  0.00  0.00    -0.392 OA
ATOM     49  H   LIG A   1      -1.243  -4.738 134.445  0.00  0.00    +0.209 HD
ENDBRANCH  47  48
ENDBRANCH   3  47
TORSDOF 14
ENDMDL
MODEL 8
REMARK VINA RESULT:      -7.4      2.099      8.641
REMARK  Name = NuBBE_369
REMARK  14 active torsions:
REMARK  status: ('A' for Active; 'I' for Inactive)
REMARK    1  A    between atoms: O_1  and  C_2
REMARK    2  A    between atoms: C_8  and  O_39
REMARK    3  A    between atoms: C_9  and  C_10
REMARK    4  A    between atoms: C_13  and  C_35
REMARK    5  A    between atoms: C_15  and  O_34
REMARK    6  A    between atoms: C_17  and  O_33
REMARK    7  A    between atoms: C_19  and  O_21
REMARK    8  A    between atoms: O_21  and  C_22
REMARK    9  A    between atoms: C_22  and  C_23
REMARK   10  A    between atoms: C_24  and  C_25
REMARK   11  A    between atoms: C_28  and  O_31
REMARK   12  A    between atoms: C_35  and  O_36
REMARK   13  A    between atoms: C_37  and  O_38
REMARK   14  A    between atoms: C_45  and  O_46
REMARK                            x       y       z     vdW  Elec       q    Type
REMARK                         _______ _______ _______ _____ _____    ______ ____
ROOT
ATOM      1  C   LIG A   1      -8.461   4.038 131.077  0.00  0.00    +0.199 C 
ATOM      2  O   LIG A   1      -9.632   4.541 131.753  0.00  0.00    -0.360 OA
ATOM      3  C   LIG A   1      -9.847   5.932 131.487  0.00  0.00    +0.175 C 
ATOM      4  C   LIG A   1     -10.230   6.120 130.011  0.00  0.00    +0.177 C 
ATOM      5  C   LIG A   1      -9.051   5.675 129.151  0.00  0.00    +0.189 C 
ATOM      6  C   LIG A   1      -8.529   4.274 129.538  0.00  0.00    +0.241 C 
ENDROOT
BRANCH   1  14
ATOM      7  C   LIG A   1      -5.288  -4.011 133.243  0.00  0.00    +0.162 A 
ATOM      8  C   LIG A   1      -6.521  -3.392 133.037  0.00  0.00    +0.096 A 
ATOM      9  C   LIG A   1      -6.564  -2.035 132.709  0.00  0.00    +0.143 A 
ATOM     10  O   LIG A   1      -7.810  -1.485 132.527  0.00  0.00    -0.454 OA
ATOM     11  C   LIG A   1      -7.896  -0.156 132.184  0.00  0.00    +0.146 A 
ATOM     12  C   LIG A   1      -9.181   0.353 132.003  0.00  0.00    +0.093 A 
ATOM     13  C   LIG A   1      -9.361   1.695 131.644  0.00  0.00    +0.130 A 
ATOM     14  C   LIG A   1      -8.273   2.566 131.457  0.00  0.00    +0.068 A 
ATOM     15  C   LIG A   1      -6.983   2.028 131.649  0.00  0.00    +0.141 A 
ATOM     16  C   LIG A   1      -6.799   0.681 132.014  0.00  0.00    +0.106 A 
ATOM     17  C   LIG A   1      -5.460   0.110 132.238  0.00  0.00    +0.204 A 
ATOM     18  O   LIG A   1      -4.456   0.808 132.138  0.00  0.00    -0.286 OA
ATOM     19  C   LIG A   1      -5.378  -1.314 132.587  0.00  0.00    +0.068 A 
ATOM     20  C   LIG A   1      -4.137  -1.930 132.792  0.00  0.00    +0.064 A 
ATOM     21  C   LIG A   1      -4.101  -3.283 133.122  0.00  0.00    +0.159 A 
BRANCH   7  22
ATOM     22  O   LIG A   1      -5.226  -5.337 133.566  0.00  0.00    -0.503 OA
ATOM     23  H   LIG A   1      -5.709  -5.496 134.392  0.00  0.00    +0.292 HD
ENDBRANCH   7  22
BRANCH  15  24
ATOM     24  O   LIG A   1      -5.901   2.856 131.471  0.00  0.00    -0.505 OA
ATOM     25  H   LIG A   1      -6.194   3.789 131.590  0.00  0.00    +0.292 HD
ENDBRANCH  15  24
BRANCH  13  26
ATOM     26  O   LIG A   1     -10.633   2.167 131.474  0.00  0.00    -0.506 OA
ATOM     27  H   LIG A   1     -10.648   3.125 131.639  0.00  0.00    +0.292 HD
ENDBRANCH  13  26
BRANCH  21  28
ATOM     28  O   LIG A   1      -2.907  -3.912 133.331  0.00  0.00    -0.503 OA
ATOM     29  H   LIG A   1      -2.720  -4.510 132.590  0.00  0.00    +0.292 HD
ENDBRANCH  21  28
ENDBRANCH   1  14
BRANCH   5  30
ATOM     30  O   LIG A   1      -9.445   5.698 127.763  0.00  0.00    -0.385 OA
ATOM     31  H   LIG A   1      -9.388   4.765 127.474  0.00  0.00    +0.210 HD
ENDBRANCH   5  30
BRANCH   4  32
ATOM     32  O   LIG A   1     -10.515   7.483 129.662  0.00  0.00    -0.387 OA
ATOM     33  H   LIG A   1     -10.597   7.514 128.684  0.00  0.00    +0.210 HD
ENDBRANCH   4  32
BRANCH   6  34
ATOM     34  O   LIG A   1      -7.260   4.030 128.877  0.00  0.00    -0.453 OA
BRANCH  34  35
ATOM     35  C   LIG A   1      -7.280   3.210 127.798  0.00  0.00    +0.332 C 
ATOM     36  O   LIG A   1      -7.827   3.407 126.731  0.00  0.00    -0.246 OA
BRANCH  35  37
ATOM     37  C   LIG A   1      -6.582   1.972 128.164  0.00  0.00    +0.092 C 
ATOM     38  C   LIG A   1      -7.300   0.844 128.222  0.00  0.00    +0.015 C 
BRANCH  38  39
ATOM     39  C   LIG A   1      -6.762  -0.452 128.635  0.00  0.00    -0.025 A 
ATOM     40  C   LIG A   1      -7.583  -1.562 128.882  0.00  0.00    +0.011 A 
ATOM     41  C   LIG A   1      -7.023  -2.792 129.230  0.00  0.00    +0.046 A 
ATOM     42  C   LIG A   1      -5.641  -2.911 129.319  0.00  0.00    +0.117 A 
ATOM     43  C   LIG A   1      -4.812  -1.828 129.057  0.00  0.00    +0.046 A 
ATOM     44  C   LIG A   1      -5.372  -0.600 128.712  0.00  0.00    +0.011 A 
BRANCH  42  45
ATOM     45  O   LIG A   1      -5.054  -4.093 129.657  0.00  0.00    -0.507 OA
ATOM     46  H   LIG A   1      -5.753  -4.750 129.804  0.00  0.00    +0.292 HD
ENDBRANCH  42  45
ENDBRANCH  38  39
ENDBRANCH  35  37
ENDBRANCH  34  35
ENDBRANCH   6  34
BRANCH   3  47
ATOM     47  C   LIG A   1     -10.940   6.441 132.428  0.00  0.00    +0.190 C 
BRANCH  47  48
ATOM     48  O   LIG A   1     -12.239   6.225 131.882  0.00  0.00    -0.392 OA
ATOM     49  H   LIG A   1     -12.138   5.578 131.157  0.00  0.00    +0.209 HD
ENDBRANCH  47  48
ENDBRANCH   3  47
TORSDOF 14
ENDMDL
MODEL 9
REMARK VINA RESULT:      -7.2      4.492      7.369
REMARK  Name = NuBBE_369
REMARK  14 active torsions:
REMARK  status: ('A' for Active; 'I' for Inactive)
REMARK    1  A    between atoms: O_1  and  C_2
REMARK    2  A    between atoms: C_8  and  O_39
REMARK    3  A    between atoms: C_9  and  C_10
REMARK    4  A    between atoms: C_13  and  C_35
REMARK    5  A    between atoms: C_15  and  O_34
REMARK    6  A    between atoms: C_17  and  O_33
REMARK    7  A    between atoms: C_19  and  O_21
REMARK    8  A    between atoms: O_21  and  C_22
REMARK    9  A    between atoms: C_22  and  C_23
REMARK   10  A    between atoms: C_24  and  C_25
REMARK   11  A    between atoms: C_28  and  O_31
REMARK   12  A    between atoms: C_35  and  O_36
REMARK   13  A    between atoms: C_37  and  O_38
REMARK   14  A    between atoms: C_45  and  O_46
REMARK                            x       y       z     vdW  Elec       q    Type
REMARK                         _______ _______ _______ _____ _____    ______ ____
ROOT
ATOM      1  C   LIG A   1      -5.124  -2.952 132.659  0.00  0.00    +0.199 C 
ATOM      2  O   LIG A   1      -5.882  -4.118 133.043  0.00  0.00    -0.360 OA
ATOM      3  C   LIG A   1      -5.797  -4.372 134.450  0.00  0.00    +0.175 C 
ATOM      4  C   LIG A   1      -6.524  -3.259 135.218  0.00  0.00    +0.177 C 
ATOM      5  C   LIG A   1      -5.796  -1.944 134.956  0.00  0.00    +0.189 C 
ATOM      6  C   LIG A   1      -5.565  -1.683 133.451  0.00  0.00    +0.241 C 
ENDROOT
BRANCH   1  14
ATOM      7  C   LIG A   1      -7.733  -2.518 124.142  0.00  0.00    +0.162 A 
ATOM      8  C   LIG A   1      -6.574  -2.323 124.893  0.00  0.00    +0.096 A 
ATOM      9  C   LIG A   1      -6.615  -2.493 126.280  0.00  0.00    +0.143 A 
ATOM     10  O   LIG A   1      -5.442  -2.278 126.961  0.00  0.00    -0.454 OA
ATOM     11  C   LIG A   1      -5.435  -2.454 128.325  0.00  0.00    +0.146 A 
ATOM     12  C   LIG A   1      -4.219  -2.233 128.970  0.00  0.00    +0.093 A 
ATOM     13  C   LIG A   1      -4.120  -2.396 130.357  0.00  0.00    +0.130 A 
ATOM     14  C   LIG A   1      -5.222  -2.783 131.140  0.00  0.00    +0.068 A 
ATOM     15  C   LIG A   1      -6.442  -2.998 130.465  0.00  0.00    +0.141 A 
ATOM     16  C   LIG A   1      -6.546  -2.830 129.071  0.00  0.00    +0.106 A 
ATOM     17  C   LIG A   1      -7.817  -3.031 128.355  0.00  0.00    +0.204 A 
ATOM     18  O   LIG A   1      -8.839  -3.329 128.964  0.00  0.00    -0.286 OA
ATOM     19  C   LIG A   1      -7.810  -2.858 126.896  0.00  0.00    +0.068 A 
ATOM     20  C   LIG A   1      -8.976  -3.055 126.147  0.00  0.00    +0.064 A 
ATOM     21  C   LIG A   1      -8.929  -2.882 124.767  0.00  0.00    +0.159 A 
BRANCH   7  22
ATOM     22  O   LIG A   1      -7.712  -2.355 122.785  0.00  0.00    -0.503 OA
ATOM     23  H   LIG A   1      -7.068  -2.964 122.392  0.00  0.00    +0.292 HD
ENDBRANCH   7  22
BRANCH  15  24
ATOM     24  O   LIG A   1      -7.535  -3.378 131.205  0.00  0.00    -0.505 OA
ATOM     25  H   LIG A   1      -8.128  -2.600 131.316  0.00  0.00    +0.292 HD
ENDBRANCH  15  24
BRANCH  13  26
ATOM     26  O   LIG A   1      -2.914  -2.171 130.963  0.00  0.00    -0.506 OA
ATOM     27  H   LIG A   1      -3.041  -2.112 131.925  0.00  0.00    +0.292 HD
ENDBRANCH  13  26
BRANCH  21  28
ATOM     28  O   LIG A   1     -10.051  -3.064 124.008  0.00  0.00    -0.503 OA
ATOM     29  H   LIG A   1      -9.831  -3.591 123.223  0.00  0.00    +0.292 HD
ENDBRANCH  21  28
ENDBRANCH   1  14
BRANCH   5  30
ATOM     30  O   LIG A   1      -6.550  -0.863 135.542  0.00  0.00    -0.385 OA
ATOM     31  H   LIG A   1      -6.918  -1.237 136.368  0.00  0.00    +0.210 HD
ENDBRANCH   5  30
BRANCH   4  32
ATOM     32  O   LIG A   1      -6.534  -3.457 136.640  0.00  0.00    -0.387 OA
ATOM     33  H   LIG A   1      -5.755  -2.978 136.999  0.00  0.00    +0.210 HD
ENDBRANCH   4  32
BRANCH   6  34
ATOM     34  O   LIG A   1      -4.646  -0.572 133.287  0.00  0.00    -0.453 OA
BRANCH  34  35
ATOM     35  C   LIG A   1      -5.190   0.632 132.987  0.00  0.00    +0.332 C 
ATOM     36  O   LIG A   1      -5.652   1.447 133.761  0.00  0.00    -0.246 OA
BRANCH  35  37
ATOM     37  C   LIG A   1      -5.204   0.765 131.526  0.00  0.00    +0.092 C 
ATOM     38  C   LIG A   1      -6.394   0.801 130.913  0.00  0.00    +0.015 C 
BRANCH  38  39
ATOM     39  C   LIG A   1      -6.571   0.862 129.463  0.00  0.00    -0.025 A 
ATOM     40  C   LIG A   1      -7.819   0.683 128.849  0.00  0.00    +0.011 A 
ATOM     41  C   LIG A   1      -7.949   0.796 127.464  0.00  0.00    +0.046 A 
ATOM     42  C   LIG A   1      -6.829   1.100 126.697  0.00  0.00    +0.117 A 
ATOM     43  C   LIG A   1      -5.590   1.302 127.290  0.00  0.00    +0.046 A 
ATOM     44  C   LIG A   1      -5.461   1.187 128.672  0.00  0.00    +0.011 A 
BRANCH  42  45
ATOM     45  O   LIG A   1      -6.912   1.218 125.343  0.00  0.00    -0.507 OA
ATOM     46  H   LIG A   1      -6.360   0.528 124.941  0.00  0.00    +0.292 HD
ENDBRANCH  42  45
ENDBRANCH  38  39
ENDBRANCH  35  37
ENDBRANCH  34  35
ENDBRANCH   6  34
BRANCH   3  47
ATOM     47  C   LIG A   1      -6.406  -5.748 134.729  0.00  0.00    +0.190 C 
BRANCH  47  48
ATOM     48  O   LIG A   1      -5.940  -6.282 135.967  0.00  0.00    -0.392 OA
ATOM     49  H   LIG A   1      -6.612  -6.921 136.271  0.00  0.00    +0.209 HD
ENDBRANCH  47  48
ENDBRANCH   3  47
TORSDOF 14
ENDMDL
