MODEL 1
REMARK VINA RESULT:      -6.7      0.000      0.000
REMARK  Name = NuBBE_1913
REMARK  7 active torsions:
REMARK  status: ('A' for Active; 'I' for Inactive)
REMARK    1  A    between atoms: C_1  and  O_2
REMARK    2  A    between atoms: O_2  and  C_3
REMARK    3  A    between atoms: C_4  and  O_5
REMARK    4  A    between atoms: C_6  and  O_7
REMARK    5  A    between atoms: C_14  and  O_15
REMARK    6  A    between atoms: O_15  and  C_16
REMARK    7  A    between atoms: C_17  and  O_18
REMARK                            x       y       z     vdW  Elec       q    Type
REMARK                         _______ _______ _______ _____ _____    ______ ____
ROOT
ATOM      1  C   LIG A   1      -8.160   3.074 130.333  0.00  0.00    +0.179 A 
ATOM      2  C   LIG A   1      -7.643   2.313 131.395  0.00  0.00    +0.202 A 
ATOM      3  C   LIG A   1      -8.007   2.556 132.716  0.00  0.00    +0.166 A 
ATOM      4  C   LIG A   1      -8.877   3.584 133.024  0.00  0.00    +0.096 A 
ATOM      5  C   LIG A   1      -9.369   4.386 131.991  0.00  0.00    +0.146 A 
ATOM      6  O   LIG A   1     -10.223   5.390 132.392  0.00  0.00    -0.454 OA
ATOM      7  C   LIG A   1     -10.936   6.045 131.424  0.00  0.00    +0.143 A 
ATOM      8  C   LIG A   1     -12.000   6.837 131.848  0.00  0.00    +0.051 A 
ATOM      9  C   LIG A   1     -12.780   7.522 130.909  0.00  0.00    +0.053 A 
ATOM     10  C   LIG A   1     -12.502   7.417 129.541  0.00  0.00    +0.162 A 
ATOM     11  C   LIG A   1     -11.404   6.654 129.126  0.00  0.00    +0.173 A 
ATOM     12  C   LIG A   1     -10.631   5.971 130.072  0.00  0.00    +0.110 A 
ATOM     13  C   LIG A   1      -8.990   4.160 130.653  0.00  0.00    +0.110 A 
ATOM     14  C   LIG A   1      -9.473   5.167 129.690  0.00  0.00    +0.207 A 
ATOM     15  O   LIG A   1      -8.948   5.382 128.598  0.00  0.00    -0.286 OA
ENDROOT
BRANCH   1  17
ATOM     16  C   LIG A   1      -8.637   1.833 128.339  0.00  0.00    +0.277 C 
ATOM     17  O   LIG A   1      -7.741   2.641 129.102  0.00  0.00    -0.490 OA
ENDBRANCH   1  17
BRANCH   2  18
ATOM     18  O   LIG A   1      -6.746   1.298 131.169  0.00  0.00    -0.501 OA
ATOM     19  H   LIG A   1      -7.248   0.473 131.330  0.00  0.00    +0.292 HD
ENDBRANCH   2  18
BRANCH   3  20
ATOM     20  O   LIG A   1      -7.513   1.780 133.723  0.00  0.00    -0.503 OA
ATOM     21  H   LIG A   1      -6.697   2.235 134.016  0.00  0.00    +0.292 HD
ENDBRANCH   3  20
BRANCH  10  22
ATOM     22  O   LIG A   1     -13.212   8.063 128.564  0.00  0.00    -0.491 OA
ATOM     23  C   LIG A   1     -13.315   9.474 128.703  0.00  0.00    +0.277 C 
ENDBRANCH  10  22
BRANCH  11  24
ATOM     24  O   LIG A   1     -11.130   6.571 127.781  0.00  0.00    -0.503 OA
ATOM     25  H   LIG A   1     -11.743   7.176 127.308  0.00  0.00    +0.292 HD
ENDBRANCH  11  24
TORSDOF 5
ENDMDL
MODEL 2
REMARK VINA RESULT:      -6.7      7.846     10.255
REMARK  Name = NuBBE_1913
REMARK  7 active torsions:
REMARK  status: ('A' for Active; 'I' for Inactive)
REMARK    1  A    between atoms: C_1  and  O_2
REMARK    2  A    between atoms: O_2  and  C_3
REMARK    3  A    between atoms: C_4  and  O_5
REMARK    4  A    between atoms: C_6  and  O_7
REMARK    5  A    between atoms: C_14  and  O_15
REMARK    6  A    between atoms: O_15  and  C_16
REMARK    7  A    between atoms: C_17  and  O_18
REMARK                            x       y       z     vdW  Elec       q    Type
REMARK                         _______ _______ _______ _____ _____    ______ ____
ROOT
ATOM      1  C   LIG A   1      -6.695   4.011 120.386  0.00  0.00    +0.179 A 
ATOM      2  C   LIG A   1      -5.633   4.915 120.216  0.00  0.00    +0.202 A 
ATOM      3  C   LIG A   1      -4.758   5.219 121.254  0.00  0.00    +0.166 A 
ATOM      4  C   LIG A   1      -4.929   4.655 122.503  0.00  0.00    +0.096 A 
ATOM      5  C   LIG A   1      -6.006   3.790 122.711  0.00  0.00    +0.146 A 
ATOM      6  O   LIG A   1      -6.104   3.281 123.987  0.00  0.00    -0.454 OA
ATOM      7  C   LIG A   1      -6.970   2.241 124.196  0.00  0.00    +0.143 A 
ATOM      8  C   LIG A   1      -6.848   1.545 125.395  0.00  0.00    +0.051 A 
ATOM      9  C   LIG A   1      -7.691   0.461 125.664  0.00  0.00    +0.053 A 
ATOM     10  C   LIG A   1      -8.660   0.066 124.735  0.00  0.00    +0.162 A 
ATOM     11  C   LIG A   1      -8.807   0.798 123.551  0.00  0.00    +0.173 A 
ATOM     12  C   LIG A   1      -7.957   1.879 123.289  0.00  0.00    +0.110 A 
ATOM     13  C   LIG A   1      -6.909   3.491 121.672  0.00  0.00    +0.110 A 
ATOM     14  C   LIG A   1      -8.073   2.678 122.071  0.00  0.00    +0.207 A 
ATOM     15  O   LIG A   1      -9.137   2.649 121.454  0.00  0.00    -0.286 OA
ENDROOT
BRANCH   1  17
ATOM     16  C   LIG A   1      -8.611   4.522 119.039  0.00  0.00    +0.277 C 
ATOM     17  O   LIG A   1      -7.403   3.785 119.234  0.00  0.00    -0.490 OA
ENDBRANCH   1  17
BRANCH   2  18
ATOM     18  O   LIG A   1      -5.421   5.542 119.013  0.00  0.00    -0.501 OA
ATOM     19  H   LIG A   1      -4.491   5.343 118.781  0.00  0.00    +0.292 HD
ENDBRANCH   2  18
BRANCH   3  20
ATOM     20  O   LIG A   1      -3.716   6.077 121.049  0.00  0.00    -0.503 OA
ATOM     21  H   LIG A   1      -3.846   6.793 121.704  0.00  0.00    +0.292 HD
ENDBRANCH   3  20
BRANCH  10  22
ATOM     22  O   LIG A   1      -9.528  -0.976 124.930  0.00  0.00    -0.491 OA
ATOM     23  C   LIG A   1      -9.133  -1.938 125.900  0.00  0.00    +0.277 C 
ENDBRANCH  10  22
BRANCH  11  24
ATOM     24  O   LIG A   1      -9.773   0.412 122.653  0.00  0.00    -0.503 OA
ATOM     25  H   LIG A   1      -9.457  -0.397 122.195  0.00  0.00    +0.292 HD
ENDBRANCH  11  24
TORSDOF 5
ENDMDL
MODEL 3
REMARK VINA RESULT:      -6.7      2.275      2.315
REMARK  Name = NuBBE_1913
REMARK  7 active torsions:
REMARK  status: ('A' for Active; 'I' for Inactive)
REMARK    1  A    between atoms: C_1  and  O_2
REMARK    2  A    between atoms: O_2  and  C_3
REMARK    3  A    between atoms: C_4  and  O_5
REMARK    4  A    between atoms: C_6  and  O_7
REMARK    5  A    between atoms: C_14  and  O_15
REMARK    6  A    between atoms: O_15  and  C_16
REMARK    7  A    between atoms: C_17  and  O_18
REMARK                            x       y       z     vdW  Elec       q    Type
REMARK                         _______ _______ _______ _____ _____    ______ ____
ROOT
ATOM      1  C   LIG A   1      -6.532   5.385 131.801  0.00  0.00    +0.179 A 
ATOM      2  C   LIG A   1      -6.131   4.520 132.833  0.00  0.00    +0.202 A 
ATOM      3  C   LIG A   1      -7.029   4.048 133.784  0.00  0.00    +0.166 A 
ATOM      4  C   LIG A   1      -8.352   4.446 133.756  0.00  0.00    +0.096 A 
ATOM      5  C   LIG A   1      -8.766   5.343 132.769  0.00  0.00    +0.146 A 
ATOM      6  O   LIG A   1     -10.099   5.690 132.822  0.00  0.00    -0.454 OA
ATOM      7  C   LIG A   1     -10.629   6.354 131.749  0.00  0.00    +0.143 A 
ATOM      8  C   LIG A   1     -12.017   6.436 131.676  0.00  0.00    +0.051 A 
ATOM      9  C   LIG A   1     -12.624   7.087 130.597  0.00  0.00    +0.053 A 
ATOM     10  C   LIG A   1     -11.847   7.659 129.583  0.00  0.00    +0.162 A 
ATOM     11  C   LIG A   1     -10.452   7.612 129.685  0.00  0.00    +0.173 A 
ATOM     12  C   LIG A   1      -9.853   6.957 130.767  0.00  0.00    +0.110 A 
ATOM     13  C   LIG A   1      -7.860   5.842 131.813  0.00  0.00    +0.110 A 
ATOM     14  C   LIG A   1      -8.402   6.885 130.923  0.00  0.00    +0.207 A 
ATOM     15  O   LIG A   1      -7.710   7.705 130.322  0.00  0.00    -0.286 OA
ENDROOT
BRANCH   1  17
ATOM     16  C   LIG A   1      -5.500   4.987 129.675  0.00  0.00    +0.277 C 
ATOM     17  O   LIG A   1      -5.524   5.684 130.921  0.00  0.00    -0.490 OA
ENDBRANCH   1  17
BRANCH   2  18
ATOM     18  O   LIG A   1      -4.824   4.110 132.946  0.00  0.00    -0.501 OA
ATOM     19  H   LIG A   1      -4.753   3.730 133.845  0.00  0.00    +0.292 HD
ENDBRANCH   2  18
BRANCH   3  20
ATOM     20  O   LIG A   1      -6.616   3.184 134.756  0.00  0.00    -0.503 OA
ATOM     21  H   LIG A   1      -6.414   2.350 134.284  0.00  0.00    +0.292 HD
ENDBRANCH   3  20
BRANCH  10  22
ATOM     22  O   LIG A   1     -12.366   8.321 128.502  0.00  0.00    -0.491 OA
ATOM     23  C   LIG A   1     -13.158   9.466 128.797  0.00  0.00    +0.277 C 
ENDBRANCH  10  22
BRANCH  11  24
ATOM     24  O   LIG A   1      -9.699   8.193 128.693  0.00  0.00    -0.503 OA
ATOM     25  H   LIG A   1      -9.885   9.157 128.694  0.00  0.00    +0.292 HD
ENDBRANCH  11  24
TORSDOF 5
ENDMDL
MODEL 4
REMARK VINA RESULT:      -6.5      2.580      6.013
REMARK  Name = NuBBE_1913
REMARK  7 active torsions:
REMARK  status: ('A' for Active; 'I' for Inactive)
REMARK    1  A    between atoms: C_1  and  O_2
REMARK    2  A    between atoms: O_2  and  C_3
REMARK    3  A    between atoms: C_4  and  O_5
REMARK    4  A    between atoms: C_6  and  O_7
REMARK    5  A    between atoms: C_14  and  O_15
REMARK    6  A    between atoms: O_15  and  C_16
REMARK    7  A    between atoms: C_17  and  O_18
REMARK                            x       y       z     vdW  Elec       q    Type
REMARK                         _______ _______ _______ _____ _____    ______ ____
ROOT
ATOM      1  C   LIG A   1     -11.056   6.429 129.201  0.00  0.00    +0.179 A 
ATOM      2  C   LIG A   1     -12.270   6.810 129.797  0.00  0.00    +0.202 A 
ATOM      3  C   LIG A   1     -12.408   6.911 131.177  0.00  0.00    +0.166 A 
ATOM      4  C   LIG A   1     -11.349   6.607 132.011  0.00  0.00    +0.096 A 
ATOM      5  C   LIG A   1     -10.145   6.180 131.445  0.00  0.00    +0.146 A 
ATOM      6  O   LIG A   1      -9.148   5.892 132.351  0.00  0.00    -0.454 OA
ATOM      7  C   LIG A   1      -7.878   5.717 131.869  0.00  0.00    +0.143 A 
ATOM      8  C   LIG A   1      -6.841   5.725 132.797  0.00  0.00    +0.051 A 
ATOM      9  C   LIG A   1      -5.518   5.567 132.370  0.00  0.00    +0.053 A 
ATOM     10  C   LIG A   1      -5.224   5.403 131.011  0.00  0.00    +0.162 A 
ATOM     11  C   LIG A   1      -6.276   5.352 130.088  0.00  0.00    +0.173 A 
ATOM     12  C   LIG A   1      -7.596   5.513 130.525  0.00  0.00    +0.110 A 
ATOM     13  C   LIG A   1     -10.002   6.056 130.049  0.00  0.00    +0.110 A 
ATOM     14  C   LIG A   1      -8.728   5.462 129.603  0.00  0.00    +0.207 A 
ATOM     15  O   LIG A   1      -8.569   4.912 128.514  0.00  0.00    -0.286 OA
ENDROOT
BRANCH   1  17
ATOM     16  C   LIG A   1     -10.649   7.643 127.175  0.00  0.00    +0.277 C 
ATOM     17  O   LIG A   1     -11.094   6.455 127.831  0.00  0.00    -0.490 OA
ENDBRANCH   1  17
BRANCH   2  18
ATOM     18  O   LIG A   1     -13.377   7.092 129.034  0.00  0.00    -0.501 OA
ATOM     19  H   LIG A   1     -14.015   6.377 129.235  0.00  0.00    +0.292 HD
ENDBRANCH   2  18
BRANCH   3  20
ATOM     20  O   LIG A   1     -13.591   7.314 131.726  0.00  0.00    -0.503 OA
ATOM     21  H   LIG A   1     -13.459   7.241 132.693  0.00  0.00    +0.292 HD
ENDBRANCH   3  20
BRANCH  10  22
ATOM     22  O   LIG A   1      -3.959   5.233 130.516  0.00  0.00    -0.491 OA
ATOM     23  C   LIG A   1      -3.046   6.295 130.768  0.00  0.00    +0.277 C 
ENDBRANCH  10  22
BRANCH  11  24
ATOM     24  O   LIG A   1      -5.977   5.173 128.758  0.00  0.00    -0.503 OA
ATOM     25  H   LIG A   1      -6.375   4.322 128.469  0.00  0.00    +0.292 HD
ENDBRANCH  11  24
TORSDOF 5
ENDMDL
MODEL 5
REMARK VINA RESULT:      -6.5      3.898      5.083
REMARK  Name = NuBBE_1913
REMARK  7 active torsions:
REMARK  status: ('A' for Active; 'I' for Inactive)
REMARK    1  A    between atoms: C_1  and  O_2
REMARK    2  A    between atoms: O_2  and  C_3
REMARK    3  A    between atoms: C_4  and  O_5
REMARK    4  A    between atoms: C_6  and  O_7
REMARK    5  A    between atoms: C_14  and  O_15
REMARK    6  A    between atoms: O_15  and  C_16
REMARK    7  A    between atoms: C_17  and  O_18
REMARK                            x       y       z     vdW  Elec       q    Type
REMARK                         _______ _______ _______ _____ _____    ______ ____
ROOT
ATOM      1  C   LIG A   1      -5.171   5.916 133.452  0.00  0.00    +0.179 A 
ATOM      2  C   LIG A   1      -3.883   6.347 133.090  0.00  0.00    +0.202 A 
ATOM      3  C   LIG A   1      -3.645   7.019 131.895  0.00  0.00    +0.166 A 
ATOM      4  C   LIG A   1      -4.677   7.259 131.009  0.00  0.00    +0.096 A 
ATOM      5  C   LIG A   1      -5.958   6.799 131.323  0.00  0.00    +0.146 A 
ATOM      6  O   LIG A   1      -6.922   7.076 130.379  0.00  0.00    -0.454 OA
ATOM      7  C   LIG A   1      -8.232   6.886 130.730  0.00  0.00    +0.143 A 
ATOM      8  C   LIG A   1      -9.199   7.441 129.895  0.00  0.00    +0.051 A 
ATOM      9  C   LIG A   1     -10.556   7.297 130.204  0.00  0.00    +0.053 A 
ATOM     10  C   LIG A   1     -10.955   6.599 131.350  0.00  0.00    +0.162 A 
ATOM     11  C   LIG A   1      -9.979   6.006 132.160  0.00  0.00    +0.173 A 
ATOM     12  C   LIG A   1      -8.624   6.157 131.845  0.00  0.00    +0.110 A 
ATOM     13  C   LIG A   1      -6.206   6.100 132.521  0.00  0.00    +0.110 A 
ATOM     14  C   LIG A   1      -7.569   5.554 132.655  0.00  0.00    +0.207 A 
ATOM     15  O   LIG A   1      -7.864   4.612 133.389  0.00  0.00    -0.286 OA
ENDROOT
BRANCH   1  17
ATOM     16  C   LIG A   1      -5.665   6.141 135.787  0.00  0.00    +0.277 C 
ATOM     17  O   LIG A   1      -5.219   5.338 134.694  0.00  0.00    -0.490 OA
ENDBRANCH   1  17
BRANCH   2  18
ATOM     18  O   LIG A   1      -2.802   6.113 133.904  0.00  0.00    -0.501 OA
ATOM     19  H   LIG A   1      -3.066   6.455 134.783  0.00  0.00    +0.292 HD
ENDBRANCH   2  18
BRANCH   3  20
ATOM     20  O   LIG A   1      -2.389   7.453 131.586  0.00  0.00    -0.503 OA
ATOM     21  H   LIG A   1      -2.463   8.428 131.538  0.00  0.00    +0.292 HD
ENDBRANCH   3  20
BRANCH  10  22
ATOM     22  O   LIG A   1     -12.261   6.408 131.713  0.00  0.00    -0.491 OA
ATOM     23  C   LIG A   1     -13.141   7.497 131.464  0.00  0.00    +0.277 C 
ENDBRANCH  10  22
BRANCH  11  24
ATOM     24  O   LIG A   1     -10.383   5.309 133.273  0.00  0.00    -0.503 OA
ATOM     25  H   LIG A   1      -9.786   5.548 134.016  0.00  0.00    +0.292 HD
ENDBRANCH  11  24
TORSDOF 5
ENDMDL
MODEL 6
REMARK VINA RESULT:      -6.3      7.101      9.518
REMARK  Name = NuBBE_1913
REMARK  7 active torsions:
REMARK  status: ('A' for Active; 'I' for Inactive)
REMARK    1  A    between atoms: C_1  and  O_2
REMARK    2  A    between atoms: O_2  and  C_3
REMARK    3  A    between atoms: C_4  and  O_5
REMARK    4  A    between atoms: C_6  and  O_7
REMARK    5  A    between atoms: C_14  and  O_15
REMARK    6  A    between atoms: O_15  and  C_16
REMARK    7  A    between atoms: C_17  and  O_18
REMARK                            x       y       z     vdW  Elec       q    Type
REMARK                         _______ _______ _______ _____ _____    ______ ____
ROOT
ATOM      1  C   LIG A   1      -6.343   2.525 124.499  0.00  0.00    +0.179 A 
ATOM      2  C   LIG A   1      -6.954   3.308 123.505  0.00  0.00    +0.202 A 
ATOM      3  C   LIG A   1      -8.106   2.888 122.847  0.00  0.00    +0.166 A 
ATOM      4  C   LIG A   1      -8.671   1.662 123.140  0.00  0.00    +0.096 A 
ATOM      5  C   LIG A   1      -8.057   0.844 124.091  0.00  0.00    +0.146 A 
ATOM      6  O   LIG A   1      -8.685  -0.361 124.313  0.00  0.00    -0.454 OA
ATOM      7  C   LIG A   1      -8.293  -1.095 125.400  0.00  0.00    +0.143 A 
ATOM      8  C   LIG A   1      -9.119  -2.148 125.785  0.00  0.00    +0.051 A 
ATOM      9  C   LIG A   1      -8.785  -2.928 126.898  0.00  0.00    +0.053 A 
ATOM     10  C   LIG A   1      -7.624  -2.659 127.633  0.00  0.00    +0.162 A 
ATOM     11  C   LIG A   1      -6.776  -1.627 127.213  0.00  0.00    +0.173 A 
ATOM     12  C   LIG A   1      -7.120  -0.851 126.100  0.00  0.00    +0.110 A 
ATOM     13  C   LIG A   1      -6.879   1.252 124.748  0.00  0.00    +0.110 A 
ATOM     14  C   LIG A   1      -6.266   0.233 125.619  0.00  0.00    +0.207 A 
ATOM     15  O   LIG A   1      -5.080   0.230 125.947  0.00  0.00    -0.286 OA
ENDROOT
BRANCH   1  17
ATOM     16  C   LIG A   1      -5.452   3.757 126.352  0.00  0.00    +0.277 C 
ATOM     17  O   LIG A   1      -5.262   3.136 125.081  0.00  0.00    -0.490 OA
ENDBRANCH   1  17
BRANCH   2  18
ATOM     18  O   LIG A   1      -6.428   4.522 123.135  0.00  0.00    -0.501 OA
ATOM     19  H   LIG A   1      -7.023   5.189 123.534  0.00  0.00    +0.292 HD
ENDBRANCH   2  18
BRANCH   3  20
ATOM     20  O   LIG A   1      -8.693   3.684 121.908  0.00  0.00    -0.503 OA
ATOM     21  H   LIG A   1      -9.353   3.111 121.467  0.00  0.00    +0.292 HD
ENDBRANCH   3  20
BRANCH  10  22
ATOM     22  O   LIG A   1      -7.225  -3.383 128.725  0.00  0.00    -0.491 OA
ATOM     23  C   LIG A   1      -7.917  -3.108 129.937  0.00  0.00    +0.277 C 
ENDBRANCH  10  22
BRANCH  11  24
ATOM     24  O   LIG A   1      -5.630  -1.383 127.932  0.00  0.00    -0.503 OA
ATOM     25  H   LIG A   1      -5.881  -0.899 128.749  0.00  0.00    +0.292 HD
ENDBRANCH  11  24
TORSDOF 5
ENDMDL
MODEL 7
REMARK VINA RESULT:      -6.3      6.810      8.694
REMARK  Name = NuBBE_1913
REMARK  7 active torsions:
REMARK  status: ('A' for Active; 'I' for Inactive)
REMARK    1  A    between atoms: C_1  and  O_2
REMARK    2  A    between atoms: O_2  and  C_3
REMARK    3  A    between atoms: C_4  and  O_5
REMARK    4  A    between atoms: C_6  and  O_7
REMARK    5  A    between atoms: C_14  and  O_15
REMARK    6  A    between atoms: O_15  and  C_16
REMARK    7  A    between atoms: C_17  and  O_18
REMARK                            x       y       z     vdW  Elec       q    Type
REMARK                         _______ _______ _______ _____ _____    ______ ____
ROOT
ATOM      1  C   LIG A   1      -7.895  -0.432 124.132  0.00  0.00    +0.179 A 
ATOM      2  C   LIG A   1      -9.126  -0.512 123.459  0.00  0.00    +0.202 A 
ATOM      3  C   LIG A   1      -9.922   0.610 123.254  0.00  0.00    +0.166 A 
ATOM      4  C   LIG A   1      -9.532   1.844 123.737  0.00  0.00    +0.096 A 
ATOM      5  C   LIG A   1      -8.336   1.942 124.451  0.00  0.00    +0.146 A 
ATOM      6  O   LIG A   1      -8.031   3.207 124.902  0.00  0.00    -0.454 OA
ATOM      7  C   LIG A   1      -6.767   3.427 125.381  0.00  0.00    +0.143 A 
ATOM      8  C   LIG A   1      -6.375   4.752 125.552  0.00  0.00    +0.051 A 
ATOM      9  C   LIG A   1      -5.091   5.047 126.022  0.00  0.00    +0.053 A 
ATOM     10  C   LIG A   1      -4.190   4.019 126.322  0.00  0.00    +0.162 A 
ATOM     11  C   LIG A   1      -4.605   2.689 126.190  0.00  0.00    +0.173 A 
ATOM     12  C   LIG A   1      -5.891   2.404 125.717  0.00  0.00    +0.110 A 
ATOM     13  C   LIG A   1      -7.532   0.808 124.682  0.00  0.00    +0.110 A 
ATOM     14  C   LIG A   1      -6.374   1.033 125.567  0.00  0.00    +0.207 A 
ATOM     15  O   LIG A   1      -5.807   0.142 126.198  0.00  0.00    -0.286 OA
ENDROOT
BRANCH   1  17
ATOM     16  C   LIG A   1      -6.193  -1.844 123.208  0.00  0.00    +0.277 C 
ATOM     17  O   LIG A   1      -7.222  -1.625 124.174  0.00  0.00    -0.490 OA
ENDBRANCH   1  17
BRANCH   2  18
ATOM     18  O   LIG A   1      -9.596  -1.711 122.981  0.00  0.00    -0.501 OA
ATOM     19  H   LIG A   1     -10.551  -1.716 123.199  0.00  0.00    +0.292 HD
ENDBRANCH   2  18
BRANCH   3  20
ATOM     20  O   LIG A   1     -11.098   0.506 122.569  0.00  0.00    -0.503 OA
ATOM     21  H   LIG A   1     -11.717   1.104 123.035  0.00  0.00    +0.292 HD
ENDBRANCH   3  20
BRANCH  10  22
ATOM     22  O   LIG A   1      -2.922   4.227 126.796  0.00  0.00    -0.491 OA
ATOM     23  C   LIG A   1      -2.803   5.162 127.862  0.00  0.00    +0.277 C 
ENDBRANCH  10  22
BRANCH  11  24
ATOM     24  O   LIG A   1      -3.718   1.688 126.505  0.00  0.00    -0.503 OA
ATOM     25  H   LIG A   1      -3.960   1.334 127.389  0.00  0.00    +0.292 HD
ENDBRANCH  11  24
TORSDOF 5
ENDMDL
MODEL 8
REMARK VINA RESULT:      -6.2      7.795      9.774
REMARK  Name = NuBBE_1913
REMARK  7 active torsions:
REMARK  status: ('A' for Active; 'I' for Inactive)
REMARK    1  A    between atoms: C_1  and  O_2
REMARK    2  A    between atoms: O_2  and  C_3
REMARK    3  A    between atoms: C_4  and  O_5
REMARK    4  A    between atoms: C_6  and  O_7
REMARK    5  A    between atoms: C_14  and  O_15
REMARK    6  A    between atoms: O_15  and  C_16
REMARK    7  A    between atoms: C_17  and  O_18
REMARK                            x       y       z     vdW  Elec       q    Type
REMARK                         _______ _______ _______ _____ _____    ______ ____
ROOT
ATOM      1  C   LIG A   1      -7.429  -1.545 124.490  0.00  0.00    +0.179 A 
ATOM      2  C   LIG A   1      -8.399  -2.137 123.663  0.00  0.00    +0.202 A 
ATOM      3  C   LIG A   1      -9.316  -3.059 124.155  0.00  0.00    +0.166 A 
ATOM      4  C   LIG A   1      -9.280  -3.444 125.482  0.00  0.00    +0.096 A 
ATOM      5  C   LIG A   1      -8.296  -2.905 126.314  0.00  0.00    +0.146 A 
ATOM      6  O   LIG A   1      -8.330  -3.350 127.618  0.00  0.00    -0.454 OA
ATOM      7  C   LIG A   1      -7.570  -2.683 128.540  0.00  0.00    +0.143 A 
ATOM      8  C   LIG A   1      -7.833  -2.940 129.883  0.00  0.00    +0.051 A 
ATOM      9  C   LIG A   1      -7.103  -2.280 130.878  0.00  0.00    +0.053 A 
ATOM     10  C   LIG A   1      -6.107  -1.358 130.536  0.00  0.00    +0.162 A 
ATOM     11  C   LIG A   1      -5.818  -1.138 129.184  0.00  0.00    +0.173 A 
ATOM     12  C   LIG A   1      -6.555  -1.801 128.196  0.00  0.00    +0.110 A 
ATOM     13  C   LIG A   1      -7.349  -1.986 125.820  0.00  0.00    +0.110 A 
ATOM     14  C   LIG A   1      -6.288  -1.610 126.773  0.00  0.00    +0.207 A 
ATOM     15  O   LIG A   1      -5.190  -1.168 126.439  0.00  0.00    -0.286 OA
ENDROOT
BRANCH   1  17
ATOM     16  C   LIG A   1      -7.011   0.765 124.006  0.00  0.00    +0.277 C 
ATOM     17  O   LIG A   1      -6.663  -0.610 123.843  0.00  0.00    -0.490 OA
ENDBRANCH   1  17
BRANCH   2  18
ATOM     18  O   LIG A   1      -8.473  -1.831 122.326  0.00  0.00    -0.501 OA
ATOM     19  H   LIG A   1      -8.907  -0.954 122.289  0.00  0.00    +0.292 HD
ENDBRANCH   2  18
BRANCH   3  20
ATOM     20  O   LIG A   1     -10.266  -3.594 123.335  0.00  0.00    -0.503 OA
ATOM     21  H   LIG A   1     -10.103  -4.559 123.354  0.00  0.00    +0.292 HD
ENDBRANCH   3  20
BRANCH  10  22
ATOM     22  O   LIG A   1      -5.345  -0.681 131.450  0.00  0.00    -0.491 OA
ATOM     23  C   LIG A   1      -4.573  -1.487 132.333  0.00  0.00    +0.277 C 
ENDBRANCH  10  22
BRANCH  11  24
ATOM     24  O   LIG A   1      -4.826  -0.244 128.860  0.00  0.00    -0.503 OA
ATOM     25  H   LIG A   1      -5.251   0.608 128.616  0.00  0.00    +0.292 HD
ENDBRANCH  11  24
TORSDOF 5
ENDMDL
MODEL 9
REMARK VINA RESULT:      -6.2      5.621      8.485
REMARK  Name = NuBBE_1913
REMARK  7 active torsions:
REMARK  status: ('A' for Active; 'I' for Inactive)
REMARK    1  A    between atoms: C_1  and  O_2
REMARK    2  A    between atoms: O_2  and  C_3
REMARK    3  A    between atoms: C_4  and  O_5
REMARK    4  A    between atoms: C_6  and  O_7
REMARK    5  A    between atoms: C_14  and  O_15
REMARK    6  A    between atoms: O_15  and  C_16
REMARK    7  A    between atoms: C_17  and  O_18
REMARK                            x       y       z     vdW  Elec       q    Type
REMARK                         _______ _______ _______ _____ _____    ______ ____
ROOT
ATOM      1  C   LIG A   1      -6.389   3.693 126.778  0.00  0.00    +0.179 A 
ATOM      2  C   LIG A   1      -5.143   4.322 126.935  0.00  0.00    +0.202 A 
ATOM      3  C   LIG A   1      -3.948   3.622 126.806  0.00  0.00    +0.166 A 
ATOM      4  C   LIG A   1      -3.956   2.265 126.546  0.00  0.00    +0.096 A 
ATOM      5  C   LIG A   1      -5.183   1.607 126.432  0.00  0.00    +0.146 A 
ATOM      6  O   LIG A   1      -5.095   0.255 126.180  0.00  0.00    -0.454 OA
ATOM      7  C   LIG A   1      -6.238  -0.400 125.806  0.00  0.00    +0.143 A 
ATOM      8  C   LIG A   1      -6.090  -1.677 125.271  0.00  0.00    +0.051 A 
ATOM      9  C   LIG A   1      -7.216  -2.395 124.854  0.00  0.00    +0.053 A 
ATOM     10  C   LIG A   1      -8.496  -1.841 124.968  0.00  0.00    +0.162 A 
ATOM     11  C   LIG A   1      -8.641  -0.575 125.548  0.00  0.00    +0.173 A 
ATOM     12  C   LIG A   1      -7.509   0.137 125.960  0.00  0.00    +0.110 A 
ATOM     13  C   LIG A   1      -6.398   2.304 126.580  0.00  0.00    +0.110 A 
ATOM     14  C   LIG A   1      -7.607   1.459 126.576  0.00  0.00    +0.207 A 
ATOM     15  O   LIG A   1      -8.681   1.791 127.075  0.00  0.00    -0.286 OA
ENDROOT
BRANCH   1  17
ATOM     16  C   LIG A   1      -8.091   4.957 125.658  0.00  0.00    +0.277 C 
ATOM     17  O   LIG A   1      -7.448   4.559 126.870  0.00  0.00    -0.490 OA
ENDBRANCH   1  17
BRANCH   2  18
ATOM     18  O   LIG A   1      -5.056   5.661 127.230  0.00  0.00    -0.501 OA
ATOM     19  H   LIG A   1      -4.223   5.961 126.813  0.00  0.00    +0.292 HD
ENDBRANCH   2  18
BRANCH   3  20
ATOM     20  O   LIG A   1      -2.752   4.267 126.933  0.00  0.00    -0.503 OA
ATOM     21  H   LIG A   1      -2.099   3.674 126.509  0.00  0.00    +0.292 HD
ENDBRANCH   3  20
BRANCH  10  22
ATOM     22  O   LIG A   1      -9.645  -2.484 124.592  0.00  0.00    -0.491 OA
ATOM     23  C   LIG A   1      -9.551  -3.293 123.426  0.00  0.00    +0.277 C 
ENDBRANCH  10  22
BRANCH  11  24
ATOM     24  O   LIG A   1      -9.904  -0.047 125.671  0.00  0.00    -0.503 OA
ATOM     25  H   LIG A   1     -10.392  -0.226 124.837  0.00  0.00    +0.292 HD
ENDBRANCH  11  24
TORSDOF 5
ENDMDL
