MODEL 1
REMARK VINA RESULT:      -7.1      0.000      0.000
REMARK  Name = NuBBE_1299
REMARK  3 active torsions:
REMARK  status: ('A' for Active; 'I' for Inactive)
REMARK    1  A    between atoms: C_6  and  C_7
REMARK    2  A    between atoms: C_7  and  C_8
REMARK    3  A    between atoms: N_17  and  C_18
REMARK                            x       y       z     vdW  Elec       q    Type
REMARK                         _______ _______ _______ _____ _____    ______ ____
ROOT
ATOM      1  O   LIG A   1      -8.305   2.060 125.649  0.00  0.00    -0.267 OA
ATOM      2  C   LIG A   1      -7.591   2.600 124.808  0.00  0.00    +0.258 A 
ATOM      3  C   LIG A   1      -6.299   3.148 125.217  0.00  0.00    +0.063 A 
ATOM      4  C   LIG A   1      -5.479   3.753 124.375  0.00  0.00    +0.139 A 
ATOM      5  O   LIG A   1      -4.285   4.205 124.912  0.00  0.00    -0.483 OA
ATOM      6  C   LIG A   1      -4.512   4.082 126.350  0.00  0.00    +0.203 C 
ATOM      7  C   LIG A   1      -5.681   3.089 126.551  0.00  0.00    +0.093 C 
ATOM      8  C   LIG A   1      -5.793   3.895 122.967  0.00  0.00    +0.041 A 
ATOM      9  C   LIG A   1      -4.914   4.517 122.072  0.00  0.00    +0.013 A 
ATOM     10  C   LIG A   1      -5.249   4.630 120.724  0.00  0.00    +0.001 A 
ATOM     11  C   LIG A   1      -6.464   4.125 120.268  0.00  0.00    +0.002 A 
ATOM     12  C   LIG A   1      -7.348   3.503 121.156  0.00  0.00    +0.026 A 
ATOM     13  C   LIG A   1      -7.027   3.378 122.517  0.00  0.00    +0.055 A 
ATOM     14  N   LIG A   1      -7.913   2.740 123.455  0.00  0.00    -0.311 N 
ATOM     15  C   LIG A   1      -9.186   2.208 122.998  0.00  0.00    +0.152 C 
ENDROOT
BRANCH   6  16
ATOM     16  C   LIG A   1      -3.182   3.797 127.028  0.00  0.00    -0.040 C 
ATOM     17  C   LIG A   1      -3.041   4.392 128.408  0.00  0.00    +0.042 C 
ATOM     18  C   LIG A   1      -2.183   3.059 126.514  0.00  0.00    +0.011 C 
ENDBRANCH   6  16
TORSDOF 1
ENDMDL
MODEL 2
REMARK VINA RESULT:      -6.8      7.292      9.451
REMARK  Name = NuBBE_1299
REMARK  3 active torsions:
REMARK  status: ('A' for Active; 'I' for Inactive)
REMARK    1  A    between atoms: C_6  and  C_7
REMARK    2  A    between atoms: C_7  and  C_8
REMARK    3  A    between atoms: N_17  and  C_18
REMARK                            x       y       z     vdW  Elec       q    Type
REMARK                         _______ _______ _______ _____ _____    ______ ____
ROOT
ATOM      1  O   LIG A   1      -7.386   7.539 130.659  0.00  0.00    -0.267 OA
ATOM      2  C   LIG A   1      -8.048   6.512 130.782  0.00  0.00    +0.258 A 
ATOM      3  C   LIG A   1      -9.389   6.456 130.203  0.00  0.00    +0.063 A 
ATOM      4  C   LIG A   1     -10.167   5.391 130.301  0.00  0.00    +0.139 A 
ATOM      5  O   LIG A   1     -11.404   5.488 129.685  0.00  0.00    -0.483 OA
ATOM      6  C   LIG A   1     -11.500   6.912 129.375  0.00  0.00    +0.203 C 
ATOM      7  C   LIG A   1     -10.065   7.489 129.404  0.00  0.00    +0.093 C 
ATOM      8  C   LIG A   1      -9.734   4.184 130.976  0.00  0.00    +0.041 A 
ATOM      9  C   LIG A   1     -10.551   3.050 131.060  0.00  0.00    +0.013 A 
ATOM     10  C   LIG A   1     -10.097   1.906 131.712  0.00  0.00    +0.001 A 
ATOM     11  C   LIG A   1      -8.827   1.892 132.284  0.00  0.00    +0.002 A 
ATOM     12  C   LIG A   1      -8.005   3.021 132.204  0.00  0.00    +0.026 A 
ATOM     13  C   LIG A   1      -8.444   4.182 131.549  0.00  0.00    +0.055 A 
ATOM     14  N   LIG A   1      -7.621   5.359 131.447  0.00  0.00    -0.311 N 
ATOM     15  C   LIG A   1      -6.293   5.364 132.038  0.00  0.00    +0.152 C 
ENDROOT
BRANCH   6  16
ATOM     16  C   LIG A   1     -12.334   7.079 128.116  0.00  0.00    -0.040 C 
ATOM     17  C   LIG A   1     -11.534   7.354 126.865  0.00  0.00    +0.042 C 
ATOM     18  C   LIG A   1     -13.672   6.974 128.043  0.00  0.00    +0.011 C 
ENDBRANCH   6  16
TORSDOF 1
ENDMDL
MODEL 3
REMARK VINA RESULT:      -6.7      3.640      6.167
REMARK  Name = NuBBE_1299
REMARK  3 active torsions:
REMARK  status: ('A' for Active; 'I' for Inactive)
REMARK    1  A    between atoms: C_6  and  C_7
REMARK    2  A    between atoms: C_7  and  C_8
REMARK    3  A    between atoms: N_17  and  C_18
REMARK                            x       y       z     vdW  Elec       q    Type
REMARK                         _______ _______ _______ _____ _____    ______ ____
ROOT
ATOM      1  O   LIG A   1      -5.449   0.820 126.578  0.00  0.00    -0.267 OA
ATOM      2  C   LIG A   1      -6.225   0.212 125.846  0.00  0.00    +0.258 A 
ATOM      3  C   LIG A   1      -6.831   0.909 124.713  0.00  0.00    +0.063 A 
ATOM      4  C   LIG A   1      -7.683   0.327 123.887  0.00  0.00    +0.139 A 
ATOM      5  O   LIG A   1      -8.158   1.118 122.853  0.00  0.00    -0.483 OA
ATOM      6  C   LIG A   1      -7.727   2.457 123.246  0.00  0.00    +0.203 C 
ATOM      7  C   LIG A   1      -6.583   2.292 124.274  0.00  0.00    +0.093 C 
ATOM      8  C   LIG A   1      -8.062  -1.064 124.030  0.00  0.00    +0.041 A 
ATOM      9  C   LIG A   1      -8.947  -1.685 123.140  0.00  0.00    +0.013 A 
ATOM     10  C   LIG A   1      -9.283  -3.027 123.308  0.00  0.00    +0.001 A 
ATOM     11  C   LIG A   1      -8.738  -3.750 124.365  0.00  0.00    +0.002 A 
ATOM     12  C   LIG A   1      -7.853  -3.137 125.258  0.00  0.00    +0.026 A 
ATOM     13  C   LIG A   1      -7.501  -1.787 125.105  0.00  0.00    +0.055 A 
ATOM     14  N   LIG A   1      -6.591  -1.128 126.005  0.00  0.00    -0.311 N 
ATOM     15  C   LIG A   1      -6.012  -1.866 127.114  0.00  0.00    +0.152 C 
ENDROOT
BRANCH   6  16
ATOM     16  C   LIG A   1      -7.473   3.273 121.990  0.00  0.00    -0.040 C 
ATOM     17  C   LIG A   1      -8.699   3.522 121.145  0.00  0.00    +0.042 C 
ATOM     18  C   LIG A   1      -6.288   3.788 121.616  0.00  0.00    +0.011 C 
ENDBRANCH   6  16
TORSDOF 1
ENDMDL
MODEL 4
REMARK VINA RESULT:      -6.6      7.325      8.893
REMARK  Name = NuBBE_1299
REMARK  3 active torsions:
REMARK  status: ('A' for Active; 'I' for Inactive)
REMARK    1  A    between atoms: C_6  and  C_7
REMARK    2  A    between atoms: C_7  and  C_8
REMARK    3  A    between atoms: N_17  and  C_18
REMARK                            x       y       z     vdW  Elec       q    Type
REMARK                         _______ _______ _______ _____ _____    ______ ____
ROOT
ATOM      1  O   LIG A   1      -8.701   5.294 127.863  0.00  0.00    -0.267 OA
ATOM      2  C   LIG A   1      -9.483   5.700 128.718  0.00  0.00    +0.258 A 
ATOM      3  C   LIG A   1      -9.481   5.074 130.039  0.00  0.00    +0.063 A 
ATOM      4  C   LIG A   1     -10.299   5.446 131.009  0.00  0.00    +0.139 A 
ATOM      5  O   LIG A   1     -10.164   4.766 132.208  0.00  0.00    -0.483 OA
ATOM      6  C   LIG A   1      -9.308   3.639 131.845  0.00  0.00    +0.203 C 
ATOM      7  C   LIG A   1      -8.589   4.010 130.527  0.00  0.00    +0.093 C 
ATOM      8  C   LIG A   1     -11.247   6.529 130.840  0.00  0.00    +0.041 A 
ATOM      9  C   LIG A   1     -12.096   6.937 131.876  0.00  0.00    +0.013 A 
ATOM     10  C   LIG A   1     -12.991   7.986 131.676  0.00  0.00    +0.001 A 
ATOM     11  C   LIG A   1     -13.041   8.629 130.441  0.00  0.00    +0.002 A 
ATOM     12  C   LIG A   1     -12.196   8.227 129.402  0.00  0.00    +0.026 A 
ATOM     13  C   LIG A   1     -11.286   7.174 129.584  0.00  0.00    +0.055 A 
ATOM     14  N   LIG A   1     -10.401   6.739 128.536  0.00  0.00    -0.311 N 
ATOM     15  C   LIG A   1     -10.439   7.396 127.241  0.00  0.00    +0.152 C 
ENDROOT
BRANCH   6  16
ATOM     16  C   LIG A   1      -8.471   3.256 133.054  0.00  0.00    -0.040 C 
ATOM     17  C   LIG A   1      -8.600   4.195 134.230  0.00  0.00    +0.042 C 
ATOM     18  C   LIG A   1      -7.684   2.171 133.151  0.00  0.00    +0.011 C 
ENDBRANCH   6  16
TORSDOF 1
ENDMDL
MODEL 5
REMARK VINA RESULT:      -6.6      4.424      5.916
REMARK  Name = NuBBE_1299
REMARK  3 active torsions:
REMARK  status: ('A' for Active; 'I' for Inactive)
REMARK    1  A    between atoms: C_6  and  C_7
REMARK    2  A    between atoms: C_7  and  C_8
REMARK    3  A    between atoms: N_17  and  C_18
REMARK                            x       y       z     vdW  Elec       q    Type
REMARK                         _______ _______ _______ _____ _____    ______ ____
ROOT
ATOM      1  O   LIG A   1      -9.177   2.722 125.198  0.00  0.00    -0.267 OA
ATOM      2  C   LIG A   1      -9.006   1.506 125.214  0.00  0.00    +0.258 A 
ATOM      3  C   LIG A   1      -8.584   0.863 126.458  0.00  0.00    +0.063 A 
ATOM      4  C   LIG A   1      -8.369  -0.438 126.553  0.00  0.00    +0.139 A 
ATOM      5  O   LIG A   1      -7.989  -0.898 127.803  0.00  0.00    -0.483 OA
ATOM      6  C   LIG A   1      -7.684   0.336 128.522  0.00  0.00    +0.203 C 
ATOM      7  C   LIG A   1      -8.383   1.494 127.771  0.00  0.00    +0.093 C 
ATOM      8  C   LIG A   1      -8.560  -1.332 125.428  0.00  0.00    +0.041 A 
ATOM      9  C   LIG A   1      -8.352  -2.713 125.537  0.00  0.00    +0.013 A 
ATOM     10  C   LIG A   1      -8.552  -3.540 124.434  0.00  0.00    +0.001 A 
ATOM     11  C   LIG A   1      -8.957  -2.992 123.220  0.00  0.00    +0.002 A 
ATOM     12  C   LIG A   1      -9.167  -1.613 123.104  0.00  0.00    +0.026 A 
ATOM     13  C   LIG A   1      -8.973  -0.764 124.204  0.00  0.00    +0.055 A 
ATOM     14  N   LIG A   1      -9.183   0.658 124.117  0.00  0.00    -0.311 N 
ATOM     15  C   LIG A   1      -9.605   1.250 122.859  0.00  0.00    +0.152 C 
ENDROOT
BRANCH   6  16
ATOM     16  C   LIG A   1      -7.988   0.127 129.996  0.00  0.00    -0.040 C 
ATOM     17  C   LIG A   1      -8.368   1.383 130.743  0.00  0.00    +0.042 C 
ATOM     18  C   LIG A   1      -7.970  -1.053 130.640  0.00  0.00    +0.011 C 
ENDBRANCH   6  16
TORSDOF 1
ENDMDL
MODEL 6
REMARK VINA RESULT:      -6.5      7.282      8.942
REMARK  Name = NuBBE_1299
REMARK  3 active torsions:
REMARK  status: ('A' for Active; 'I' for Inactive)
REMARK    1  A    between atoms: C_6  and  C_7
REMARK    2  A    between atoms: C_7  and  C_8
REMARK    3  A    between atoms: N_17  and  C_18
REMARK                            x       y       z     vdW  Elec       q    Type
REMARK                         _______ _______ _______ _____ _____    ______ ____
ROOT
ATOM      1  O   LIG A   1      -5.486   4.887 134.489  0.00  0.00    -0.267 OA
ATOM      2  C   LIG A   1      -6.228   5.364 133.635  0.00  0.00    +0.258 A 
ATOM      3  C   LIG A   1      -5.642   6.062 132.492  0.00  0.00    +0.063 A 
ATOM      4  C   LIG A   1      -6.374   6.612 131.537  0.00  0.00    +0.139 A 
ATOM      5  O   LIG A   1      -5.670   7.224 130.513  0.00  0.00    -0.483 OA
ATOM      6  C   LIG A   1      -4.310   7.277 131.043  0.00  0.00    +0.203 C 
ATOM      7  C   LIG A   1      -4.215   6.232 132.179  0.00  0.00    +0.093 C 
ATOM      8  C   LIG A   1      -7.821   6.539 131.541  0.00  0.00    +0.041 A 
ATOM      9  C   LIG A   1      -8.593   7.102 130.518  0.00  0.00    +0.013 A 
ATOM     10  C   LIG A   1      -9.983   7.006 130.555  0.00  0.00    +0.001 A 
ATOM     11  C   LIG A   1     -10.604   6.351 131.614  0.00  0.00    +0.002 A 
ATOM     12  C   LIG A   1      -9.840   5.786 132.640  0.00  0.00    +0.026 A 
ATOM     13  C   LIG A   1      -8.439   5.870 132.620  0.00  0.00    +0.055 A 
ATOM     14  N   LIG A   1      -7.624   5.296 133.659  0.00  0.00    -0.311 N 
ATOM     15  C   LIG A   1      -8.254   4.608 134.773  0.00  0.00    +0.152 C 
ENDROOT
BRANCH   6  16
ATOM     16  C   LIG A   1      -3.333   7.191 129.883  0.00  0.00    -0.040 C 
ATOM     17  C   LIG A   1      -2.063   6.434 130.186  0.00  0.00    +0.042 C 
ATOM     18  C   LIG A   1      -3.532   7.697 128.652  0.00  0.00    +0.011 C 
ENDBRANCH   6  16
TORSDOF 1
ENDMDL
MODEL 7
REMARK VINA RESULT:      -6.3      5.097      6.124
REMARK  Name = NuBBE_1299
REMARK  3 active torsions:
REMARK  status: ('A' for Active; 'I' for Inactive)
REMARK    1  A    between atoms: C_6  and  C_7
REMARK    2  A    between atoms: C_7  and  C_8
REMARK    3  A    between atoms: N_17  and  C_18
REMARK                            x       y       z     vdW  Elec       q    Type
REMARK                         _______ _______ _______ _____ _____    ______ ____
ROOT
ATOM      1  O   LIG A   1      -8.856   0.967 126.637  0.00  0.00    -0.267 OA
ATOM      2  C   LIG A   1      -8.111   0.129 126.136  0.00  0.00    +0.258 A 
ATOM      3  C   LIG A   1      -7.404  -0.808 127.007  0.00  0.00    +0.063 A 
ATOM      4  C   LIG A   1      -6.577  -1.730 126.546  0.00  0.00    +0.139 A 
ATOM      5  O   LIG A   1      -5.997  -2.553 127.498  0.00  0.00    -0.483 OA
ATOM      6  C   LIG A   1      -6.321  -1.875 128.750  0.00  0.00    +0.203 C 
ATOM      7  C   LIG A   1      -7.512  -0.929 128.470  0.00  0.00    +0.093 C 
ATOM      8  C   LIG A   1      -6.328  -1.897 125.128  0.00  0.00    +0.041 A 
ATOM      9  C   LIG A   1      -5.469  -2.889 124.639  0.00  0.00    +0.013 A 
ATOM     10  C   LIG A   1      -5.260  -3.021 123.268  0.00  0.00    +0.001 A 
ATOM     11  C   LIG A   1      -5.905  -2.163 122.383  0.00  0.00    +0.002 A 
ATOM     12  C   LIG A   1      -6.765  -1.169 122.863  0.00  0.00    +0.026 A 
ATOM     13  C   LIG A   1      -6.991  -1.021 124.240  0.00  0.00    +0.055 A 
ATOM     14  N   LIG A   1      -7.871  -0.011 124.766  0.00  0.00    -0.311 N 
ATOM     15  C   LIG A   1      -8.553   0.895 123.858  0.00  0.00    +0.152 C 
ENDROOT
BRANCH   6  16
ATOM     16  C   LIG A   1      -6.456  -2.919 129.845  0.00  0.00    -0.040 C 
ATOM     17  C   LIG A   1      -7.786  -2.913 130.560  0.00  0.00    +0.042 C 
ATOM     18  C   LIG A   1      -5.521  -3.825 130.184  0.00  0.00    +0.011 C 
ENDBRANCH   6  16
TORSDOF 1
ENDMDL
MODEL 8
REMARK VINA RESULT:      -6.2      5.757      8.773
REMARK  Name = NuBBE_1299
REMARK  3 active torsions:
REMARK  status: ('A' for Active; 'I' for Inactive)
REMARK    1  A    between atoms: C_6  and  C_7
REMARK    2  A    between atoms: C_7  and  C_8
REMARK    3  A    between atoms: N_17  and  C_18
REMARK                            x       y       z     vdW  Elec       q    Type
REMARK                         _______ _______ _______ _____ _____    ______ ____
ROOT
ATOM      1  O   LIG A   1      -8.109   1.505 127.561  0.00  0.00    -0.267 OA
ATOM      2  C   LIG A   1      -7.885   0.401 128.049  0.00  0.00    +0.258 A 
ATOM      3  C   LIG A   1      -8.144  -0.796 127.251  0.00  0.00    +0.063 A 
ATOM      4  C   LIG A   1      -7.939  -2.020 127.709  0.00  0.00    +0.139 A 
ATOM      5  O   LIG A   1      -8.218  -3.050 126.826  0.00  0.00    -0.483 OA
ATOM      6  C   LIG A   1      -8.938  -2.369 125.752  0.00  0.00    +0.203 C 
ATOM      7  C   LIG A   1      -8.605  -0.863 125.856  0.00  0.00    +0.093 C 
ATOM      8  C   LIG A   1      -7.414  -2.264 129.037  0.00  0.00    +0.041 A 
ATOM      9  C   LIG A   1      -7.176  -3.560 129.512  0.00  0.00    +0.013 A 
ATOM     10  C   LIG A   1      -6.666  -3.753 130.794  0.00  0.00    +0.001 A 
ATOM     11  C   LIG A   1      -6.393  -2.655 131.604  0.00  0.00    +0.002 A 
ATOM     12  C   LIG A   1      -6.628  -1.357 131.137  0.00  0.00    +0.026 A 
ATOM     13  C   LIG A   1      -7.140  -1.142 129.849  0.00  0.00    +0.055 A 
ATOM     14  N   LIG A   1      -7.390   0.181 129.338  0.00  0.00    -0.311 N 
ATOM     15  C   LIG A   1      -7.113   1.340 130.169  0.00  0.00    +0.152 C 
ENDROOT
BRANCH   6  16
ATOM     16  C   LIG A   1      -8.661  -3.095 124.447  0.00  0.00    -0.040 C 
ATOM     17  C   LIG A   1      -7.269  -3.668 124.330  0.00  0.00    +0.042 C 
ATOM     18  C   LIG A   1      -9.543  -3.276 123.448  0.00  0.00    +0.011 C 
ENDBRANCH   6  16
TORSDOF 1
ENDMDL
MODEL 9
REMARK VINA RESULT:      -6.1      7.184      9.236
REMARK  Name = NuBBE_1299
REMARK  3 active torsions:
REMARK  status: ('A' for Active; 'I' for Inactive)
REMARK    1  A    between atoms: C_6  and  C_7
REMARK    2  A    between atoms: C_7  and  C_8
REMARK    3  A    between atoms: N_17  and  C_18
REMARK                            x       y       z     vdW  Elec       q    Type
REMARK                         _______ _______ _______ _____ _____    ______ ____
ROOT
ATOM      1  O   LIG A   1      -6.210   6.210 130.359  0.00  0.00    -0.267 OA
ATOM      2  C   LIG A   1      -7.006   5.323 130.652  0.00  0.00    +0.258 A 
ATOM      3  C   LIG A   1      -8.423   5.655 130.795  0.00  0.00    +0.063 A 
ATOM      4  C   LIG A   1      -9.339   4.758 131.119  0.00  0.00    +0.139 A 
ATOM      5  O   LIG A   1     -10.640   5.226 131.199  0.00  0.00    -0.483 OA
ATOM      6  C   LIG A   1     -10.465   6.676 131.163  0.00  0.00    +0.203 C 
ATOM      7  C   LIG A   1      -9.066   6.958 130.567  0.00  0.00    +0.093 C 
ATOM      8  C   LIG A   1      -9.006   3.364 131.334  0.00  0.00    +0.041 A 
ATOM      9  C   LIG A   1      -9.981   2.412 131.656  0.00  0.00    +0.013 A 
ATOM     10  C   LIG A   1      -9.622   1.080 131.850  0.00  0.00    +0.001 A 
ATOM     11  C   LIG A   1      -8.290   0.696 131.726  0.00  0.00    +0.002 A 
ATOM     12  C   LIG A   1      -7.310   1.642 131.405  0.00  0.00    +0.026 A 
ATOM     13  C   LIG A   1      -7.652   2.988 131.204  0.00  0.00    +0.055 A 
ATOM     14  N   LIG A   1      -6.668   3.983 130.869  0.00  0.00    -0.311 N 
ATOM     15  C   LIG A   1      -5.272   3.603 130.736  0.00  0.00    +0.152 C 
ENDROOT
BRANCH   6  16
ATOM     16  C   LIG A   1     -11.684   7.295 130.502  0.00  0.00    -0.040 C 
ATOM     17  C   LIG A   1     -11.424   7.889 129.138  0.00  0.00    +0.042 C 
ATOM     18  C   LIG A   1     -12.926   7.322 131.015  0.00  0.00    +0.011 C 
ENDBRANCH   6  16
TORSDOF 1
ENDMDL
