MODEL 1
REMARK VINA RESULT:      -6.2      0.000      0.000
REMARK  Name = NuBBE_1683
REMARK  17 active torsions:
REMARK  status: ('A' for Active; 'I' for Inactive)
REMARK    1  A    between atoms: C_1  and  C_2
REMARK    2  A    between atoms: C_2  and  C_3
REMARK    3  A    between atoms: C_3  and  C_4
REMARK    4  A    between atoms: C_4  and  C_5
REMARK    5  A    between atoms: C_5  and  C_6
REMARK    6  A    between atoms: C_6  and  C_7
REMARK    7  A    between atoms: C_8  and  C_9
REMARK    8  A    between atoms: C_9  and  C_10
REMARK    9  A    between atoms: C_10  and  C_11
REMARK   10  A    between atoms: C_11  and  C_12
REMARK   11  A    between atoms: C_12  and  C_13
REMARK   12  A    between atoms: C_13  and  C_14
REMARK   13  A    between atoms: C_14  and  C_15
REMARK   14  A    between atoms: C_15  and  C_16
REMARK   15  A    between atoms: C_18  and  O_19
REMARK   16  A    between atoms: C_20  and  C_21
REMARK   17  A    between atoms: C_22  and  O_23
REMARK                            x       y       z     vdW  Elec       q    Type
REMARK                         _______ _______ _______ _____ _____    ______ ____
ROOT
ATOM      1  C   LIG A   1      -7.287   2.043 126.717  0.00  0.00    +0.000 C 
ENDROOT
BRANCH   1   2
ATOM      2  C   LIG A   1      -7.597   0.557 126.480  0.00  0.00    +0.000 C 
BRANCH   2   3
ATOM      3  C   LIG A   1      -6.939  -0.405 127.475  0.00  0.00    +0.000 C 
BRANCH   3   4
ATOM      4  C   LIG A   1      -5.936  -1.377 126.877  0.00  0.00    +0.004 C 
BRANCH   4   5
ATOM      5  C   LIG A   1      -5.520  -0.921 125.500  0.00  0.00    +0.027 C 
BRANCH   5   7
ATOM      6  C   LIG A   1      -5.990  -2.208 123.387  0.00  0.00    -0.031 C 
ATOM      7  C   LIG A   1      -5.338  -2.056 124.534  0.00  0.00    -0.031 C 
BRANCH   6   8
ATOM      8  C   LIG A   1      -7.003  -1.269 122.759  0.00  0.00    +0.027 C 
BRANCH   8   9
ATOM      9  C   LIG A   1      -8.382  -1.327 123.428  0.00  0.00    +0.004 C 
BRANCH   9  10
ATOM     10  C   LIG A   1      -9.130  -2.637 123.160  0.00  0.00    +0.000 C 
BRANCH  10  11
ATOM     11  C   LIG A   1      -9.186  -3.532 124.402  0.00  0.00    -0.000 C 
BRANCH  11  13
ATOM     12  C   LIG A   1      -8.980  -3.552 126.959  0.00  0.00    +0.004 C 
ATOM     13  C   LIG A   1      -9.288  -2.738 125.710  0.00  0.00    -0.003 C 
ENDBRANCH  11  13
ENDBRANCH  10  11
ENDBRANCH   9  10
ENDBRANCH   8   9
ENDBRANCH   6   8
ENDBRANCH   5   7
ENDBRANCH   4   5
ENDBRANCH   3   4
ENDBRANCH   2   3
ENDBRANCH   1   2
BRANCH   1  14
ATOM     14  C   LIG A   1      -7.390   2.960 125.493  0.00  0.00    +0.005 C 
BRANCH  14  15
ATOM     15  C   LIG A   1      -8.067   2.308 124.288  0.00  0.00    +0.035 C 
BRANCH  15  16
ATOM     16  C   LIG A   1      -7.718   2.829 122.929  0.00  0.00    -0.041 A 
ATOM     17  C   LIG A   1      -8.764   3.056 122.027  0.00  0.00    +0.049 A 
ATOM     18  C   LIG A   1      -8.500   3.609 120.781  0.00  0.00    +0.123 A 
ATOM     19  C   LIG A   1      -7.197   3.956 120.413  0.00  0.00    +0.032 A 
ATOM     20  C   LIG A   1      -6.914   4.544 119.066  0.00  0.00    +0.051 C 
ATOM     21  C   LIG A   1      -6.175   3.801 121.355  0.00  0.00    +0.123 A 
ATOM     22  C   LIG A   1      -6.428   3.256 122.608  0.00  0.00    +0.049 A 
BRANCH  18  23
ATOM     23  O   LIG A   1      -9.529   3.820 119.906  0.00  0.00    -0.506 OA
ATOM     24  H   LIG A   1      -9.838   4.736 120.001  0.00  0.00    +0.292 HD
ENDBRANCH  18  23
BRANCH  21  25
ATOM     25  O   LIG A   1      -4.903   4.194 121.042  0.00  0.00    -0.506 OA
ATOM     26  H   LIG A   1      -4.798   4.163 120.077  0.00  0.00    +0.292 HD
ENDBRANCH  21  25
ENDBRANCH  15  16
ENDBRANCH  14  15
ENDBRANCH   1  14
TORSDOF 15
ENDMDL
MODEL 2
REMARK VINA RESULT:      -6.1      1.153      3.213
REMARK  Name = NuBBE_1683
REMARK  17 active torsions:
REMARK  status: ('A' for Active; 'I' for Inactive)
REMARK    1  A    between atoms: C_1  and  C_2
REMARK    2  A    between atoms: C_2  and  C_3
REMARK    3  A    between atoms: C_3  and  C_4
REMARK    4  A    between atoms: C_4  and  C_5
REMARK    5  A    between atoms: C_5  and  C_6
REMARK    6  A    between atoms: C_6  and  C_7
REMARK    7  A    between atoms: C_8  and  C_9
REMARK    8  A    between atoms: C_9  and  C_10
REMARK    9  A    between atoms: C_10  and  C_11
REMARK   10  A    between atoms: C_11  and  C_12
REMARK   11  A    between atoms: C_12  and  C_13
REMARK   12  A    between atoms: C_13  and  C_14
REMARK   13  A    between atoms: C_14  and  C_15
REMARK   14  A    between atoms: C_15  and  C_16
REMARK   15  A    between atoms: C_18  and  O_19
REMARK   16  A    between atoms: C_20  and  C_21
REMARK   17  A    between atoms: C_22  and  O_23
REMARK                            x       y       z     vdW  Elec       q    Type
REMARK                         _______ _______ _______ _____ _____    ______ ____
ROOT
ATOM      1  C   LIG A   1      -9.362   0.986 124.891  0.00  0.00    +0.000 C 
ENDROOT
BRANCH   1   2
ATOM      2  C   LIG A   1      -8.463  -0.120 124.317  0.00  0.00    +0.000 C 
BRANCH   2   3
ATOM      3  C   LIG A   1      -8.876  -0.634 122.934  0.00  0.00    +0.000 C 
BRANCH   3   4
ATOM      4  C   LIG A   1      -8.667  -2.121 122.701  0.00  0.00    +0.004 C 
BRANCH   4   5
ATOM      5  C   LIG A   1      -9.491  -2.926 123.676  0.00  0.00    +0.027 C 
BRANCH   5   7
ATOM      6  C   LIG A   1      -8.268  -3.950 125.624  0.00  0.00    -0.031 C 
ATOM      7  C   LIG A   1      -8.702  -3.998 124.370  0.00  0.00    -0.031 C 
BRANCH   6   8
ATOM      8  C   LIG A   1      -8.507  -2.861 126.653  0.00  0.00    +0.027 C 
BRANCH   8   9
ATOM      9  C   LIG A   1      -7.227  -2.403 127.363  0.00  0.00    +0.004 C 
BRANCH   9  10
ATOM     10  C   LIG A   1      -6.686  -1.071 126.834  0.00  0.00    +0.000 C 
BRANCH  10  11
ATOM     11  C   LIG A   1      -5.341  -1.238 126.120  0.00  0.00    -0.000 C 
BRANCH  11  13
ATOM     12  C   LIG A   1      -5.058  -3.107 124.385  0.00  0.00    +0.004 C 
ATOM     13  C   LIG A   1      -5.489  -1.673 124.657  0.00  0.00    -0.003 C 
ENDBRANCH  11  13
ENDBRANCH  10  11
ENDBRANCH   9  10
ENDBRANCH   8   9
ENDBRANCH   6   8
ENDBRANCH   5   7
ENDBRANCH   4   5
ENDBRANCH   3   4
ENDBRANCH   2   3
ENDBRANCH   1   2
BRANCH   1  14
ATOM     14  C   LIG A   1      -9.276   2.354 124.206  0.00  0.00    +0.005 C 
BRANCH  14  15
ATOM     15  C   LIG A   1      -7.855   2.764 123.821  0.00  0.00    +0.035 C 
BRANCH  15  16
ATOM     16  C   LIG A   1      -7.616   3.205 122.411  0.00  0.00    -0.041 A 
ATOM     17  C   LIG A   1      -8.730   3.365 121.579  0.00  0.00    +0.049 A 
ATOM     18  C   LIG A   1      -8.567   3.845 120.285  0.00  0.00    +0.123 A 
ATOM     19  C   LIG A   1      -7.301   4.183 119.801  0.00  0.00    +0.032 A 
ATOM     20  C   LIG A   1      -7.127   4.691 118.404  0.00  0.00    +0.051 C 
ATOM     21  C   LIG A   1      -6.209   4.097 120.671  0.00  0.00    +0.123 A 
ATOM     22  C   LIG A   1      -6.360   3.627 121.970  0.00  0.00    +0.049 A 
BRANCH  18  23
ATOM     23  O   LIG A   1      -9.661   3.990 119.479  0.00  0.00    -0.506 OA
ATOM     24  H   LIG A   1      -9.586   3.372 118.734  0.00  0.00    +0.292 HD
ENDBRANCH  18  23
BRANCH  21  25
ATOM     25  O   LIG A   1      -4.970   4.484 120.241  0.00  0.00    -0.506 OA
ATOM     26  H   LIG A   1      -4.584   5.079 120.905  0.00  0.00    +0.292 HD
ENDBRANCH  21  25
ENDBRANCH  15  16
ENDBRANCH  14  15
ENDBRANCH   1  14
TORSDOF 15
ENDMDL
MODEL 3
REMARK VINA RESULT:      -6.0      3.712      6.080
REMARK  Name = NuBBE_1683
REMARK  17 active torsions:
REMARK  status: ('A' for Active; 'I' for Inactive)
REMARK    1  A    between atoms: C_1  and  C_2
REMARK    2  A    between atoms: C_2  and  C_3
REMARK    3  A    between atoms: C_3  and  C_4
REMARK    4  A    between atoms: C_4  and  C_5
REMARK    5  A    between atoms: C_5  and  C_6
REMARK    6  A    between atoms: C_6  and  C_7
REMARK    7  A    between atoms: C_8  and  C_9
REMARK    8  A    between atoms: C_9  and  C_10
REMARK    9  A    between atoms: C_10  and  C_11
REMARK   10  A    between atoms: C_11  and  C_12
REMARK   11  A    between atoms: C_12  and  C_13
REMARK   12  A    between atoms: C_13  and  C_14
REMARK   13  A    between atoms: C_14  and  C_15
REMARK   14  A    between atoms: C_15  and  C_16
REMARK   15  A    between atoms: C_18  and  O_19
REMARK   16  A    between atoms: C_20  and  C_21
REMARK   17  A    between atoms: C_22  and  O_23
REMARK                            x       y       z     vdW  Elec       q    Type
REMARK                         _______ _______ _______ _____ _____    ______ ____
ROOT
ATOM      1  C   LIG A   1      -8.000  -3.159 130.101  0.00  0.00    +0.000 C 
ENDROOT
BRANCH   1   2
ATOM      2  C   LIG A   1      -6.897  -3.279 131.164  0.00  0.00    +0.000 C 
BRANCH   2   3
ATOM      3  C   LIG A   1      -5.853  -4.366 130.890  0.00  0.00    +0.000 C 
BRANCH   3   4
ATOM      4  C   LIG A   1      -4.413  -3.885 130.820  0.00  0.00    +0.004 C 
BRANCH   4   5
ATOM      5  C   LIG A   1      -4.137  -3.249 129.480  0.00  0.00    +0.027 C 
BRANCH   5   7
ATOM      6  C   LIG A   1      -5.077  -1.208 128.344  0.00  0.00    -0.031 C 
ATOM      7  C   LIG A   1      -4.565  -1.812 129.410  0.00  0.00    -0.031 C 
BRANCH   6   8
ATOM      8  C   LIG A   1      -5.403  -1.818 126.993  0.00  0.00    +0.027 C 
BRANCH   8   9
ATOM      9  C   LIG A   1      -5.336  -0.810 125.839  0.00  0.00    +0.004 C 
BRANCH   9  10
ATOM     10  C   LIG A   1      -5.637  -1.434 124.473  0.00  0.00    +0.000 C 
BRANCH  10  11
ATOM     11  C   LIG A   1      -5.469  -2.957 124.486  0.00  0.00    -0.000 C 
BRANCH  11  13
ATOM     12  C   LIG A   1      -4.254  -4.967 123.454  0.00  0.00    +0.004 C 
ATOM     13  C   LIG A   1      -4.474  -3.461 123.434  0.00  0.00    -0.003 C 
ENDBRANCH  11  13
ENDBRANCH  10  11
ENDBRANCH   9  10
ENDBRANCH   8   9
ENDBRANCH   6   8
ENDBRANCH   5   7
ENDBRANCH   4   5
ENDBRANCH   3   4
ENDBRANCH   2   3
ENDBRANCH   1   2
BRANCH   1  14
ATOM     14  C   LIG A   1      -7.668  -3.721 128.714  0.00  0.00    +0.005 C 
BRANCH  14  15
ATOM     15  C   LIG A   1      -8.872  -3.802 127.776  0.00  0.00    +0.035 C 
BRANCH  15  16
ATOM     16  C   LIG A   1      -8.887  -2.895 126.585  0.00  0.00    -0.041 A 
ATOM     17  C   LIG A   1      -9.029  -3.478 125.321  0.00  0.00    +0.049 A 
ATOM     18  C   LIG A   1      -9.125  -2.675 124.191  0.00  0.00    +0.123 A 
ATOM     19  C   LIG A   1      -9.091  -1.282 124.299  0.00  0.00    +0.032 A 
ATOM     20  C   LIG A   1      -9.185  -0.418 123.080  0.00  0.00    +0.051 C 
ATOM     21  C   LIG A   1      -9.032  -0.713 125.576  0.00  0.00    +0.123 A 
ATOM     22  C   LIG A   1      -8.945  -1.506 126.713  0.00  0.00    +0.049 A 
BRANCH  18  23
ATOM     23  O   LIG A   1      -9.257  -3.256 122.962  0.00  0.00    -0.506 OA
ATOM     24  H   LIG A   1      -8.395  -3.242 122.515  0.00  0.00    +0.292 HD
ENDBRANCH  18  23
BRANCH  21  25
ATOM     25  O   LIG A   1      -9.064   0.648 125.711  0.00  0.00    -0.506 OA
ATOM     26  H   LIG A   1      -9.981   0.922 125.872  0.00  0.00    +0.292 HD
ENDBRANCH  21  25
ENDBRANCH  15  16
ENDBRANCH  14  15
ENDBRANCH   1  14
TORSDOF 15
ENDMDL
MODEL 4
REMARK VINA RESULT:      -6.0      0.952      2.167
REMARK  Name = NuBBE_1683
REMARK  17 active torsions:
REMARK  status: ('A' for Active; 'I' for Inactive)
REMARK    1  A    between atoms: C_1  and  C_2
REMARK    2  A    between atoms: C_2  and  C_3
REMARK    3  A    between atoms: C_3  and  C_4
REMARK    4  A    between atoms: C_4  and  C_5
REMARK    5  A    between atoms: C_5  and  C_6
REMARK    6  A    between atoms: C_6  and  C_7
REMARK    7  A    between atoms: C_8  and  C_9
REMARK    8  A    between atoms: C_9  and  C_10
REMARK    9  A    between atoms: C_10  and  C_11
REMARK   10  A    between atoms: C_11  and  C_12
REMARK   11  A    between atoms: C_12  and  C_13
REMARK   12  A    between atoms: C_13  and  C_14
REMARK   13  A    between atoms: C_14  and  C_15
REMARK   14  A    between atoms: C_15  and  C_16
REMARK   15  A    between atoms: C_18  and  O_19
REMARK   16  A    between atoms: C_20  and  C_21
REMARK   17  A    between atoms: C_22  and  O_23
REMARK                            x       y       z     vdW  Elec       q    Type
REMARK                         _______ _______ _______ _____ _____    ______ ____
ROOT
ATOM      1  C   LIG A   1      -6.253   3.177 125.197  0.00  0.00    +0.000 C 
ENDROOT
BRANCH   1   2
ATOM      2  C   LIG A   1      -5.771   2.457 126.466  0.00  0.00    +0.000 C 
BRANCH   2   3
ATOM      3  C   LIG A   1      -4.801   1.297 126.219  0.00  0.00    +0.000 C 
BRANCH   3   4
ATOM      4  C   LIG A   1      -5.375  -0.092 126.444  0.00  0.00    +0.004 C 
BRANCH   4   5
ATOM      5  C   LIG A   1      -6.507  -0.355 125.482  0.00  0.00    +0.027 C 
BRANCH   5   7
ATOM      6  C   LIG A   1      -6.869  -1.495 123.266  0.00  0.00    -0.031 C 
ATOM      7  C   LIG A   1      -6.070  -1.080 124.242  0.00  0.00    -0.031 C 
BRANCH   6   8
ATOM      8  C   LIG A   1      -8.367  -1.291 123.137  0.00  0.00    +0.027 C 
BRANCH   8   9
ATOM      9  C   LIG A   1      -9.171  -2.592 123.256  0.00  0.00    +0.004 C 
BRANCH   9  10
ATOM     10  C   LIG A   1      -8.746  -3.458 124.446  0.00  0.00    +0.000 C 
BRANCH  10  11
ATOM     11  C   LIG A   1      -9.490  -3.078 125.730  0.00  0.00    -0.000 C 
BRANCH  11  13
ATOM     12  C   LIG A   1      -8.881  -3.964 128.059  0.00  0.00    +0.004 C 
ATOM     13  C   LIG A   1      -8.567  -2.970 126.949  0.00  0.00    -0.003 C 
ENDBRANCH  11  13
ENDBRANCH  10  11
ENDBRANCH   9  10
ENDBRANCH   8   9
ENDBRANCH   6   8
ENDBRANCH   5   7
ENDBRANCH   4   5
ENDBRANCH   3   4
ENDBRANCH   2   3
ENDBRANCH   1   2
BRANCH   1  14
ATOM     14  C   LIG A   1      -7.761   3.138 124.927  0.00  0.00    +0.005 C 
BRANCH  14  15
ATOM     15  C   LIG A   1      -8.142   2.386 123.653  0.00  0.00    +0.035 C 
BRANCH  15  16
ATOM     16  C   LIG A   1      -7.897   3.069 122.343  0.00  0.00    -0.041 A 
ATOM     17  C   LIG A   1      -6.570   3.325 121.979  0.00  0.00    +0.049 A 
ATOM     18  C   LIG A   1      -6.286   3.888 120.741  0.00  0.00    +0.123 A 
ATOM     19  C   LIG A   1      -7.311   4.195 119.842  0.00  0.00    +0.032 A 
ATOM     20  C   LIG A   1      -7.004   4.810 118.512  0.00  0.00    +0.051 C 
ATOM     21  C   LIG A   1      -8.624   3.856 120.187  0.00  0.00    +0.123 A 
ATOM     22  C   LIG A   1      -8.919   3.286 121.418  0.00  0.00    +0.049 A 
BRANCH  18  23
ATOM     23  O   LIG A   1      -4.987   4.140 120.398  0.00  0.00    -0.506 OA
ATOM     24  H   LIG A   1      -4.536   4.545 121.157  0.00  0.00    +0.292 HD
ENDBRANCH  18  23
BRANCH  21  25
ATOM     25  O   LIG A   1      -9.637   4.087 119.297  0.00  0.00    -0.506 OA
ATOM     26  H   LIG A   1     -10.083   3.245 119.112  0.00  0.00    +0.292 HD
ENDBRANCH  21  25
ENDBRANCH  15  16
ENDBRANCH  14  15
ENDBRANCH   1  14
TORSDOF 15
ENDMDL
MODEL 5
REMARK VINA RESULT:      -5.9      1.502      3.422
REMARK  Name = NuBBE_1683
REMARK  17 active torsions:
REMARK  status: ('A' for Active; 'I' for Inactive)
REMARK    1  A    between atoms: C_1  and  C_2
REMARK    2  A    between atoms: C_2  and  C_3
REMARK    3  A    between atoms: C_3  and  C_4
REMARK    4  A    between atoms: C_4  and  C_5
REMARK    5  A    between atoms: C_5  and  C_6
REMARK    6  A    between atoms: C_6  and  C_7
REMARK    7  A    between atoms: C_8  and  C_9
REMARK    8  A    between atoms: C_9  and  C_10
REMARK    9  A    between atoms: C_10  and  C_11
REMARK   10  A    between atoms: C_11  and  C_12
REMARK   11  A    between atoms: C_12  and  C_13
REMARK   12  A    between atoms: C_13  and  C_14
REMARK   13  A    between atoms: C_14  and  C_15
REMARK   14  A    between atoms: C_15  and  C_16
REMARK   15  A    between atoms: C_18  and  O_19
REMARK   16  A    between atoms: C_20  and  C_21
REMARK   17  A    between atoms: C_22  and  O_23
REMARK                            x       y       z     vdW  Elec       q    Type
REMARK                         _______ _______ _______ _____ _____    ______ ____
ROOT
ATOM      1  C   LIG A   1      -9.258  -0.285 124.932  0.00  0.00    +0.000 C 
ENDROOT
BRANCH   1   2
ATOM      2  C   LIG A   1      -9.032  -0.663 123.460  0.00  0.00    +0.000 C 
BRANCH   2   3
ATOM      3  C   LIG A   1      -8.748  -2.148 123.212  0.00  0.00    +0.000 C 
BRANCH   3   4
ATOM      4  C   LIG A   1      -8.594  -3.001 124.460  0.00  0.00    +0.004 C 
BRANCH   4   5
ATOM      5  C   LIG A   1      -7.255  -3.697 124.459  0.00  0.00    +0.027 C 
BRANCH   5   7
ATOM      6  C   LIG A   1      -5.582  -1.814 124.469  0.00  0.00    -0.031 C 
ATOM      7  C   LIG A   1      -6.155  -2.856 123.877  0.00  0.00    -0.031 C 
BRANCH   6   8
ATOM      8  C   LIG A   1      -5.847  -1.270 125.860  0.00  0.00    +0.027 C 
BRANCH   8   9
ATOM      9  C   LIG A   1      -5.394  -2.217 126.980  0.00  0.00    +0.004 C 
BRANCH   9  10
ATOM     10  C   LIG A   1      -6.156  -2.008 128.292  0.00  0.00    +0.000 C 
BRANCH  10  11
ATOM     11  C   LIG A   1      -7.674  -2.056 128.091  0.00  0.00    -0.000 C 
BRANCH  11  13
ATOM     12  C   LIG A   1      -9.188  -4.119 127.909  0.00  0.00    +0.004 C 
ATOM     13  C   LIG A   1      -8.338  -3.235 128.811  0.00  0.00    -0.003 C 
ENDBRANCH  11  13
ENDBRANCH  10  11
ENDBRANCH   9  10
ENDBRANCH   8   9
ENDBRANCH   6   8
ENDBRANCH   5   7
ENDBRANCH   4   5
ENDBRANCH   3   4
ENDBRANCH   2   3
ENDBRANCH   1   2
BRANCH   1  14
ATOM     14  C   LIG A   1      -8.939   1.163 125.316  0.00  0.00    +0.005 C 
BRANCH  14  15
ATOM     15  C   LIG A   1      -9.267   2.179 124.223  0.00  0.00    +0.035 C 
BRANCH  15  16
ATOM     16  C   LIG A   1      -8.122   2.875 123.555  0.00  0.00    -0.041 A 
ATOM     17  C   LIG A   1      -7.012   3.208 124.340  0.00  0.00    +0.049 A 
ATOM     18  C   LIG A   1      -5.894   3.787 123.752  0.00  0.00    +0.123 A 
ATOM     19  C   LIG A   1      -5.855   4.035 122.377  0.00  0.00    +0.032 A 
ATOM     20  C   LIG A   1      -4.654   4.667 121.747  0.00  0.00    +0.051 C 
ATOM     21  C   LIG A   1      -6.938   3.620 121.594  0.00  0.00    +0.123 A 
ATOM     22  C   LIG A   1      -8.058   3.033 122.169  0.00  0.00    +0.049 A 
BRANCH  18  23
ATOM     23  O   LIG A   1      -4.819   4.114 124.529  0.00  0.00    -0.506 OA
ATOM     24  H   LIG A   1      -4.986   3.814 125.438  0.00  0.00    +0.292 HD
ENDBRANCH  18  23
BRANCH  21  25
ATOM     25  O   LIG A   1      -6.896   3.793 120.238  0.00  0.00    -0.506 OA
ATOM     26  H   LIG A   1      -6.299   3.127 119.860  0.00  0.00    +0.292 HD
ENDBRANCH  21  25
ENDBRANCH  15  16
ENDBRANCH  14  15
ENDBRANCH   1  14
TORSDOF 15
ENDMDL
MODEL 6
REMARK VINA RESULT:      -5.8      1.107      3.013
REMARK  Name = NuBBE_1683
REMARK  17 active torsions:
REMARK  status: ('A' for Active; 'I' for Inactive)
REMARK    1  A    between atoms: C_1  and  C_2
REMARK    2  A    between atoms: C_2  and  C_3
REMARK    3  A    between atoms: C_3  and  C_4
REMARK    4  A    between atoms: C_4  and  C_5
REMARK    5  A    between atoms: C_5  and  C_6
REMARK    6  A    between atoms: C_6  and  C_7
REMARK    7  A    between atoms: C_8  and  C_9
REMARK    8  A    between atoms: C_9  and  C_10
REMARK    9  A    between atoms: C_10  and  C_11
REMARK   10  A    between atoms: C_11  and  C_12
REMARK   11  A    between atoms: C_12  and  C_13
REMARK   12  A    between atoms: C_13  and  C_14
REMARK   13  A    between atoms: C_14  and  C_15
REMARK   14  A    between atoms: C_15  and  C_16
REMARK   15  A    between atoms: C_18  and  O_19
REMARK   16  A    between atoms: C_20  and  C_21
REMARK   17  A    between atoms: C_22  and  O_23
REMARK                            x       y       z     vdW  Elec       q    Type
REMARK                         _______ _______ _______ _____ _____    ______ ____
ROOT
ATOM      1  C   LIG A   1      -7.616   3.248 125.444  0.00  0.00    +0.000 C 
ENDROOT
BRANCH   1   2
ATOM      2  C   LIG A   1      -7.036   2.575 126.697  0.00  0.00    +0.000 C 
BRANCH   2   3
ATOM      3  C   LIG A   1      -6.645   1.104 126.517  0.00  0.00    +0.000 C 
BRANCH   3   4
ATOM      4  C   LIG A   1      -7.448   0.109 127.337  0.00  0.00    +0.004 C 
BRANCH   4   5
ATOM      5  C   LIG A   1      -7.644  -1.172 126.564  0.00  0.00    +0.027 C 
BRANCH   5   7
ATOM      6  C   LIG A   1      -9.252  -1.927 124.779  0.00  0.00    -0.031 C 
ATOM      7  C   LIG A   1      -8.984  -1.256 125.894  0.00  0.00    -0.031 C 
BRANCH   6   8
ATOM      8  C   LIG A   1      -8.311  -2.798 123.967  0.00  0.00    +0.027 C 
BRANCH   8   9
ATOM      9  C   LIG A   1      -7.719  -2.081 122.747  0.00  0.00    +0.004 C 
BRANCH   9  10
ATOM     10  C   LIG A   1      -6.292  -1.574 122.978  0.00  0.00    +0.000 C 
BRANCH  10  11
ATOM     11  C   LIG A   1      -5.524  -2.451 123.973  0.00  0.00    -0.000 C 
BRANCH  11  13
ATOM     12  C   LIG A   1      -4.485  -4.773 123.643  0.00  0.00    +0.004 C 
ATOM     13  C   LIG A   1      -4.424  -3.289 123.311  0.00  0.00    -0.003 C 
ENDBRANCH  11  13
ENDBRANCH  10  11
ENDBRANCH   9  10
ENDBRANCH   8   9
ENDBRANCH   6   8
ENDBRANCH   5   7
ENDBRANCH   4   5
ENDBRANCH   3   4
ENDBRANCH   2   3
ENDBRANCH   1   2
BRANCH   1  14
ATOM     14  C   LIG A   1      -8.818   2.552 124.795  0.00  0.00    +0.005 C 
BRANCH  14  15
ATOM     15  C   LIG A   1      -8.484   1.831 123.490  0.00  0.00    +0.035 C 
BRANCH  15  16
ATOM     16  C   LIG A   1      -8.105   2.670 122.310  0.00  0.00    -0.041 A 
ATOM     17  C   LIG A   1      -6.742   2.877 122.066  0.00  0.00    +0.049 A 
ATOM     18  C   LIG A   1      -6.338   3.586 120.941  0.00  0.00    +0.123 A 
ATOM     19  C   LIG A   1      -7.277   4.089 120.036  0.00  0.00    +0.032 A 
ATOM     20  C   LIG A   1      -6.839   4.858 118.829  0.00  0.00    +0.051 C 
ATOM     21  C   LIG A   1      -8.629   3.801 120.249  0.00  0.00    +0.123 A 
ATOM     22  C   LIG A   1      -9.045   3.087 121.366  0.00  0.00    +0.049 A 
BRANCH  18  23
ATOM     23  O   LIG A   1      -5.006   3.788 120.717  0.00  0.00    -0.506 OA
ATOM     24  H   LIG A   1      -4.701   4.518 121.281  0.00  0.00    +0.292 HD
ENDBRANCH  18  23
BRANCH  21  25
ATOM     25  O   LIG A   1      -9.561   4.226 119.343  0.00  0.00    -0.506 OA
ATOM     26  H   LIG A   1     -10.439   4.173 119.754  0.00  0.00    +0.292 HD
ENDBRANCH  21  25
ENDBRANCH  15  16
ENDBRANCH  14  15
ENDBRANCH   1  14
TORSDOF 15
ENDMDL
MODEL 7
REMARK VINA RESULT:      -5.8      7.716     10.100
REMARK  Name = NuBBE_1683
REMARK  17 active torsions:
REMARK  status: ('A' for Active; 'I' for Inactive)
REMARK    1  A    between atoms: C_1  and  C_2
REMARK    2  A    between atoms: C_2  and  C_3
REMARK    3  A    between atoms: C_3  and  C_4
REMARK    4  A    between atoms: C_4  and  C_5
REMARK    5  A    between atoms: C_5  and  C_6
REMARK    6  A    between atoms: C_6  and  C_7
REMARK    7  A    between atoms: C_8  and  C_9
REMARK    8  A    between atoms: C_9  and  C_10
REMARK    9  A    between atoms: C_10  and  C_11
REMARK   10  A    between atoms: C_11  and  C_12
REMARK   11  A    between atoms: C_12  and  C_13
REMARK   12  A    between atoms: C_13  and  C_14
REMARK   13  A    between atoms: C_14  and  C_15
REMARK   14  A    between atoms: C_15  and  C_16
REMARK   15  A    between atoms: C_18  and  O_19
REMARK   16  A    between atoms: C_20  and  C_21
REMARK   17  A    between atoms: C_22  and  O_23
REMARK                            x       y       z     vdW  Elec       q    Type
REMARK                         _______ _______ _______ _____ _____    ______ ____
ROOT
ATOM      1  C   LIG A   1      -5.916   5.175 132.351  0.00  0.00    +0.000 C 
ENDROOT
BRANCH   1   2
ATOM      2  C   LIG A   1      -5.303   4.450 131.143  0.00  0.00    +0.000 C 
BRANCH   2   3
ATOM      3  C   LIG A   1      -3.847   4.010 131.327  0.00  0.00    +0.000 C 
BRANCH   3   4
ATOM      4  C   LIG A   1      -3.036   4.833 132.315  0.00  0.00    +0.004 C 
BRANCH   4   5
ATOM      5  C   LIG A   1      -2.144   5.804 131.582  0.00  0.00    +0.027 C 
BRANCH   5   7
ATOM      6  C   LIG A   1      -3.314   8.004 131.218  0.00  0.00    -0.031 C 
ATOM      7  C   LIG A   1      -2.459   7.239 131.888  0.00  0.00    -0.031 C 
BRANCH   6   8
ATOM      8  C   LIG A   1      -4.202   7.609 130.053  0.00  0.00    +0.027 C 
BRANCH   8   9
ATOM      9  C   LIG A   1      -3.449   7.510 128.721  0.00  0.00    +0.004 C 
BRANCH   9  10
ATOM     10  C   LIG A   1      -3.672   6.178 127.998  0.00  0.00    +0.000 C 
BRANCH  10  11
ATOM     11  C   LIG A   1      -2.439   5.272 128.067  0.00  0.00    -0.000 C 
BRANCH  11  13
ATOM     12  C   LIG A   1      -1.923   3.178 126.677  0.00  0.00    +0.004 C 
ATOM     13  C   LIG A   1      -2.759   3.799 127.787  0.00  0.00    -0.003 C 
ENDBRANCH  11  13
ENDBRANCH  10  11
ENDBRANCH   9  10
ENDBRANCH   8   9
ENDBRANCH   6   8
ENDBRANCH   5   7
ENDBRANCH   4   5
ENDBRANCH   3   4
ENDBRANCH   2   3
ENDBRANCH   1   2
BRANCH   1  14
ATOM     14  C   LIG A   1      -6.872   6.331 132.034  0.00  0.00    +0.005 C 
BRANCH  14  15
ATOM     15  C   LIG A   1      -8.300   6.104 132.525  0.00  0.00    +0.035 C 
BRANCH  15  16
ATOM     16  C   LIG A   1      -9.406   6.207 131.521  0.00  0.00    -0.041 A 
ATOM     17  C   LIG A   1     -10.703   6.427 131.998  0.00  0.00    +0.049 A 
ATOM     18  C   LIG A   1     -11.751   6.604 131.103  0.00  0.00    +0.123 A 
ATOM     19  C   LIG A   1     -11.528   6.577 129.723  0.00  0.00    +0.032 A 
ATOM     20  C   LIG A   1     -12.659   6.759 128.761  0.00  0.00    +0.051 C 
ATOM     21  C   LIG A   1     -10.213   6.439 129.264  0.00  0.00    +0.123 A 
ATOM     22  C   LIG A   1      -9.156   6.269 130.149  0.00  0.00    +0.049 A 
BRANCH  18  23
ATOM     23  O   LIG A   1     -13.015   6.812 131.580  0.00  0.00    -0.506 OA
ATOM     24  H   LIG A   1     -12.956   7.130 132.496  0.00  0.00    +0.292 HD
ENDBRANCH  18  23
BRANCH  21  25
ATOM     25  O   LIG A   1      -9.961   6.474 127.920  0.00  0.00    -0.506 OA
ATOM     26  H   LIG A   1      -9.159   7.001 127.770  0.00  0.00    +0.292 HD
ENDBRANCH  21  25
ENDBRANCH  15  16
ENDBRANCH  14  15
ENDBRANCH   1  14
TORSDOF 15
ENDMDL
MODEL 8
REMARK VINA RESULT:      -5.8      5.501      9.361
REMARK  Name = NuBBE_1683
REMARK  17 active torsions:
REMARK  status: ('A' for Active; 'I' for Inactive)
REMARK    1  A    between atoms: C_1  and  C_2
REMARK    2  A    between atoms: C_2  and  C_3
REMARK    3  A    between atoms: C_3  and  C_4
REMARK    4  A    between atoms: C_4  and  C_5
REMARK    5  A    between atoms: C_5  and  C_6
REMARK    6  A    between atoms: C_6  and  C_7
REMARK    7  A    between atoms: C_8  and  C_9
REMARK    8  A    between atoms: C_9  and  C_10
REMARK    9  A    between atoms: C_10  and  C_11
REMARK   10  A    between atoms: C_11  and  C_12
REMARK   11  A    between atoms: C_12  and  C_13
REMARK   12  A    between atoms: C_13  and  C_14
REMARK   13  A    between atoms: C_14  and  C_15
REMARK   14  A    between atoms: C_15  and  C_16
REMARK   15  A    between atoms: C_18  and  O_19
REMARK   16  A    between atoms: C_20  and  C_21
REMARK   17  A    between atoms: C_22  and  O_23
REMARK                            x       y       z     vdW  Elec       q    Type
REMARK                         _______ _______ _______ _____ _____    ______ ____
ROOT
ATOM      1  C   LIG A   1      -8.740  -3.588 127.491  0.00  0.00    +0.000 C 
ENDROOT
BRANCH   1   2
ATOM      2  C   LIG A   1      -9.232  -3.061 126.133  0.00  0.00    +0.000 C 
BRANCH   2   3
ATOM      3  C   LIG A   1      -8.669  -3.800 124.914  0.00  0.00    +0.000 C 
BRANCH   3   4
ATOM      4  C   LIG A   1      -8.639  -3.000 123.623  0.00  0.00    +0.004 C 
BRANCH   4   5
ATOM      5  C   LIG A   1      -9.049  -1.570 123.881  0.00  0.00    +0.027 C 
BRANCH   5   7
ATOM      6  C   LIG A   1      -7.238   0.179 123.862  0.00  0.00    -0.031 C 
ATOM      7  C   LIG A   1      -8.137  -0.570 123.233  0.00  0.00    -0.031 C 
BRANCH   6   8
ATOM      8  C   LIG A   1      -6.879   0.164 125.336  0.00  0.00    +0.027 C 
BRANCH   8   9
ATOM      9  C   LIG A   1      -5.528  -0.503 125.627  0.00  0.00    +0.004 C 
BRANCH   9  10
ATOM     10  C   LIG A   1      -5.603  -2.033 125.653  0.00  0.00    +0.000 C 
BRANCH  10  11
ATOM     11  C   LIG A   1      -5.047  -2.659 124.371  0.00  0.00    -0.000 C 
BRANCH  11  13
ATOM     12  C   LIG A   1      -4.221  -4.830 123.281  0.00  0.00    +0.004 C 
ATOM     13  C   LIG A   1      -5.004  -4.191 124.419  0.00  0.00    -0.003 C 
ENDBRANCH  11  13
ENDBRANCH  10  11
ENDBRANCH   9  10
ENDBRANCH   8   9
ENDBRANCH   6   8
ENDBRANCH   5   7
ENDBRANCH   4   5
ENDBRANCH   3   4
ENDBRANCH   2   3
ENDBRANCH   1   2
BRANCH   1  14
ATOM     14  C   LIG A   1      -8.043  -2.570 128.400  0.00  0.00    +0.005 C 
BRANCH  14  15
ATOM     15  C   LIG A   1      -6.734  -3.075 129.003  0.00  0.00    +0.035 C 
BRANCH  15  16
ATOM     16  C   LIG A   1      -6.714  -3.376 130.469  0.00  0.00    -0.041 A 
ATOM     17  C   LIG A   1      -5.809  -4.342 130.926  0.00  0.00    +0.049 A 
ATOM     18  C   LIG A   1      -5.699  -4.604 132.286  0.00  0.00    +0.123 A 
ATOM     19  C   LIG A   1      -6.476  -3.905 133.214  0.00  0.00    +0.032 A 
ATOM     20  C   LIG A   1      -6.363  -4.195 134.678  0.00  0.00    +0.051 C 
ATOM     21  C   LIG A   1      -7.314  -2.886 132.749  0.00  0.00    +0.123 A 
ATOM     22  C   LIG A   1      -7.426  -2.609 131.393  0.00  0.00    +0.049 A 
BRANCH  18  23
ATOM     23  O   LIG A   1      -4.818  -5.554 132.719  0.00  0.00    -0.506 OA
ATOM     24  H   LIG A   1      -3.914  -5.249 132.537  0.00  0.00    +0.292 HD
ENDBRANCH  18  23
BRANCH  21  25
ATOM     25  O   LIG A   1      -8.036  -2.144 133.644  0.00  0.00    -0.506 OA
ATOM     26  H   LIG A   1      -7.752  -2.381 134.542  0.00  0.00    +0.292 HD
ENDBRANCH  21  25
ENDBRANCH  15  16
ENDBRANCH  14  15
ENDBRANCH   1  14
TORSDOF 15
ENDMDL
MODEL 9
REMARK VINA RESULT:      -5.8      4.906      8.796
REMARK  Name = NuBBE_1683
REMARK  17 active torsions:
REMARK  status: ('A' for Active; 'I' for Inactive)
REMARK    1  A    between atoms: C_1  and  C_2
REMARK    2  A    between atoms: C_2  and  C_3
REMARK    3  A    between atoms: C_3  and  C_4
REMARK    4  A    between atoms: C_4  and  C_5
REMARK    5  A    between atoms: C_5  and  C_6
REMARK    6  A    between atoms: C_6  and  C_7
REMARK    7  A    between atoms: C_8  and  C_9
REMARK    8  A    between atoms: C_9  and  C_10
REMARK    9  A    between atoms: C_10  and  C_11
REMARK   10  A    between atoms: C_11  and  C_12
REMARK   11  A    between atoms: C_12  and  C_13
REMARK   12  A    between atoms: C_13  and  C_14
REMARK   13  A    between atoms: C_14  and  C_15
REMARK   14  A    between atoms: C_15  and  C_16
REMARK   15  A    between atoms: C_18  and  O_19
REMARK   16  A    between atoms: C_20  and  C_21
REMARK   17  A    between atoms: C_22  and  O_23
REMARK                            x       y       z     vdW  Elec       q    Type
REMARK                         _______ _______ _______ _____ _____    ______ ____
ROOT
ATOM      1  C   LIG A   1      -8.804  -3.593 127.209  0.00  0.00    +0.000 C 
ENDROOT
BRANCH   1   2
ATOM      2  C   LIG A   1      -9.156  -2.892 125.887  0.00  0.00    +0.000 C 
BRANCH   2   3
ATOM      3  C   LIG A   1      -8.801  -3.684 124.624  0.00  0.00    +0.000 C 
BRANCH   3   4
ATOM      4  C   LIG A   1      -9.400  -3.155 123.332  0.00  0.00    +0.004 C 
BRANCH   4   5
ATOM      5  C   LIG A   1      -8.532  -2.060 122.760  0.00  0.00    +0.027 C 
BRANCH   5   7
ATOM      6  C   LIG A   1      -8.450   0.323 123.569  0.00  0.00    -0.031 C 
ATOM      7  C   LIG A   1      -9.090  -0.686 122.989  0.00  0.00    -0.031 C 
BRANCH   6   8
ATOM      8  C   LIG A   1      -7.019   0.353 124.072  0.00  0.00    +0.027 C 
BRANCH   8   9
ATOM      9  C   LIG A   1      -6.891   0.022 125.564  0.00  0.00    +0.004 C 
BRANCH   9  10
ATOM     10  C   LIG A   1      -5.829  -1.041 125.859  0.00  0.00    +0.000 C 
BRANCH  10  11
ATOM     11  C   LIG A   1      -5.314  -1.711 124.581  0.00  0.00    -0.000 C 
BRANCH  11  13
ATOM     12  C   LIG A   1      -4.672  -3.930 123.466  0.00  0.00    +0.004 C 
ATOM     13  C   LIG A   1      -5.301  -3.242 124.669  0.00  0.00    -0.003 C 
ENDBRANCH  11  13
ENDBRANCH  10  11
ENDBRANCH   9  10
ENDBRANCH   8   9
ENDBRANCH   6   8
ENDBRANCH   5   7
ENDBRANCH   4   5
ENDBRANCH   3   4
ENDBRANCH   2   3
ENDBRANCH   1   2
BRANCH   1  14
ATOM     14  C   LIG A   1      -8.095  -2.735 128.263  0.00  0.00    +0.005 C 
BRANCH  14  15
ATOM     15  C   LIG A   1      -8.045  -3.375 129.649  0.00  0.00    +0.035 C 
BRANCH  15  16
ATOM     16  C   LIG A   1      -6.809  -3.166 130.467  0.00  0.00    -0.041 A 
ATOM     17  C   LIG A   1      -6.967  -2.841 131.819  0.00  0.00    +0.049 A 
ATOM     18  C   LIG A   1      -5.852  -2.711 132.638  0.00  0.00    +0.123 A 
ATOM     19  C   LIG A   1      -4.565  -2.912 132.132  0.00  0.00    +0.032 A 
ATOM     20  C   LIG A   1      -3.365  -2.763 133.013  0.00  0.00    +0.051 C 
ATOM     21  C   LIG A   1      -4.428  -3.318 130.800  0.00  0.00    +0.123 A 
ATOM     22  C   LIG A   1      -5.536  -3.459 129.974  0.00  0.00    +0.049 A 
BRANCH  18  23
ATOM     23  O   LIG A   1      -6.019  -2.386 133.955  0.00  0.00    -0.506 OA
ATOM     24  H   LIG A   1      -6.368  -1.482 134.013  0.00  0.00    +0.292 HD
ENDBRANCH  18  23
BRANCH  21  25
ATOM     25  O   LIG A   1      -3.183  -3.584 130.300  0.00  0.00    -0.506 OA
ATOM     26  H   LIG A   1      -2.636  -2.786 130.392  0.00  0.00    +0.292 HD
ENDBRANCH  21  25
ENDBRANCH  15  16
ENDBRANCH  14  15
ENDBRANCH   1  14
TORSDOF 15
ENDMDL
