MODEL 1
REMARK VINA RESULT:      -7.8      0.000      0.000
REMARK  Name = NuBBE_1820
REMARK  24 active torsions:
REMARK  status: ('A' for Active; 'I' for Inactive)
REMARK    1  A    between atoms: C_2  and  C_3
REMARK    2  A    between atoms: C_2  and  C_51
REMARK    3  A    between atoms: C_4  and  C_50
REMARK    4  A    between atoms: C_8  and  O_40
REMARK    5  A    between atoms: C_10  and  O_11
REMARK    6  A    between atoms: O_11  and  C_12
REMARK    7  A    between atoms: C_14  and  O_36
REMARK    8  A    between atoms: C_16  and  O_32
REMARK    9  A    between atoms: C_18  and  O_28
REMARK   10  A    between atoms: C_20  and  C_23
REMARK   11  A    between atoms: C_23  and  O_24
REMARK   12  A    between atoms: O_24  and  C_25
REMARK   13  A    between atoms: C_25  and  C_26
REMARK   14  A    between atoms: O_28  and  C_29
REMARK   15  A    between atoms: C_29  and  C_30
REMARK   16  A    between atoms: O_32  and  C_33
REMARK   17  A    between atoms: C_33  and  C_34
REMARK   18  A    between atoms: O_36  and  C_37
REMARK   19  A    between atoms: C_37  and  C_38
REMARK   20  A    between atoms: O_40  and  C_41
REMARK   21  A    between atoms: C_41  and  C_42
REMARK   22  A    between atoms: C_45  and  O_46
REMARK   23  A    between atoms: O_46  and  C_47
REMARK   24  A    between atoms: C_47  and  C_48
REMARK                            x       y       z     vdW  Elec       q    Type
REMARK                         _______ _______ _______ _____ _____    ______ ____
ROOT
ATOM      1  O   LIG A   1      -7.034   2.304 128.304  0.00  0.00    -0.459 OA
ENDROOT
BRANCH   1   9
ATOM      2  C   LIG A   1      -6.533  -0.770 131.392  0.00  0.00    +0.063 A 
ATOM      3  C   LIG A   1      -7.667  -1.019 132.167  0.00  0.00    -0.036 A 
ATOM      4  C   LIG A   1      -8.731  -0.111 132.104  0.00  0.00    +0.013 A 
ATOM      5  C   LIG A   1      -8.710   1.014 131.267  0.00  0.00    -0.007 A 
ATOM      6  C   LIG A   1      -9.793   1.901 131.322  0.00  0.00    +0.055 A 
ATOM      7  C   LIG A   1      -9.823   3.028 130.513  0.00  0.00    +0.136 A 
ATOM      8  C   LIG A   1      -8.855   3.221 129.546  0.00  0.00    +0.092 A 
ATOM      9  C   LIG A   1      -7.830   2.283 129.412  0.00  0.00    +0.139 A 
ATOM     10  C   LIG A   1      -7.630   1.241 130.382  0.00  0.00    +0.067 A 
ATOM     11  C   LIG A   1      -6.489   0.379 130.559  0.00  0.00    +0.153 A 
ATOM     12  C   LIG A   1      -7.765  -2.179 133.117  0.00  0.00    +0.044 C 
BRANCH   2  14
ATOM     13  O   LIG A   1      -4.582  -1.463 132.495  0.00  0.00    -0.292 OA
ATOM     14  C   LIG A   1      -5.345  -1.655 131.567  0.00  0.00    +0.164 C 
ATOM     15  C   LIG A   1      -5.169  -2.854 130.665  0.00  0.00    +0.091 C 
ENDBRANCH   2  14
BRANCH   7  16
ATOM     16  O   LIG A   1     -10.988   3.803 130.561  0.00  0.00    -0.426 OA
BRANCH  16  17
ATOM     17  C   LIG A   1     -10.881   5.167 130.328  0.00  0.00    +0.309 C 
ATOM     18  C   LIG A   1     -10.496   5.831 131.611  0.00  0.00    +0.136 C 
ATOM     19  O   LIG A   1     -11.142   5.767 129.300  0.00  0.00    -0.251 OA
ENDBRANCH  16  17
ENDBRANCH   7  16
BRANCH  11  20
ATOM     20  O   LIG A   1      -5.246   0.683 129.967  0.00  0.00    -0.425 OA
BRANCH  20  21
ATOM     21  C   LIG A   1      -4.626   1.688 130.659  0.00  0.00    +0.309 C 
ATOM     22  C   LIG A   1      -4.065   2.741 129.720  0.00  0.00    +0.136 C 
ATOM     23  O   LIG A   1      -4.515   1.794 131.899  0.00  0.00    -0.251 OA
ENDBRANCH  20  21
ENDBRANCH  11  20
ENDBRANCH   1   9
BRANCH   1  24
ATOM     24  C   LIG A   1      -7.269   1.341 127.231  0.00  0.00    +0.353 C 
ATOM     25  C   LIG A   1      -7.562   2.165 125.974  0.00  0.00    +0.288 C 
ATOM     26  C   LIG A   1      -7.986   1.299 124.777  0.00  0.00    +0.266 C 
ATOM     27  C   LIG A   1      -7.578  -0.186 124.794  0.00  0.00    +0.253 C 
ATOM     28  C   LIG A   1      -6.709  -0.637 126.001  0.00  0.00    +0.204 C 
ATOM     29  O   LIG A   1      -6.212   0.452 126.818  0.00  0.00    -0.328 OA
BRANCH  27  30
ATOM     30  O   LIG A   1      -8.827  -0.938 124.754  0.00  0.00    -0.455 OA
BRANCH  30  31
ATOM     31  C   LIG A   1      -9.079  -1.575 123.568  0.00  0.00    +0.304 C 
ATOM     32  C   LIG A   1      -9.140  -3.066 123.753  0.00  0.00    +0.136 C 
ATOM     33  O   LIG A   1      -9.315  -1.006 122.510  0.00  0.00    -0.251 OA
ENDBRANCH  30  31
ENDBRANCH  27  30
BRANCH  26  34
ATOM     34  O   LIG A   1      -7.331   1.840 123.596  0.00  0.00    -0.454 OA
BRANCH  34  35
ATOM     35  C   LIG A   1      -8.084   2.533 122.700  0.00  0.00    +0.304 C 
ATOM     36  C   LIG A   1      -7.175   3.410 121.893  0.00  0.00    +0.136 C 
ATOM     37  O   LIG A   1      -9.293   2.441 122.565  0.00  0.00    -0.251 OA
ENDBRANCH  34  35
ENDBRANCH  26  34
BRANCH  25  38
ATOM     38  O   LIG A   1      -8.488   3.267 126.130  0.00  0.00    -0.451 OA
BRANCH  38  39
ATOM     39  C   LIG A   1      -8.044   4.524 125.902  0.00  0.00    +0.304 C 
ATOM     40  C   LIG A   1      -6.590   4.530 125.605  0.00  0.00    +0.136 C 
ATOM     41  O   LIG A   1      -8.752   5.538 125.884  0.00  0.00    -0.251 OA
ENDBRANCH  38  39
ENDBRANCH  25  38
BRANCH  28  42
ATOM     42  C   LIG A   1      -5.483  -1.395 125.446  0.00  0.00    +0.267 C 
BRANCH  42  43
ATOM     43  O   LIG A   1      -5.800  -2.727 125.002  0.00  0.00    -0.462 OA
BRANCH  43  44
ATOM     44  C   LIG A   1      -5.397  -3.037 123.747  0.00  0.00    +0.304 C 
ATOM     45  C   LIG A   1      -4.504  -4.234 123.769  0.00  0.00    +0.136 C 
ATOM     46  O   LIG A   1      -5.695  -2.423 122.738  0.00  0.00    -0.251 OA
ENDBRANCH  43  44
ENDBRANCH  42  43
ENDBRANCH  28  42
ENDBRANCH   1  24
TORSDOF 16
ENDMDL
MODEL 2
REMARK VINA RESULT:      -7.7      1.778      4.351
REMARK  Name = NuBBE_1820
REMARK  24 active torsions:
REMARK  status: ('A' for Active; 'I' for Inactive)
REMARK    1  A    between atoms: C_2  and  C_3
REMARK    2  A    between atoms: C_2  and  C_51
REMARK    3  A    between atoms: C_4  and  C_50
REMARK    4  A    between atoms: C_8  and  O_40
REMARK    5  A    between atoms: C_10  and  O_11
REMARK    6  A    between atoms: O_11  and  C_12
REMARK    7  A    between atoms: C_14  and  O_36
REMARK    8  A    between atoms: C_16  and  O_32
REMARK    9  A    between atoms: C_18  and  O_28
REMARK   10  A    between atoms: C_20  and  C_23
REMARK   11  A    between atoms: C_23  and  O_24
REMARK   12  A    between atoms: O_24  and  C_25
REMARK   13  A    between atoms: C_25  and  C_26
REMARK   14  A    between atoms: O_28  and  C_29
REMARK   15  A    between atoms: C_29  and  C_30
REMARK   16  A    between atoms: O_32  and  C_33
REMARK   17  A    between atoms: C_33  and  C_34
REMARK   18  A    between atoms: O_36  and  C_37
REMARK   19  A    between atoms: C_37  and  C_38
REMARK   20  A    between atoms: O_40  and  C_41
REMARK   21  A    between atoms: C_41  and  C_42
REMARK   22  A    between atoms: C_45  and  O_46
REMARK   23  A    between atoms: O_46  and  C_47
REMARK   24  A    between atoms: C_47  and  C_48
REMARK                            x       y       z     vdW  Elec       q    Type
REMARK                         _______ _______ _______ _____ _____    ______ ____
ROOT
ATOM      1  O   LIG A   1      -7.317   1.866 128.428  0.00  0.00    -0.459 OA
ENDROOT
BRANCH   1   9
ATOM      2  C   LIG A   1      -7.618   4.345 132.034  0.00  0.00    +0.063 A 
ATOM      3  C   LIG A   1      -7.458   3.658 133.238  0.00  0.00    -0.036 A 
ATOM      4  C   LIG A   1      -7.510   2.259 133.220  0.00  0.00    +0.013 A 
ATOM      5  C   LIG A   1      -7.680   1.529 132.035  0.00  0.00    -0.007 A 
ATOM      6  C   LIG A   1      -7.787   0.135 132.124  0.00  0.00    +0.055 A 
ATOM      7  C   LIG A   1      -7.952  -0.634 130.982  0.00  0.00    +0.136 A 
ATOM      8  C   LIG A   1      -7.879  -0.054 129.730  0.00  0.00    +0.092 A 
ATOM      9  C   LIG A   1      -7.664   1.322 129.630  0.00  0.00    +0.139 A 
ATOM     10  C   LIG A   1      -7.730   2.182 130.780  0.00  0.00    +0.067 A 
ATOM     11  C   LIG A   1      -7.815   3.619 130.830  0.00  0.00    +0.153 A 
ATOM     12  C   LIG A   1      -7.306   4.356 134.560  0.00  0.00    +0.044 C 
BRANCH   2  14
ATOM     13  O   LIG A   1      -8.683   6.366 132.568  0.00  0.00    -0.292 OA
ATOM     14  C   LIG A   1      -7.707   5.834 132.073  0.00  0.00    +0.164 C 
ATOM     15  C   LIG A   1      -6.533   6.664 131.610  0.00  0.00    +0.091 C 
ENDBRANCH   2  14
BRANCH   7  16
ATOM     16  O   LIG A   1      -7.948  -2.024 131.155  0.00  0.00    -0.426 OA
BRANCH  16  17
ATOM     17  C   LIG A   1      -6.820  -2.732 130.767  0.00  0.00    +0.309 C 
ATOM     18  C   LIG A   1      -7.206  -3.655 129.655  0.00  0.00    +0.136 C 
ATOM     19  O   LIG A   1      -5.714  -2.708 131.281  0.00  0.00    -0.251 OA
ENDBRANCH  16  17
ENDBRANCH   7  16
BRANCH  11  20
ATOM     20  O   LIG A   1      -8.175   4.368 129.691  0.00  0.00    -0.425 OA
BRANCH  20  21
ATOM     21  C   LIG A   1      -9.530   4.554 129.656  0.00  0.00    +0.309 C 
ATOM     22  C   LIG A   1      -9.883   5.972 129.245  0.00  0.00    +0.136 C 
ATOM     23  O   LIG A   1     -10.415   3.708 129.902  0.00  0.00    -0.251 OA
ENDBRANCH  20  21
ENDBRANCH  11  20
ENDBRANCH   1   9
BRANCH   1  24
ATOM     24  C   LIG A   1      -7.438   1.065 127.213  0.00  0.00    +0.353 C 
ATOM     25  C   LIG A   1      -7.571   2.060 126.057  0.00  0.00    +0.288 C 
ATOM     26  C   LIG A   1      -7.866   1.377 124.712  0.00  0.00    +0.266 C 
ATOM     27  C   LIG A   1      -7.484  -0.108 124.570  0.00  0.00    +0.253 C 
ATOM     28  C   LIG A   1      -6.767  -0.744 125.793  0.00  0.00    +0.204 C 
ATOM     29  O   LIG A   1      -6.353   0.209 126.803  0.00  0.00    -0.328 OA
BRANCH  27  30
ATOM     30  O   LIG A   1      -8.730  -0.811 124.285  0.00  0.00    -0.455 OA
BRANCH  30  31
ATOM     31  C   LIG A   1      -8.622  -1.832 123.379  0.00  0.00    +0.304 C 
ATOM     32  C   LIG A   1      -9.152  -3.120 123.946  0.00  0.00    +0.136 C 
ATOM     33  O   LIG A   1      -8.231  -1.701 122.227  0.00  0.00    -0.251 OA
ENDBRANCH  30  31
ENDBRANCH  27  30
BRANCH  26  34
ATOM     34  O   LIG A   1      -7.071   2.053 123.698  0.00  0.00    -0.454 OA
BRANCH  34  35
ATOM     35  C   LIG A   1      -7.699   2.912 122.850  0.00  0.00    +0.304 C 
ATOM     36  C   LIG A   1      -6.674   3.514 121.938  0.00  0.00    +0.136 C 
ATOM     37  O   LIG A   1      -8.898   3.137 122.826  0.00  0.00    -0.251 OA
ENDBRANCH  34  35
ENDBRANCH  26  34
BRANCH  25  38
ATOM     38  O   LIG A   1      -8.494   3.158 126.258  0.00  0.00    -0.451 OA
BRANCH  38  39
ATOM     39  C   LIG A   1      -8.032   4.423 126.141  0.00  0.00    +0.304 C 
ATOM     40  C   LIG A   1      -6.548   4.453 126.170  0.00  0.00    +0.136 C 
ATOM     41  O   LIG A   1      -8.734   5.427 125.975  0.00  0.00    -0.251 OA
ENDBRANCH  38  39
ENDBRANCH  25  38
BRANCH  28  42
ATOM     42  C   LIG A   1      -5.496  -1.456 125.281  0.00  0.00    +0.267 C 
BRANCH  42  43
ATOM     43  O   LIG A   1      -5.714  -2.846 124.978  0.00  0.00    -0.462 OA
BRANCH  43  44
ATOM     44  C   LIG A   1      -5.246  -3.263 123.778  0.00  0.00    +0.304 C 
ATOM     45  C   LIG A   1      -4.678  -4.641 123.891  0.00  0.00    +0.136 C 
ATOM     46  O   LIG A   1      -5.259  -2.611 122.749  0.00  0.00    -0.251 OA
ENDBRANCH  43  44
ENDBRANCH  42  43
ENDBRANCH  28  42
ENDBRANCH   1  24
TORSDOF 16
ENDMDL
MODEL 3
REMARK VINA RESULT:      -7.7      2.454      8.205
REMARK  Name = NuBBE_1820
REMARK  24 active torsions:
REMARK  status: ('A' for Active; 'I' for Inactive)
REMARK    1  A    between atoms: C_2  and  C_3
REMARK    2  A    between atoms: C_2  and  C_51
REMARK    3  A    between atoms: C_4  and  C_50
REMARK    4  A    between atoms: C_8  and  O_40
REMARK    5  A    between atoms: C_10  and  O_11
REMARK    6  A    between atoms: O_11  and  C_12
REMARK    7  A    between atoms: C_14  and  O_36
REMARK    8  A    between atoms: C_16  and  O_32
REMARK    9  A    between atoms: C_18  and  O_28
REMARK   10  A    between atoms: C_20  and  C_23
REMARK   11  A    between atoms: C_23  and  O_24
REMARK   12  A    between atoms: O_24  and  C_25
REMARK   13  A    between atoms: C_25  and  C_26
REMARK   14  A    between atoms: O_28  and  C_29
REMARK   15  A    between atoms: C_29  and  C_30
REMARK   16  A    between atoms: O_32  and  C_33
REMARK   17  A    between atoms: C_33  and  C_34
REMARK   18  A    between atoms: O_36  and  C_37
REMARK   19  A    between atoms: C_37  and  C_38
REMARK   20  A    between atoms: O_40  and  C_41
REMARK   21  A    between atoms: C_41  and  C_42
REMARK   22  A    between atoms: C_45  and  O_46
REMARK   23  A    between atoms: O_46  and  C_47
REMARK   24  A    between atoms: C_47  and  C_48
REMARK                            x       y       z     vdW  Elec       q    Type
REMARK                         _______ _______ _______ _____ _____    ______ ____
ROOT
ATOM      1  O   LIG A   1      -8.021   1.701 128.358  0.00  0.00    -0.459 OA
ENDROOT
BRANCH   1   9
ATOM      2  C   LIG A   1      -8.007  -1.280 125.141  0.00  0.00    +0.063 A 
ATOM      3  C   LIG A   1      -8.250  -2.593 125.550  0.00  0.00    -0.036 A 
ATOM      4  C   LIG A   1      -8.187  -2.888 126.918  0.00  0.00    +0.013 A 
ATOM      5  C   LIG A   1      -7.924  -1.908 127.886  0.00  0.00    -0.007 A 
ATOM      6  C   LIG A   1      -7.814  -2.310 129.223  0.00  0.00    +0.055 A 
ATOM      7  C   LIG A   1      -7.558  -1.381 130.221  0.00  0.00    +0.136 A 
ATOM      8  C   LIG A   1      -7.542  -0.029 129.932  0.00  0.00    +0.092 A 
ATOM      9  C   LIG A   1      -7.759   0.387 128.617  0.00  0.00    +0.139 A 
ATOM     10  C   LIG A   1      -7.786  -0.547 127.524  0.00  0.00    +0.067 A 
ATOM     11  C   LIG A   1      -7.716  -0.283 126.109  0.00  0.00    +0.153 A 
ATOM     12  C   LIG A   1      -8.506  -3.714 124.583  0.00  0.00    +0.044 C 
BRANCH   2  14
ATOM     13  O   LIG A   1      -8.890  -0.510 123.109  0.00  0.00    -0.292 OA
ATOM     14  C   LIG A   1      -7.931  -0.996 123.678  0.00  0.00    +0.164 C 
ATOM     15  C   LIG A   1      -6.625  -1.198 122.946  0.00  0.00    +0.091 C 
ENDBRANCH   2  14
BRANCH   7  16
ATOM     16  O   LIG A   1      -7.565  -1.856 131.539  0.00  0.00    -0.426 OA
BRANCH  16  17
ATOM     17  C   LIG A   1      -6.429  -1.668 132.312  0.00  0.00    +0.309 C 
ATOM     18  C   LIG A   1      -5.498  -2.810 132.060  0.00  0.00    +0.136 C 
ATOM     19  O   LIG A   1      -6.228  -0.792 133.136  0.00  0.00    -0.251 OA
ENDBRANCH  16  17
ENDBRANCH   7  16
BRANCH  11  20
ATOM     20  O   LIG A   1      -7.278   0.964 125.620  0.00  0.00    -0.425 OA
BRANCH  20  21
ATOM     21  C   LIG A   1      -5.914   1.052 125.701  0.00  0.00    +0.309 C 
ATOM     22  C   LIG A   1      -5.439   2.478 125.492  0.00  0.00    +0.136 C 
ATOM     23  O   LIG A   1      -5.110   0.123 125.930  0.00  0.00    -0.251 OA
ENDBRANCH  20  21
ENDBRANCH  11  20
ENDBRANCH   1   9
BRANCH   1  24
ATOM     24  C   LIG A   1      -8.489   2.567 129.437  0.00  0.00    +0.353 C 
ATOM     25  C   LIG A   1      -7.453   3.687 129.565  0.00  0.00    +0.288 C 
ATOM     26  C   LIG A   1      -7.714   4.608 130.768  0.00  0.00    +0.266 C 
ATOM     27  C   LIG A   1      -9.147   4.650 131.332  0.00  0.00    +0.253 C 
ATOM     28  C   LIG A   1     -10.202   3.800 130.571  0.00  0.00    +0.204 C 
ATOM     29  O   LIG A   1      -9.739   3.273 129.303  0.00  0.00    -0.328 OA
BRANCH  27  30
ATOM     30  O   LIG A   1      -9.037   4.208 132.718  0.00  0.00    -0.455 OA
BRANCH  30  31
ATOM     31  C   LIG A   1      -8.840   5.211 133.629  0.00  0.00    +0.304 C 
ATOM     32  C   LIG A   1      -8.073   4.717 134.824  0.00  0.00    +0.136 C 
ATOM     33  O   LIG A   1      -9.164   6.379 133.459  0.00  0.00    -0.251 OA
ENDBRANCH  30  31
ENDBRANCH  27  30
BRANCH  26  34
ATOM     34  O   LIG A   1      -7.458   5.973 130.333  0.00  0.00    -0.454 OA
BRANCH  34  35
ATOM     35  C   LIG A   1      -6.364   6.614 130.828  0.00  0.00    +0.304 C 
ATOM     36  C   LIG A   1      -5.860   5.847 132.012  0.00  0.00    +0.136 C 
ATOM     37  O   LIG A   1      -5.869   7.631 130.372  0.00  0.00    -0.251 OA
ENDBRANCH  34  35
ENDBRANCH  26  34
BRANCH  25  38
ATOM     38  O   LIG A   1      -6.063   3.280 129.558  0.00  0.00    -0.451 OA
BRANCH  38  39
ATOM     39  C   LIG A   1      -5.188   3.976 128.797  0.00  0.00    +0.304 C 
ATOM     40  C   LIG A   1      -3.795   3.525 129.039  0.00  0.00    +0.136 C 
ATOM     41  O   LIG A   1      -5.494   4.838 127.965  0.00  0.00    -0.251 OA
ENDBRANCH  38  39
ENDBRANCH  25  38
BRANCH  28  42
ATOM     42  C   LIG A   1     -11.419   4.705 130.279  0.00  0.00    +0.267 C 
BRANCH  42  43
ATOM     43  O   LIG A   1     -11.273   6.033 130.815  0.00  0.00    -0.462 OA
BRANCH  43  44
ATOM     44  C   LIG A   1     -12.381   6.809 130.763  0.00  0.00    +0.304 C 
ATOM     45  C   LIG A   1     -12.638   7.255 129.360  0.00  0.00    +0.136 C 
ATOM     46  O   LIG A   1     -13.069   7.124 131.717  0.00  0.00    -0.251 OA
ENDBRANCH  43  44
ENDBRANCH  42  43
ENDBRANCH  28  42
ENDBRANCH   1  24
TORSDOF 16
ENDMDL
MODEL 4
REMARK VINA RESULT:      -7.7      2.462      7.825
REMARK  Name = NuBBE_1820
REMARK  24 active torsions:
REMARK  status: ('A' for Active; 'I' for Inactive)
REMARK    1  A    between atoms: C_2  and  C_3
REMARK    2  A    between atoms: C_2  and  C_51
REMARK    3  A    between atoms: C_4  and  C_50
REMARK    4  A    between atoms: C_8  and  O_40
REMARK    5  A    between atoms: C_10  and  O_11
REMARK    6  A    between atoms: O_11  and  C_12
REMARK    7  A    between atoms: C_14  and  O_36
REMARK    8  A    between atoms: C_16  and  O_32
REMARK    9  A    between atoms: C_18  and  O_28
REMARK   10  A    between atoms: C_20  and  C_23
REMARK   11  A    between atoms: C_23  and  O_24
REMARK   12  A    between atoms: O_24  and  C_25
REMARK   13  A    between atoms: C_25  and  C_26
REMARK   14  A    between atoms: O_28  and  C_29
REMARK   15  A    between atoms: C_29  and  C_30
REMARK   16  A    between atoms: O_32  and  C_33
REMARK   17  A    between atoms: C_33  and  C_34
REMARK   18  A    between atoms: O_36  and  C_37
REMARK   19  A    between atoms: C_37  and  C_38
REMARK   20  A    between atoms: O_40  and  C_41
REMARK   21  A    between atoms: C_41  and  C_42
REMARK   22  A    between atoms: C_45  and  O_46
REMARK   23  A    between atoms: O_46  and  C_47
REMARK   24  A    between atoms: C_47  and  C_48
REMARK                            x       y       z     vdW  Elec       q    Type
REMARK                         _______ _______ _______ _____ _____    ______ ____
ROOT
ATOM      1  O   LIG A   1      -8.283   3.914 127.312  0.00  0.00    -0.459 OA
ENDROOT
BRANCH   1   9
ATOM      2  C   LIG A   1      -7.561  -0.050 125.579  0.00  0.00    +0.063 A 
ATOM      3  C   LIG A   1      -6.227  -0.461 125.580  0.00  0.00    -0.036 A 
ATOM      4  C   LIG A   1      -5.235   0.492 125.844  0.00  0.00    +0.013 A 
ATOM      5  C   LIG A   1      -5.538   1.829 126.141  0.00  0.00    -0.007 A 
ATOM      6  C   LIG A   1      -4.477   2.724 126.326  0.00  0.00    +0.055 A 
ATOM      7  C   LIG A   1      -4.721   4.056 126.625  0.00  0.00    +0.136 A 
ATOM      8  C   LIG A   1      -6.008   4.492 126.879  0.00  0.00    +0.092 A 
ATOM      9  C   LIG A   1      -7.062   3.580 126.803  0.00  0.00    +0.139 A 
ATOM     10  C   LIG A   1      -6.881   2.260 126.264  0.00  0.00    +0.067 A 
ATOM     11  C   LIG A   1      -7.880   1.306 125.855  0.00  0.00    +0.153 A 
ATOM     12  C   LIG A   1      -5.806  -1.862 125.240  0.00  0.00    +0.044 C 
BRANCH   2  14
ATOM     13  O   LIG A   1      -9.448  -1.391 125.955  0.00  0.00    -0.292 OA
ATOM     14  C   LIG A   1      -8.605  -1.029 125.157  0.00  0.00    +0.164 C 
ATOM     15  C   LIG A   1      -8.678  -1.463 123.712  0.00  0.00    +0.091 C 
ENDBRANCH   2  14
BRANCH   7  16
ATOM     16  O   LIG A   1      -3.602   4.855 126.892  0.00  0.00    -0.426 OA
BRANCH  16  17
ATOM     17  C   LIG A   1      -3.619   5.653 128.027  0.00  0.00    +0.309 C 
ATOM     18  C   LIG A   1      -3.146   4.830 129.183  0.00  0.00    +0.136 C 
ATOM     19  O   LIG A   1      -4.031   6.796 128.126  0.00  0.00    -0.251 OA
ENDBRANCH  16  17
ENDBRANCH   7  16
BRANCH  11  20
ATOM     20  O   LIG A   1      -9.216   1.698 125.635  0.00  0.00    -0.425 OA
BRANCH  20  21
ATOM     21  C   LIG A   1      -9.362   2.191 124.367  0.00  0.00    +0.309 C 
ATOM     22  C   LIG A   1     -10.452   1.455 123.610  0.00  0.00    +0.136 C 
ATOM     23  O   LIG A   1      -8.727   3.132 123.845  0.00  0.00    -0.251 OA
ENDBRANCH  20  21
ENDBRANCH  11  20
ENDBRANCH   1   9
BRANCH   1  24
ATOM     24  C   LIG A   1      -8.486   3.911 128.758  0.00  0.00    +0.353 C 
ATOM     25  C   LIG A   1      -9.493   5.028 129.051  0.00  0.00    +0.288 C 
ATOM     26  C   LIG A   1      -9.702   5.265 130.554  0.00  0.00    +0.266 C 
ATOM     27  C   LIG A   1      -9.347   4.112 131.512  0.00  0.00    +0.253 C 
ATOM     28  C   LIG A   1      -8.877   2.791 130.840  0.00  0.00    +0.204 C 
ATOM     29  O   LIG A   1      -9.061   2.757 129.402  0.00  0.00    -0.328 OA
BRANCH  27  30
ATOM     30  O   LIG A   1      -8.308   4.636 132.391  0.00  0.00    -0.455 OA
BRANCH  30  31
ATOM     31  C   LIG A   1      -8.419   4.258 133.703  0.00  0.00    +0.304 C 
ATOM     32  C   LIG A   1      -7.138   4.507 134.451  0.00  0.00    +0.136 C 
ATOM     33  O   LIG A   1      -9.449   3.854 134.226  0.00  0.00    -0.251 OA
ENDBRANCH  30  31
ENDBRANCH  27  30
BRANCH  26  34
ATOM     34  O   LIG A   1     -11.124   5.484 130.765  0.00  0.00    -0.454 OA
BRANCH  34  35
ATOM     35  C   LIG A   1     -11.506   6.469 131.624  0.00  0.00    +0.304 C 
ATOM     36  C   LIG A   1     -12.737   7.125 131.076  0.00  0.00    +0.136 C 
ATOM     37  O   LIG A   1     -10.951   6.753 132.671  0.00  0.00    -0.251 OA
ENDBRANCH  34  35
ENDBRANCH  26  34
BRANCH  25  38
ATOM     38  O   LIG A   1      -9.258   6.293 128.386  0.00  0.00    -0.451 OA
BRANCH  38  39
ATOM     39  C   LIG A   1     -10.318   6.968 127.886  0.00  0.00    +0.304 C 
ATOM     40  C   LIG A   1     -10.424   8.319 128.492  0.00  0.00    +0.136 C 
ATOM     41  O   LIG A   1     -11.075   6.553 127.001  0.00  0.00    -0.251 OA
ENDBRANCH  38  39
ENDBRANCH  25  38
BRANCH  28  42
ATOM     42  C   LIG A   1      -9.704   1.633 131.439  0.00  0.00    +0.267 C 
BRANCH  42  43
ATOM     43  O   LIG A   1      -9.052   0.995 132.552  0.00  0.00    -0.462 OA
BRANCH  43  44
ATOM     44  C   LIG A   1      -7.874   0.391 132.270  0.00  0.00    +0.304 C 
ATOM     45  C   LIG A   1      -6.803   0.886 133.187  0.00  0.00    +0.136 C 
ATOM     46  O   LIG A   1      -7.692  -0.426 131.385  0.00  0.00    -0.251 OA
ENDBRANCH  43  44
ENDBRANCH  42  43
ENDBRANCH  28  42
ENDBRANCH   1  24
TORSDOF 16
ENDMDL
MODEL 5
REMARK VINA RESULT:      -7.4      2.365      7.804
REMARK  Name = NuBBE_1820
REMARK  24 active torsions:
REMARK  status: ('A' for Active; 'I' for Inactive)
REMARK    1  A    between atoms: C_2  and  C_3
REMARK    2  A    between atoms: C_2  and  C_51
REMARK    3  A    between atoms: C_4  and  C_50
REMARK    4  A    between atoms: C_8  and  O_40
REMARK    5  A    between atoms: C_10  and  O_11
REMARK    6  A    between atoms: O_11  and  C_12
REMARK    7  A    between atoms: C_14  and  O_36
REMARK    8  A    between atoms: C_16  and  O_32
REMARK    9  A    between atoms: C_18  and  O_28
REMARK   10  A    between atoms: C_20  and  C_23
REMARK   11  A    between atoms: C_23  and  O_24
REMARK   12  A    between atoms: O_24  and  C_25
REMARK   13  A    between atoms: C_25  and  C_26
REMARK   14  A    between atoms: O_28  and  C_29
REMARK   15  A    between atoms: C_29  and  C_30
REMARK   16  A    between atoms: O_32  and  C_33
REMARK   17  A    between atoms: C_33  and  C_34
REMARK   18  A    between atoms: O_36  and  C_37
REMARK   19  A    between atoms: C_37  and  C_38
REMARK   20  A    between atoms: O_40  and  C_41
REMARK   21  A    between atoms: C_41  and  C_42
REMARK   22  A    between atoms: C_45  and  O_46
REMARK   23  A    between atoms: O_46  and  C_47
REMARK   24  A    between atoms: C_47  and  C_48
REMARK                            x       y       z     vdW  Elec       q    Type
REMARK                         _______ _______ _______ _____ _____    ______ ____
ROOT
ATOM      1  O   LIG A   1      -8.291   1.027 128.920  0.00  0.00    -0.459 OA
ENDROOT
BRANCH   1   9
ATOM      2  C   LIG A   1      -8.179  -1.020 125.043  0.00  0.00    +0.063 A 
ATOM      3  C   LIG A   1      -8.292  -2.410 125.105  0.00  0.00    -0.036 A 
ATOM      4  C   LIG A   1      -8.141  -3.037 126.348  0.00  0.00    +0.013 A 
ATOM      5  C   LIG A   1      -7.915  -2.316 127.530  0.00  0.00    -0.007 A 
ATOM      6  C   LIG A   1      -7.710  -3.035 128.715  0.00  0.00    +0.055 A 
ATOM      7  C   LIG A   1      -7.486  -2.370 129.913  0.00  0.00    +0.136 A 
ATOM      8  C   LIG A   1      -7.597  -0.995 129.981  0.00  0.00    +0.092 A 
ATOM      9  C   LIG A   1      -7.909  -0.279 128.824  0.00  0.00    +0.139 A 
ATOM     10  C   LIG A   1      -7.908  -0.901 127.528  0.00  0.00    +0.067 A 
ATOM     11  C   LIG A   1      -7.927  -0.281 126.228  0.00  0.00    +0.153 A 
ATOM     12  C   LIG A   1      -8.498  -3.266 123.888  0.00  0.00    +0.044 C 
BRANCH   2  14
ATOM     13  O   LIG A   1      -7.186  -0.355 123.025  0.00  0.00    -0.292 OA
ATOM     14  C   LIG A   1      -8.196  -0.366 123.702  0.00  0.00    +0.164 C 
ATOM     15  C   LIG A   1      -9.498   0.165 123.148  0.00  0.00    +0.091 C 
ENDBRANCH   2  14
BRANCH   7  16
ATOM     16  O   LIG A   1      -7.391  -3.165 131.063  0.00  0.00    -0.426 OA
BRANCH  16  17
ATOM     17  C   LIG A   1      -6.141  -3.345 131.637  0.00  0.00    +0.309 C 
ATOM     18  C   LIG A   1      -5.598  -4.658 131.171  0.00  0.00    +0.136 C 
ATOM     19  O   LIG A   1      -5.591  -2.631 132.457  0.00  0.00    -0.251 OA
ENDBRANCH  16  17
ENDBRANCH   7  16
BRANCH  11  20
ATOM     20  O   LIG A   1      -7.618   1.085 126.068  0.00  0.00    -0.425 OA
BRANCH  20  21
ATOM     21  C   LIG A   1      -6.271   1.248 125.887  0.00  0.00    +0.309 C 
ATOM     22  C   LIG A   1      -5.972   2.468 125.035  0.00  0.00    +0.136 C 
ATOM     23  O   LIG A   1      -5.356   0.533 126.346  0.00  0.00    -0.251 OA
ENDBRANCH  20  21
ENDBRANCH  11  20
ENDBRANCH   1   9
BRANCH   1  24
ATOM     24  C   LIG A   1      -7.276   2.063 129.095  0.00  0.00    +0.353 C 
ATOM     25  C   LIG A   1      -7.963   3.213 129.836  0.00  0.00    +0.288 C 
ATOM     26  C   LIG A   1      -7.071   4.458 129.966  0.00  0.00    +0.266 C 
ATOM     27  C   LIG A   1      -5.549   4.256 129.850  0.00  0.00    +0.253 C 
ATOM     28  C   LIG A   1      -5.069   2.788 129.683  0.00  0.00    +0.204 C 
ATOM     29  O   LIG A   1      -6.105   1.795 129.892  0.00  0.00    -0.328 OA
BRANCH  27  30
ATOM     30  O   LIG A   1      -5.131   5.064 128.709  0.00  0.00    -0.455 OA
BRANCH  30  31
ATOM     31  C   LIG A   1      -4.223   6.047 129.001  0.00  0.00    +0.304 C 
ATOM     32  C   LIG A   1      -2.814   5.568 128.783  0.00  0.00    +0.136 C 
ATOM     33  O   LIG A   1      -4.516   7.194 129.311  0.00  0.00    -0.251 OA
ENDBRANCH  30  31
ENDBRANCH  27  30
BRANCH  26  34
ATOM     34  O   LIG A   1      -7.264   4.992 131.306  0.00  0.00    -0.454 OA
BRANCH  34  35
ATOM     35  C   LIG A   1      -7.854   6.211 131.438  0.00  0.00    +0.304 C 
ATOM     36  C   LIG A   1      -8.874   6.129 132.532  0.00  0.00    +0.136 C 
ATOM     37  O   LIG A   1      -7.583   7.206 130.787  0.00  0.00    -0.251 OA
ENDBRANCH  34  35
ENDBRANCH  26  34
BRANCH  25  38
ATOM     38  O   LIG A   1      -9.271   3.600 129.348  0.00  0.00    -0.451 OA
BRANCH  38  39
ATOM     39  C   LIG A   1     -10.313   3.589 130.210  0.00  0.00    +0.304 C 
ATOM     40  C   LIG A   1     -10.039   2.703 131.368  0.00  0.00    +0.136 C 
ATOM     41  O   LIG A   1     -11.343   4.265 130.093  0.00  0.00    -0.251 OA
ENDBRANCH  38  39
ENDBRANCH  25  38
BRANCH  28  42
ATOM     42  C   LIG A   1      -3.962   2.528 130.728  0.00  0.00    +0.267 C 
BRANCH  42  43
ATOM     43  O   LIG A   1      -3.864   3.572 131.713  0.00  0.00    -0.462 OA
BRANCH  43  44
ATOM     44  C   LIG A   1      -2.906   3.400 132.654  0.00  0.00    +0.304 C 
ATOM     45  C   LIG A   1      -1.884   4.486 132.560  0.00  0.00    +0.136 C 
ATOM     46  O   LIG A   1      -2.858   2.484 133.455  0.00  0.00    -0.251 OA
ENDBRANCH  43  44
ENDBRANCH  42  43
ENDBRANCH  28  42
ENDBRANCH   1  24
TORSDOF 16
ENDMDL
MODEL 6
REMARK VINA RESULT:      -7.4      2.580      7.885
REMARK  Name = NuBBE_1820
REMARK  24 active torsions:
REMARK  status: ('A' for Active; 'I' for Inactive)
REMARK    1  A    between atoms: C_2  and  C_3
REMARK    2  A    between atoms: C_2  and  C_51
REMARK    3  A    between atoms: C_4  and  C_50
REMARK    4  A    between atoms: C_8  and  O_40
REMARK    5  A    between atoms: C_10  and  O_11
REMARK    6  A    between atoms: O_11  and  C_12
REMARK    7  A    between atoms: C_14  and  O_36
REMARK    8  A    between atoms: C_16  and  O_32
REMARK    9  A    between atoms: C_18  and  O_28
REMARK   10  A    between atoms: C_20  and  C_23
REMARK   11  A    between atoms: C_23  and  O_24
REMARK   12  A    between atoms: O_24  and  C_25
REMARK   13  A    between atoms: C_25  and  C_26
REMARK   14  A    between atoms: O_28  and  C_29
REMARK   15  A    between atoms: C_29  and  C_30
REMARK   16  A    between atoms: O_32  and  C_33
REMARK   17  A    between atoms: C_33  and  C_34
REMARK   18  A    between atoms: O_36  and  C_37
REMARK   19  A    between atoms: C_37  and  C_38
REMARK   20  A    between atoms: O_40  and  C_41
REMARK   21  A    between atoms: C_41  and  C_42
REMARK   22  A    between atoms: C_45  and  O_46
REMARK   23  A    between atoms: O_46  and  C_47
REMARK   24  A    between atoms: C_47  and  C_48
REMARK                            x       y       z     vdW  Elec       q    Type
REMARK                         _______ _______ _______ _____ _____    ______ ____
ROOT
ATOM      1  O   LIG A   1      -8.143   1.639 127.681  0.00  0.00    -0.459 OA
ENDROOT
BRANCH   1   9
ATOM      2  C   LIG A   1      -8.486  -1.607 124.751  0.00  0.00    +0.063 A 
ATOM      3  C   LIG A   1      -8.716  -2.872 125.295  0.00  0.00    -0.036 A 
ATOM      4  C   LIG A   1      -8.534  -3.050 126.672  0.00  0.00    +0.013 A 
ATOM      5  C   LIG A   1      -8.162  -1.998 127.523  0.00  0.00    -0.007 A 
ATOM      6  C   LIG A   1      -7.938  -2.287 128.875  0.00  0.00    +0.055 A 
ATOM      7  C   LIG A   1      -7.573  -1.283 129.759  0.00  0.00    +0.136 A 
ATOM      8  C   LIG A   1      -7.557   0.038 129.352  0.00  0.00    +0.092 A 
ATOM      9  C   LIG A   1      -7.886   0.345 128.030  0.00  0.00    +0.139 A 
ATOM     10  C   LIG A   1      -8.031  -0.677 127.031  0.00  0.00    +0.067 A 
ATOM     11  C   LIG A   1      -8.087  -0.539 125.598  0.00  0.00    +0.153 A 
ATOM     12  C   LIG A   1      -9.083  -4.064 124.458  0.00  0.00    +0.044 C 
BRANCH   2  14
ATOM     13  O   LIG A   1      -9.576  -1.102 122.737  0.00  0.00    -0.292 OA
ATOM     14  C   LIG A   1      -8.540  -1.451 123.268  0.00  0.00    +0.164 C 
ATOM     15  C   LIG A   1      -7.276  -1.608 122.456  0.00  0.00    +0.091 C 
ENDBRANCH   2  14
BRANCH   7  16
ATOM     16  O   LIG A   1      -7.468  -1.643 131.109  0.00  0.00    -0.426 OA
BRANCH  16  17
ATOM     17  C   LIG A   1      -6.339  -1.244 131.810  0.00  0.00    +0.309 C 
ATOM     18  C   LIG A   1      -6.782  -0.434 132.987  0.00  0.00    +0.136 C 
ATOM     19  O   LIG A   1      -5.173  -1.419 131.502  0.00  0.00    -0.251 OA
ENDBRANCH  16  17
ENDBRANCH   7  16
BRANCH  11  20
ATOM     20  O   LIG A   1      -7.671   0.649 124.963  0.00  0.00    -0.425 OA
BRANCH  20  21
ATOM     21  C   LIG A   1      -8.757   1.398 124.602  0.00  0.00    +0.309 C 
ATOM     22  C   LIG A   1      -8.455   2.265 123.393  0.00  0.00    +0.136 C 
ATOM     23  O   LIG A   1      -9.884   1.404 125.142  0.00  0.00    -0.251 OA
ENDBRANCH  20  21
ENDBRANCH  11  20
ENDBRANCH   1   9
BRANCH   1  24
ATOM     24  C   LIG A   1      -7.798   2.716 128.606  0.00  0.00    +0.353 C 
ATOM     25  C   LIG A   1      -6.477   3.305 128.101  0.00  0.00    +0.288 C 
ATOM     26  C   LIG A   1      -5.888   4.355 129.055  0.00  0.00    +0.266 C 
ATOM     27  C   LIG A   1      -6.854   5.046 130.036  0.00  0.00    +0.253 C 
ATOM     28  C   LIG A   1      -8.351   4.651 129.905  0.00  0.00    +0.204 C 
ATOM     29  O   LIG A   1      -8.659   3.866 128.727  0.00  0.00    -0.328 OA
BRANCH  27  30
ATOM     30  O   LIG A   1      -6.356   4.726 131.370  0.00  0.00    -0.455 OA
BRANCH  30  31
ATOM     31  C   LIG A   1      -6.030   5.811 132.139  0.00  0.00    +0.304 C 
ATOM     32  C   LIG A   1      -6.065   5.470 133.603  0.00  0.00    +0.136 C 
ATOM     33  O   LIG A   1      -5.669   6.894 131.697  0.00  0.00    -0.251 OA
ENDBRANCH  30  31
ENDBRANCH  27  30
BRANCH  26  34
ATOM     34  O   LIG A   1      -5.367   5.440 128.238  0.00  0.00    -0.454 OA
BRANCH  34  35
ATOM     35  C   LIG A   1      -4.229   6.066 128.643  0.00  0.00    +0.304 C 
ATOM     36  C   LIG A   1      -3.209   5.022 128.983  0.00  0.00    +0.136 C 
ATOM     37  O   LIG A   1      -4.062   7.272 128.699  0.00  0.00    -0.251 OA
ENDBRANCH  34  35
ENDBRANCH  26  34
BRANCH  25  38
ATOM     38  O   LIG A   1      -5.451   2.353 127.731  0.00  0.00    -0.451 OA
BRANCH  38  39
ATOM     39  C   LIG A   1      -4.704   2.600 126.631  0.00  0.00    +0.304 C 
ATOM     40  C   LIG A   1      -5.530   3.187 125.546  0.00  0.00    +0.136 C 
ATOM     41  O   LIG A   1      -3.484   2.420 126.541  0.00  0.00    -0.251 OA
ENDBRANCH  38  39
ENDBRANCH  25  38
BRANCH  28  42
ATOM     42  C   LIG A   1      -9.179   5.952 129.822  0.00  0.00    +0.267 C 
BRANCH  42  43
ATOM     43  O   LIG A   1      -9.601   6.265 128.482  0.00  0.00    -0.462 OA
BRANCH  43  44
ATOM     44  C   LIG A   1     -10.781   6.922 128.379  0.00  0.00    +0.304 C 
ATOM     45  C   LIG A   1     -10.546   8.374 128.118  0.00  0.00    +0.136 C 
ATOM     46  O   LIG A   1     -11.883   6.418 128.502  0.00  0.00    -0.251 OA
ENDBRANCH  43  44
ENDBRANCH  42  43
ENDBRANCH  28  42
ENDBRANCH   1  24
TORSDOF 16
ENDMDL
MODEL 7
REMARK VINA RESULT:      -7.3      2.307      8.252
REMARK  Name = NuBBE_1820
REMARK  24 active torsions:
REMARK  status: ('A' for Active; 'I' for Inactive)
REMARK    1  A    between atoms: C_2  and  C_3
REMARK    2  A    between atoms: C_2  and  C_51
REMARK    3  A    between atoms: C_4  and  C_50
REMARK    4  A    between atoms: C_8  and  O_40
REMARK    5  A    between atoms: C_10  and  O_11
REMARK    6  A    between atoms: O_11  and  C_12
REMARK    7  A    between atoms: C_14  and  O_36
REMARK    8  A    between atoms: C_16  and  O_32
REMARK    9  A    between atoms: C_18  and  O_28
REMARK   10  A    between atoms: C_20  and  C_23
REMARK   11  A    between atoms: C_23  and  O_24
REMARK   12  A    between atoms: O_24  and  C_25
REMARK   13  A    between atoms: C_25  and  C_26
REMARK   14  A    between atoms: O_28  and  C_29
REMARK   15  A    between atoms: C_29  and  C_30
REMARK   16  A    between atoms: O_32  and  C_33
REMARK   17  A    between atoms: C_33  and  C_34
REMARK   18  A    between atoms: O_36  and  C_37
REMARK   19  A    between atoms: C_37  and  C_38
REMARK   20  A    between atoms: O_40  and  C_41
REMARK   21  A    between atoms: C_41  and  C_42
REMARK   22  A    between atoms: C_45  and  O_46
REMARK   23  A    between atoms: O_46  and  C_47
REMARK   24  A    between atoms: C_47  and  C_48
REMARK                            x       y       z     vdW  Elec       q    Type
REMARK                         _______ _______ _______ _____ _____    ______ ____
ROOT
ATOM      1  O   LIG A   1      -7.529   0.831 128.575  0.00  0.00    -0.459 OA
ENDROOT
BRANCH   1   9
ATOM      2  C   LIG A   1      -8.367  -1.378 124.879  0.00  0.00    +0.063 A 
ATOM      3  C   LIG A   1      -8.890  -2.660 125.063  0.00  0.00    -0.036 A 
ATOM      4  C   LIG A   1      -8.831  -3.228 126.341  0.00  0.00    +0.013 A 
ATOM      5  C   LIG A   1      -8.299  -2.543 127.444  0.00  0.00    -0.007 A 
ATOM      6  C   LIG A   1      -8.221  -3.218 128.668  0.00  0.00    +0.055 A 
ATOM      7  C   LIG A   1      -7.707  -2.585 129.791  0.00  0.00    +0.136 A 
ATOM      8  C   LIG A   1      -7.391  -1.240 129.753  0.00  0.00    +0.092 A 
ATOM      9  C   LIG A   1      -7.569  -0.533 128.563  0.00  0.00    +0.139 A 
ATOM     10  C   LIG A   1      -7.865  -1.201 127.325  0.00  0.00    +0.067 A 
ATOM     11  C   LIG A   1      -7.805  -0.683 125.982  0.00  0.00    +0.153 A 
ATOM     12  C   LIG A   1      -9.447  -3.481 123.935  0.00  0.00    +0.044 C 
BRANCH   2  14
ATOM     13  O   LIG A   1      -7.358  -1.117 122.778  0.00  0.00    -0.292 OA
ATOM     14  C   LIG A   1      -8.299  -0.831 123.493  0.00  0.00    +0.164 C 
ATOM     15  C   LIG A   1      -9.459  -0.029 122.950  0.00  0.00    +0.091 C 
ENDBRANCH   2  14
BRANCH   7  16
ATOM     16  O   LIG A   1      -7.760  -3.300 130.994  0.00  0.00    -0.426 OA
BRANCH  16  17
ATOM     17  C   LIG A   1      -6.598  -3.416 131.743  0.00  0.00    +0.309 C 
ATOM     18  C   LIG A   1      -5.708  -4.414 131.074  0.00  0.00    +0.136 C 
ATOM     19  O   LIG A   1      -6.349  -2.889 132.814  0.00  0.00    -0.251 OA
ENDBRANCH  16  17
ENDBRANCH   7  16
BRANCH  11  20
ATOM     20  O   LIG A   1      -7.112   0.510 125.691  0.00  0.00    -0.425 OA
BRANCH  20  21
ATOM     21  C   LIG A   1      -5.762   0.292 125.721  0.00  0.00    +0.309 C 
ATOM     22  C   LIG A   1      -5.018   1.505 126.249  0.00  0.00    +0.136 C 
ATOM     23  O   LIG A   1      -5.157  -0.749 125.387  0.00  0.00    -0.251 OA
ENDBRANCH  20  21
ENDBRANCH  11  20
ENDBRANCH   1   9
BRANCH   1  24
ATOM     24  C   LIG A   1      -7.786   1.547 129.821  0.00  0.00    +0.353 C 
ATOM     25  C   LIG A   1      -6.640   2.551 129.980  0.00  0.00    +0.288 C 
ATOM     26  C   LIG A   1      -6.673   3.286 131.330  0.00  0.00    +0.266 C 
ATOM     27  C   LIG A   1      -8.020   3.347 132.073  0.00  0.00    +0.253 C 
ATOM     28  C   LIG A   1      -9.232   2.711 131.336  0.00  0.00    +0.204 C 
ATOM     29  O   LIG A   1      -8.970   2.358 129.955  0.00  0.00    -0.328 OA
BRANCH  27  30
ATOM     30  O   LIG A   1      -7.794   2.682 133.352  0.00  0.00    -0.455 OA
BRANCH  30  31
ATOM     31  C   LIG A   1      -7.190   3.458 134.306  0.00  0.00    +0.304 C 
ATOM     32  C   LIG A   1      -8.066   4.614 134.701  0.00  0.00    +0.136 C 
ATOM     33  O   LIG A   1      -6.117   3.200 134.835  0.00  0.00    -0.251 OA
ENDBRANCH  30  31
ENDBRANCH  27  30
BRANCH  26  34
ATOM     34  O   LIG A   1      -6.340   4.679 131.073  0.00  0.00    -0.454 OA
BRANCH  34  35
ATOM     35  C   LIG A   1      -7.269   5.464 130.461  0.00  0.00    +0.304 C 
ATOM     36  C   LIG A   1      -7.653   6.565 131.401  0.00  0.00    +0.136 C 
ATOM     37  O   LIG A   1      -7.699   5.306 129.331  0.00  0.00    -0.251 OA
ENDBRANCH  34  35
ENDBRANCH  26  34
BRANCH  25  38
ATOM     38  O   LIG A   1      -5.305   2.046 129.734  0.00  0.00    -0.451 OA
BRANCH  38  39
ATOM     39  C   LIG A   1      -4.735   1.244 130.661  0.00  0.00    +0.304 C 
ATOM     40  C   LIG A   1      -4.149   0.034 130.032  0.00  0.00    +0.136 C 
ATOM     41  O   LIG A   1      -4.652   1.496 131.869  0.00  0.00    -0.251 OA
ENDBRANCH  38  39
ENDBRANCH  25  38
BRANCH  28  42
ATOM     42  C   LIG A   1     -10.383   3.740 131.340  0.00  0.00    +0.267 C 
BRANCH  42  43
ATOM     43  O   LIG A   1     -10.710   4.222 130.024  0.00  0.00    -0.462 OA
BRANCH  43  44
ATOM     44  C   LIG A   1     -11.391   5.392 129.983  0.00  0.00    +0.304 C 
ATOM     45  C   LIG A   1     -11.340   6.070 131.313  0.00  0.00    +0.136 C 
ATOM     46  O   LIG A   1     -11.983   5.830 129.013  0.00  0.00    -0.251 OA
ENDBRANCH  43  44
ENDBRANCH  42  43
ENDBRANCH  28  42
ENDBRANCH   1  24
TORSDOF 16
ENDMDL
MODEL 8
REMARK VINA RESULT:      -7.3      2.381      4.037
REMARK  Name = NuBBE_1820
REMARK  24 active torsions:
REMARK  status: ('A' for Active; 'I' for Inactive)
REMARK    1  A    between atoms: C_2  and  C_3
REMARK    2  A    between atoms: C_2  and  C_51
REMARK    3  A    between atoms: C_4  and  C_50
REMARK    4  A    between atoms: C_8  and  O_40
REMARK    5  A    between atoms: C_10  and  O_11
REMARK    6  A    between atoms: O_11  and  C_12
REMARK    7  A    between atoms: C_14  and  O_36
REMARK    8  A    between atoms: C_16  and  O_32
REMARK    9  A    between atoms: C_18  and  O_28
REMARK   10  A    between atoms: C_20  and  C_23
REMARK   11  A    between atoms: C_23  and  O_24
REMARK   12  A    between atoms: O_24  and  C_25
REMARK   13  A    between atoms: C_25  and  C_26
REMARK   14  A    between atoms: O_28  and  C_29
REMARK   15  A    between atoms: C_29  and  C_30
REMARK   16  A    between atoms: O_32  and  C_33
REMARK   17  A    between atoms: C_33  and  C_34
REMARK   18  A    between atoms: O_36  and  C_37
REMARK   19  A    between atoms: C_37  and  C_38
REMARK   20  A    between atoms: O_40  and  C_41
REMARK   21  A    between atoms: C_41  and  C_42
REMARK   22  A    between atoms: C_45  and  O_46
REMARK   23  A    between atoms: O_46  and  C_47
REMARK   24  A    between atoms: C_47  and  C_48
REMARK                            x       y       z     vdW  Elec       q    Type
REMARK                         _______ _______ _______ _____ _____    ______ ____
ROOT
ATOM      1  O   LIG A   1      -6.807   4.746 129.022  0.00  0.00    -0.459 OA
ENDROOT
BRANCH   1   9
ATOM      2  C   LIG A   1      -6.858   1.100 131.460  0.00  0.00    +0.063 A 
ATOM      3  C   LIG A   1      -8.124   0.557 131.684  0.00  0.00    -0.036 A 
ATOM      4  C   LIG A   1      -9.248   1.336 131.383  0.00  0.00    +0.013 A 
ATOM      5  C   LIG A   1      -9.144   2.624 130.836  0.00  0.00    -0.007 A 
ATOM      6  C   LIG A   1     -10.322   3.354 130.631  0.00  0.00    +0.055 A 
ATOM      7  C   LIG A   1     -10.276   4.630 130.089  0.00  0.00    +0.136 A 
ATOM      8  C   LIG A   1      -9.084   5.147 129.617  0.00  0.00    +0.092 A 
ATOM      9  C   LIG A   1      -7.922   4.380 129.719  0.00  0.00    +0.139 A 
ATOM     10  C   LIG A   1      -7.884   3.165 130.487  0.00  0.00    +0.067 A 
ATOM     11  C   LIG A   1      -6.739   2.411 130.928  0.00  0.00    +0.153 A 
ATOM     12  C   LIG A   1      -8.332  -0.798 132.299  0.00  0.00    +0.044 C 
BRANCH   2  14
ATOM     13  O   LIG A   1      -5.380   0.299 133.095  0.00  0.00    -0.292 OA
ATOM     14  C   LIG A   1      -5.664   0.328 131.913  0.00  0.00    +0.164 C 
ATOM     15  C   LIG A   1      -4.895  -0.508 130.917  0.00  0.00    +0.091 C 
ENDBRANCH   2  14
BRANCH   7  16
ATOM     16  O   LIG A   1     -11.506   5.245 129.826  0.00  0.00    -0.426 OA
BRANCH  16  17
ATOM     17  C   LIG A   1     -11.886   6.321 130.617  0.00  0.00    +0.309 C 
ATOM     18  C   LIG A   1     -11.844   7.556 129.776  0.00  0.00    +0.136 C 
ATOM     19  O   LIG A   1     -12.125   6.316 131.812  0.00  0.00    -0.251 OA
ENDBRANCH  16  17
ENDBRANCH   7  16
BRANCH  11  20
ATOM     20  O   LIG A   1      -5.447   2.976 130.921  0.00  0.00    -0.425 OA
BRANCH  20  21
ATOM     21  C   LIG A   1      -5.214   3.638 132.096  0.00  0.00    +0.309 C 
ATOM     22  C   LIG A   1      -3.777   3.466 132.552  0.00  0.00    +0.136 C 
ATOM     23  O   LIG A   1      -6.028   4.325 132.750  0.00  0.00    -0.251 OA
ENDBRANCH  20  21
ENDBRANCH  11  20
ENDBRANCH   1   9
BRANCH   1  24
ATOM     24  C   LIG A   1      -6.652   4.316 127.635  0.00  0.00    +0.353 C 
ATOM     25  C   LIG A   1      -5.197   4.607 127.258  0.00  0.00    +0.288 C 
ATOM     26  C   LIG A   1      -4.902   4.355 125.771  0.00  0.00    +0.266 C 
ATOM     27  C   LIG A   1      -5.846   3.404 125.012  0.00  0.00    +0.253 C 
ATOM     28  C   LIG A   1      -6.966   2.739 125.859  0.00  0.00    +0.204 C 
ATOM     29  O   LIG A   1      -6.822   2.927 127.289  0.00  0.00    -0.328 OA
BRANCH  27  30
ATOM     30  O   LIG A   1      -6.425   4.200 123.935  0.00  0.00    -0.455 OA
BRANCH  30  31
ATOM     31  C   LIG A   1      -6.242   3.689 122.677  0.00  0.00    +0.304 C 
ATOM     32  C   LIG A   1      -5.131   4.401 121.957  0.00  0.00    +0.136 C 
ATOM     33  O   LIG A   1      -6.841   2.721 122.227  0.00  0.00    -0.251 OA
ENDBRANCH  30  31
ENDBRANCH  27  30
BRANCH  26  34
ATOM     34  O   LIG A   1      -3.600   3.711 125.690  0.00  0.00    -0.454 OA
BRANCH  34  35
ATOM     35  C   LIG A   1      -3.218   2.894 126.708  0.00  0.00    +0.304 C 
ATOM     36  C   LIG A   1      -1.771   3.146 127.002  0.00  0.00    +0.136 C 
ATOM     37  O   LIG A   1      -3.939   2.104 127.294  0.00  0.00    -0.251 OA
ENDBRANCH  34  35
ENDBRANCH  26  34
BRANCH  25  38
ATOM     38  O   LIG A   1      -4.682   5.905 127.643  0.00  0.00    -0.451 OA
BRANCH  38  39
ATOM     39  C   LIG A   1      -3.663   5.961 128.530  0.00  0.00    +0.304 C 
ATOM     40  C   LIG A   1      -2.518   6.729 127.980  0.00  0.00    +0.136 C 
ATOM     41  O   LIG A   1      -3.686   5.490 129.674  0.00  0.00    -0.251 OA
ENDBRANCH  38  39
ENDBRANCH  25  38
BRANCH  28  42
ATOM     42  C   LIG A   1      -6.928   1.219 125.587  0.00  0.00    +0.267 C 
BRANCH  42  43
ATOM     43  O   LIG A   1      -6.797   0.436 126.787  0.00  0.00    -0.462 OA
BRANCH  43  44
ATOM     44  C   LIG A   1      -7.795  -0.448 127.020  0.00  0.00    +0.304 C 
ATOM     45  C   LIG A   1      -7.670  -1.023 128.394  0.00  0.00    +0.136 C 
ATOM     46  O   LIG A   1      -8.665  -0.757 126.226  0.00  0.00    -0.251 OA
ENDBRANCH  43  44
ENDBRANCH  42  43
ENDBRANCH  28  42
ENDBRANCH   1  24
TORSDOF 16
ENDMDL
MODEL 9
REMARK VINA RESULT:      -7.2      2.892      5.584
REMARK  Name = NuBBE_1820
REMARK  24 active torsions:
REMARK  status: ('A' for Active; 'I' for Inactive)
REMARK    1  A    between atoms: C_2  and  C_3
REMARK    2  A    between atoms: C_2  and  C_51
REMARK    3  A    between atoms: C_4  and  C_50
REMARK    4  A    between atoms: C_8  and  O_40
REMARK    5  A    between atoms: C_10  and  O_11
REMARK    6  A    between atoms: O_11  and  C_12
REMARK    7  A    between atoms: C_14  and  O_36
REMARK    8  A    between atoms: C_16  and  O_32
REMARK    9  A    between atoms: C_18  and  O_28
REMARK   10  A    between atoms: C_20  and  C_23
REMARK   11  A    between atoms: C_23  and  O_24
REMARK   12  A    between atoms: O_24  and  C_25
REMARK   13  A    between atoms: C_25  and  C_26
REMARK   14  A    between atoms: O_28  and  C_29
REMARK   15  A    between atoms: C_29  and  C_30
REMARK   16  A    between atoms: O_32  and  C_33
REMARK   17  A    between atoms: C_33  and  C_34
REMARK   18  A    between atoms: O_36  and  C_37
REMARK   19  A    between atoms: C_37  and  C_38
REMARK   20  A    between atoms: O_40  and  C_41
REMARK   21  A    between atoms: C_41  and  C_42
REMARK   22  A    between atoms: C_45  and  O_46
REMARK   23  A    between atoms: O_46  and  C_47
REMARK   24  A    between atoms: C_47  and  C_48
REMARK                            x       y       z     vdW  Elec       q    Type
REMARK                         _______ _______ _______ _____ _____    ______ ____
ROOT
ATOM      1  O   LIG A   1      -8.165   5.377 128.954  0.00  0.00    -0.459 OA
ENDROOT
BRANCH   1   9
ATOM      2  C   LIG A   1      -6.611   5.362 133.055  0.00  0.00    +0.063 A 
ATOM      3  C   LIG A   1      -7.583   5.404 134.056  0.00  0.00    -0.036 A 
ATOM      4  C   LIG A   1      -8.897   5.731 133.697  0.00  0.00    +0.013 A 
ATOM      5  C   LIG A   1      -9.272   5.983 132.369  0.00  0.00    -0.007 A 
ATOM      6  C   LIG A   1     -10.594   6.369 132.115  0.00  0.00    +0.055 A 
ATOM      7  C   LIG A   1     -11.018   6.626 130.819  0.00  0.00    +0.136 A 
ATOM      8  C   LIG A   1     -10.183   6.375 129.747  0.00  0.00    +0.092 A 
ATOM      9  C   LIG A   1      -8.897   5.887 129.987  0.00  0.00    +0.139 A 
ATOM     10  C   LIG A   1      -8.342   5.839 131.311  0.00  0.00    +0.067 A 
ATOM     11  C   LIG A   1      -6.972   5.638 131.710  0.00  0.00    +0.153 A 
ATOM     12  C   LIG A   1      -7.268   5.183 135.508  0.00  0.00    +0.044 C 
BRANCH   2  14
ATOM     13  O   LIG A   1      -4.645   4.094 133.222  0.00  0.00    -0.292 OA
ATOM     14  C   LIG A   1      -5.188   5.156 133.456  0.00  0.00    +0.164 C 
ATOM     15  C   LIG A   1      -4.403   6.310 134.036  0.00  0.00    +0.091 C 
ENDBRANCH   2  14
BRANCH   7  16
ATOM     16  O   LIG A   1     -12.380   6.906 130.648  0.00  0.00    -0.426 OA
BRANCH  16  17
ATOM     17  C   LIG A   1     -12.742   7.859 129.707  0.00  0.00    +0.309 C 
ATOM     18  C   LIG A   1     -13.520   7.176 128.627  0.00  0.00    +0.136 C 
ATOM     19  O   LIG A   1     -12.421   9.034 129.678  0.00  0.00    -0.251 OA
ENDBRANCH  16  17
ENDBRANCH   7  16
BRANCH  11  20
ATOM     20  O   LIG A   1      -5.916   5.784 130.789  0.00  0.00    -0.425 OA
BRANCH  20  21
ATOM     21  C   LIG A   1      -5.619   7.109 130.614  0.00  0.00    +0.309 C 
ATOM     22  C   LIG A   1      -4.124   7.356 130.693  0.00  0.00    +0.136 C 
ATOM     23  O   LIG A   1      -6.423   8.040 130.398  0.00  0.00    -0.251 OA
ENDBRANCH  20  21
ENDBRANCH  11  20
ENDBRANCH   1   9
BRANCH   1  24
ATOM     24  C   LIG A   1      -8.200   3.942 128.686  0.00  0.00    +0.353 C 
ATOM     25  C   LIG A   1      -6.934   3.626 127.884  0.00  0.00    +0.288 C 
ATOM     26  C   LIG A   1      -6.891   2.174 127.383  0.00  0.00    +0.266 C 
ATOM     27  C   LIG A   1      -7.755   1.139 128.128  0.00  0.00    +0.253 C 
ATOM     28  C   LIG A   1      -8.532   1.668 129.365  0.00  0.00    +0.204 C 
ATOM     29  O   LIG A   1      -8.152   3.004 129.780  0.00  0.00    -0.328 OA
BRANCH  27  30
ATOM     30  O   LIG A   1      -8.680   0.609 127.132  0.00  0.00    -0.455 OA
BRANCH  30  31
ATOM     31  C   LIG A   1      -8.366  -0.638 126.660  0.00  0.00    +0.304 C 
ATOM     32  C   LIG A   1      -7.606  -1.432 127.686  0.00  0.00    +0.136 C 
ATOM     33  O   LIG A   1      -8.731  -1.086 125.581  0.00  0.00    -0.251 OA
ENDBRANCH  30  31
ENDBRANCH  27  30
BRANCH  26  34
ATOM     34  O   LIG A   1      -5.528   1.696 127.554  0.00  0.00    -0.454 OA
BRANCH  34  35
ATOM     35  C   LIG A   1      -4.722   1.634 126.459  0.00  0.00    +0.304 C 
ATOM     36  C   LIG A   1      -5.044   0.381 125.703  0.00  0.00    +0.136 C 
ATOM     37  O   LIG A   1      -3.893   2.468 126.139  0.00  0.00    -0.251 OA
ENDBRANCH  34  35
ENDBRANCH  26  34
BRANCH  25  38
ATOM     38  O   LIG A   1      -6.625   4.527 126.793  0.00  0.00    -0.451 OA
BRANCH  38  39
ATOM     39  C   LIG A   1      -7.363   4.453 125.662  0.00  0.00    +0.304 C 
ATOM     40  C   LIG A   1      -6.506   4.176 124.483  0.00  0.00    +0.136 C 
ATOM     41  O   LIG A   1      -8.595   4.545 125.607  0.00  0.00    -0.251 OA
ENDBRANCH  38  39
ENDBRANCH  25  38
BRANCH  28  42
ATOM     42  C   LIG A   1      -8.245   0.718 130.548  0.00  0.00    +0.267 C 
BRANCH  42  43
ATOM     43  O   LIG A   1      -9.205   0.840 131.613  0.00  0.00    -0.462 OA
BRANCH  43  44
ATOM     44  C   LIG A   1      -8.928   1.782 132.544  0.00  0.00    +0.304 C 
ATOM     45  C   LIG A   1      -7.493   1.702 132.954  0.00  0.00    +0.136 C 
ATOM     46  O   LIG A   1      -9.728   2.575 133.008  0.00  0.00    -0.251 OA
ENDBRANCH  43  44
ENDBRANCH  42  43
ENDBRANCH  28  42
ENDBRANCH   1  24
TORSDOF 16
ENDMDL
