MODEL 1
REMARK VINA RESULT:      -8.8      0.000      0.000
REMARK  Name = NuBBE_582
REMARK  11 active torsions:
REMARK  status: ('A' for Active; 'I' for Inactive)
REMARK    1  A    between atoms: C_6  and  C_8
REMARK    2  A    between atoms: C_9  and  C_10
REMARK    3  A    between atoms: C_10  and  C_11
REMARK    4  A    between atoms: C_14  and  C_16
REMARK    5  A    between atoms: C_17  and  C_18
REMARK    6  A    between atoms: C_24  and  O_33
REMARK    7  A    between atoms: C_26  and  O_29
REMARK    8  A    between atoms: O_29  and  C_30
REMARK    9  A    between atoms: C_30  and  C_31
REMARK   10  A    between atoms: O_33  and  C_34
REMARK   11  A    between atoms: C_34  and  C_35
REMARK                            x       y       z     vdW  Elec       q    Type
REMARK                         _______ _______ _______ _____ _____    ______ ____
ROOT
ATOM      1  C   LIG A   1      -8.280   1.694 126.359  0.00  0.00    +0.127 C 
ATOM      2  O   LIG A   1      -8.227   2.296 125.064  0.00  0.00    -0.365 OA
ATOM      3  C   LIG A   1      -7.715   1.446 124.035  0.00  0.00    +0.186 C 
ATOM      4  C   LIG A   1      -8.598   0.192 123.838  0.00  0.00    +0.249 C 
ATOM      5  C   LIG A   1      -8.727  -0.520 125.195  0.00  0.00    +0.222 C 
ATOM      6  C   LIG A   1      -9.153   0.435 126.310  0.00  0.00    +0.080 C 
ENDROOT
BRANCH   3   7
ATOM      7  C   LIG A   1      -7.607   2.316 122.817  0.00  0.00    +0.009 C 
ATOM      8  C   LIG A   1      -6.461   2.837 122.347  0.00  0.00    +0.006 C 
BRANCH   8   9
ATOM      9  C   LIG A   1      -6.383   3.703 121.163  0.00  0.00    -0.025 A 
ATOM     10  C   LIG A   1      -7.420   3.742 120.221  0.00  0.00    +0.008 A 
ATOM     11  C   LIG A   1      -7.342   4.572 119.106  0.00  0.00    +0.001 A 
ATOM     12  C   LIG A   1      -6.216   5.365 118.908  0.00  0.00    +0.000 A 
ATOM     13  C   LIG A   1      -5.163   5.317 119.819  0.00  0.00    +0.001 A 
ATOM     14  C   LIG A   1      -5.240   4.482 120.939  0.00  0.00    +0.008 A 
ENDBRANCH   8   9
ENDBRANCH   3   7
BRANCH   1  15
ATOM     15  C   LIG A   1      -6.860   1.510 126.934  0.00  0.00    +0.058 C 
BRANCH  15  17
ATOM     16  C   LIG A   1      -5.488   3.595 127.018  0.00  0.00    +0.013 C 
ATOM     17  C   LIG A   1      -5.862   2.477 126.375  0.00  0.00    -0.025 C 
BRANCH  16  23
ATOM     18  O   LIG A   1      -1.506   2.697 126.317  0.00  0.00    -0.246 OA
ATOM     19  C   LIG A   1      -2.356   3.491 126.696  0.00  0.00    +0.332 C 
ATOM     20  C   LIG A   1      -2.276   4.081 128.045  0.00  0.00    +0.087 C 
ATOM     21  C   LIG A   1      -3.053   5.106 128.415  0.00  0.00    -0.016 C 
ATOM     22  C   LIG A   1      -4.084   5.653 127.485  0.00  0.00    +0.076 C 
ATOM     23  C   LIG A   1      -4.509   4.597 126.458  0.00  0.00    +0.203 C 
ATOM     24  O   LIG A   1      -3.382   3.890 125.904  0.00  0.00    -0.454 OA
ENDBRANCH  16  23
ENDBRANCH  15  17
ENDBRANCH   1  15
BRANCH   5  25
ATOM     25  O   LIG A   1      -9.697  -1.596 125.125  0.00  0.00    -0.458 OA
BRANCH  25  26
ATOM     26  C   LIG A   1      -9.270  -2.824 125.542  0.00  0.00    +0.304 C 
ATOM     27  C   LIG A   1      -8.858  -3.668 124.373  0.00  0.00    +0.136 C 
ATOM     28  O   LIG A   1      -9.298  -3.236 126.692  0.00  0.00    -0.251 OA
ENDBRANCH  25  26
ENDBRANCH   5  25
BRANCH   4  29
ATOM     29  O   LIG A   1      -7.864  -0.697 122.958  0.00  0.00    -0.455 OA
BRANCH  29  30
ATOM     30  C   LIG A   1      -6.640  -1.115 123.379  0.00  0.00    +0.304 C 
ATOM     31  C   LIG A   1      -6.075  -2.034 122.328  0.00  0.00    +0.136 C 
ATOM     32  O   LIG A   1      -6.111  -0.840 124.431  0.00  0.00    -0.251 OA
ENDBRANCH  29  30
ENDBRANCH   4  29
TORSDOF 9
ENDMDL
MODEL 2
REMARK VINA RESULT:      -8.8      3.168      6.626
REMARK  Name = NuBBE_582
REMARK  11 active torsions:
REMARK  status: ('A' for Active; 'I' for Inactive)
REMARK    1  A    between atoms: C_6  and  C_8
REMARK    2  A    between atoms: C_9  and  C_10
REMARK    3  A    between atoms: C_10  and  C_11
REMARK    4  A    between atoms: C_14  and  C_16
REMARK    5  A    between atoms: C_17  and  C_18
REMARK    6  A    between atoms: C_24  and  O_33
REMARK    7  A    between atoms: C_26  and  O_29
REMARK    8  A    between atoms: O_29  and  C_30
REMARK    9  A    between atoms: C_30  and  C_31
REMARK   10  A    between atoms: O_33  and  C_34
REMARK   11  A    between atoms: C_34  and  C_35
REMARK                            x       y       z     vdW  Elec       q    Type
REMARK                         _______ _______ _______ _____ _____    ______ ____
ROOT
ATOM      1  C   LIG A   1      -6.721  -0.976 128.387  0.00  0.00    +0.127 C 
ATOM      2  O   LIG A   1      -6.675  -0.025 127.321  0.00  0.00    -0.365 OA
ATOM      3  C   LIG A   1      -7.698   0.972 127.371  0.00  0.00    +0.186 C 
ATOM      4  C   LIG A   1      -7.598   1.829 128.654  0.00  0.00    +0.249 C 
ATOM      5  C   LIG A   1      -7.624   0.883 129.865  0.00  0.00    +0.222 C 
ATOM      6  C   LIG A   1      -6.608  -0.253 129.733  0.00  0.00    +0.080 C 
ENDROOT
BRANCH   3   7
ATOM      7  C   LIG A   1      -7.553   1.754 126.099  0.00  0.00    +0.009 C 
ATOM      8  C   LIG A   1      -7.973   1.338 124.891  0.00  0.00    +0.006 C 
BRANCH   8   9
ATOM      9  C   LIG A   1      -7.802   2.113 123.656  0.00  0.00    -0.025 A 
ATOM     10  C   LIG A   1      -8.893   2.415 122.830  0.00  0.00    +0.008 A 
ATOM     11  C   LIG A   1      -8.724   3.159 121.665  0.00  0.00    +0.001 A 
ATOM     12  C   LIG A   1      -7.456   3.599 121.299  0.00  0.00    +0.000 A 
ATOM     13  C   LIG A   1      -6.355   3.283 122.094  0.00  0.00    +0.001 A 
ATOM     14  C   LIG A   1      -6.525   2.535 123.264  0.00  0.00    +0.008 A 
ENDBRANCH   8   9
ENDBRANCH   3   7
BRANCH   1  15
ATOM     15  C   LIG A   1      -7.933  -1.918 128.225  0.00  0.00    +0.058 C 
BRANCH  15  17
ATOM     16  C   LIG A   1      -8.525  -2.565 125.887  0.00  0.00    +0.013 C 
ATOM     17  C   LIG A   1      -7.843  -2.801 127.019  0.00  0.00    -0.025 C 
BRANCH  16  23
ATOM     18  O   LIG A   1      -5.220  -2.784 123.400  0.00  0.00    -0.246 OA
ATOM     19  C   LIG A   1      -6.436  -2.765 123.538  0.00  0.00    +0.332 C 
ATOM     20  C   LIG A   1      -7.251  -1.759 122.832  0.00  0.00    +0.087 C 
ATOM     21  C   LIG A   1      -8.585  -1.839 122.783  0.00  0.00    -0.016 C 
ATOM     22  C   LIG A   1      -9.309  -2.926 123.504  0.00  0.00    +0.076 C 
ATOM     23  C   LIG A   1      -8.473  -3.459 124.673  0.00  0.00    +0.203 C 
ATOM     24  O   LIG A   1      -7.094  -3.668 124.307  0.00  0.00    -0.454 OA
ENDBRANCH  16  23
ENDBRANCH  15  17
ENDBRANCH   1  15
BRANCH   5  25
ATOM     25  O   LIG A   1      -7.341   1.604 131.091  0.00  0.00    -0.458 OA
BRANCH  25  26
ATOM     26  C   LIG A   1      -8.058   1.231 132.191  0.00  0.00    +0.304 C 
ATOM     27  C   LIG A   1      -9.476   0.914 131.819  0.00  0.00    +0.136 C 
ATOM     28  O   LIG A   1      -7.651   1.237 133.344  0.00  0.00    -0.251 OA
ENDBRANCH  25  26
ENDBRANCH   5  25
BRANCH   4  29
ATOM     29  O   LIG A   1      -8.805   2.629 128.712  0.00  0.00    -0.455 OA
BRANCH  29  30
ATOM     30  C   LIG A   1      -8.658   3.957 128.970  0.00  0.00    +0.304 C 
ATOM     31  C   LIG A   1      -9.506   4.296 130.167  0.00  0.00    +0.136 C 
ATOM     32  O   LIG A   1      -8.000   4.743 128.328  0.00  0.00    -0.251 OA
ENDBRANCH  29  30
ENDBRANCH   4  29
TORSDOF 9
ENDMDL
MODEL 3
REMARK VINA RESULT:      -8.7      3.083      4.090
REMARK  Name = NuBBE_582
REMARK  11 active torsions:
REMARK  status: ('A' for Active; 'I' for Inactive)
REMARK    1  A    between atoms: C_6  and  C_8
REMARK    2  A    between atoms: C_9  and  C_10
REMARK    3  A    between atoms: C_10  and  C_11
REMARK    4  A    between atoms: C_14  and  C_16
REMARK    5  A    between atoms: C_17  and  C_18
REMARK    6  A    between atoms: C_24  and  O_33
REMARK    7  A    between atoms: C_26  and  O_29
REMARK    8  A    between atoms: O_29  and  C_30
REMARK    9  A    between atoms: C_30  and  C_31
REMARK   10  A    between atoms: O_33  and  C_34
REMARK   11  A    between atoms: C_34  and  C_35
REMARK                            x       y       z     vdW  Elec       q    Type
REMARK                         _______ _______ _______ _____ _____    ______ ____
ROOT
ATOM      1  C   LIG A   1      -8.253   2.325 126.688  0.00  0.00    +0.127 C 
ATOM      2  O   LIG A   1      -8.136   2.614 125.293  0.00  0.00    -0.365 OA
ATOM      3  C   LIG A   1      -7.226   1.768 124.586  0.00  0.00    +0.186 C 
ATOM      4  C   LIG A   1      -7.668   0.287 124.635  0.00  0.00    +0.249 C 
ATOM      5  C   LIG A   1      -7.837  -0.114 126.110  0.00  0.00    +0.222 C 
ATOM      6  C   LIG A   1      -8.711   0.876 126.881  0.00  0.00    +0.080 C 
ENDROOT
BRANCH   3   7
ATOM      7  C   LIG A   1      -7.147   2.338 123.200  0.00  0.00    +0.009 C 
ATOM      8  C   LIG A   1      -6.389   3.390 122.846  0.00  0.00    +0.006 C 
BRANCH   8   9
ATOM      9  C   LIG A   1      -6.343   3.942 121.487  0.00  0.00    -0.025 A 
ATOM     10  C   LIG A   1      -5.226   4.653 121.027  0.00  0.00    +0.008 A 
ATOM     11  C   LIG A   1      -5.187   5.166 119.733  0.00  0.00    +0.001 A 
ATOM     12  C   LIG A   1      -6.275   4.990 118.883  0.00  0.00    +0.000 A 
ATOM     13  C   LIG A   1      -7.406   4.311 119.334  0.00  0.00    +0.001 A 
ATOM     14  C   LIG A   1      -7.445   3.797 120.634  0.00  0.00    +0.008 A 
ENDBRANCH   8   9
ENDBRANCH   3   7
BRANCH   1  15
ATOM     15  C   LIG A   1      -6.967   2.734 127.439  0.00  0.00    +0.058 C 
BRANCH  15  17
ATOM     16  C   LIG A   1      -8.134   3.834 129.354  0.00  0.00    +0.013 C 
ATOM     17  C   LIG A   1      -7.188   2.997 128.896  0.00  0.00    -0.025 C 
BRANCH  16  23
ATOM     18  O   LIG A   1     -11.606   5.570 130.795  0.00  0.00    -0.246 OA
ATOM     19  C   LIG A   1     -10.388   5.467 130.828  0.00  0.00    +0.332 C 
ATOM     20  C   LIG A   1      -9.533   6.656 130.651  0.00  0.00    +0.087 C 
ATOM     21  C   LIG A   1      -8.219   6.623 130.895  0.00  0.00    -0.016 C 
ATOM     22  C   LIG A   1      -7.551   5.351 131.298  0.00  0.00    +0.076 C 
ATOM     23  C   LIG A   1      -8.351   4.137 130.815  0.00  0.00    +0.203 C 
ATOM     24  O   LIG A   1      -9.765   4.283 131.057  0.00  0.00    -0.454 OA
ENDBRANCH  16  23
ENDBRANCH  15  17
ENDBRANCH   1  15
BRANCH   5  25
ATOM     25  O   LIG A   1      -8.435  -1.430 126.223  0.00  0.00    -0.458 OA
BRANCH  25  26
ATOM     26  C   LIG A   1      -7.711  -2.366 126.904  0.00  0.00    +0.304 C 
ATOM     27  C   LIG A   1      -8.611  -3.427 127.465  0.00  0.00    +0.136 C 
ATOM     28  O   LIG A   1      -6.510  -2.321 127.121  0.00  0.00    -0.251 OA
ENDBRANCH  25  26
ENDBRANCH   5  25
BRANCH   4  29
ATOM     29  O   LIG A   1      -6.567  -0.492 124.105  0.00  0.00    -0.455 OA
BRANCH  29  30
ATOM     30  C   LIG A   1      -6.880  -1.545 123.304  0.00  0.00    +0.304 C 
ATOM     31  C   LIG A   1      -5.724  -2.509 123.327  0.00  0.00    +0.136 C 
ATOM     32  O   LIG A   1      -7.889  -1.673 122.649  0.00  0.00    -0.251 OA
ENDBRANCH  29  30
ENDBRANCH   4  29
TORSDOF 9
ENDMDL
MODEL 4
REMARK VINA RESULT:      -8.6      6.854     10.405
REMARK  Name = NuBBE_582
REMARK  11 active torsions:
REMARK  status: ('A' for Active; 'I' for Inactive)
REMARK    1  A    between atoms: C_6  and  C_8
REMARK    2  A    between atoms: C_9  and  C_10
REMARK    3  A    between atoms: C_10  and  C_11
REMARK    4  A    between atoms: C_14  and  C_16
REMARK    5  A    between atoms: C_17  and  C_18
REMARK    6  A    between atoms: C_24  and  O_33
REMARK    7  A    between atoms: C_26  and  O_29
REMARK    8  A    between atoms: O_29  and  C_30
REMARK    9  A    between atoms: C_30  and  C_31
REMARK   10  A    between atoms: O_33  and  C_34
REMARK   11  A    between atoms: C_34  and  C_35
REMARK                            x       y       z     vdW  Elec       q    Type
REMARK                         _______ _______ _______ _____ _____    ______ ____
ROOT
ATOM      1  C   LIG A   1      -8.985   4.434 132.815  0.00  0.00    +0.127 C 
ATOM      2  O   LIG A   1      -7.922   4.384 131.861  0.00  0.00    -0.365 OA
ATOM      3  C   LIG A   1      -6.885   5.345 132.076  0.00  0.00    +0.186 C 
ATOM      4  C   LIG A   1      -6.187   5.137 133.439  0.00  0.00    +0.249 C 
ATOM      5  C   LIG A   1      -7.264   5.160 134.537  0.00  0.00    +0.222 C 
ATOM      6  C   LIG A   1      -8.427   4.218 134.225  0.00  0.00    +0.080 C 
ENDROOT
BRANCH   3   7
ATOM      7  C   LIG A   1      -5.971   5.216 130.893  0.00  0.00    +0.009 C 
ATOM      8  C   LIG A   1      -5.004   4.289 130.769  0.00  0.00    +0.006 C 
BRANCH   8   9
ATOM      9  C   LIG A   1      -4.109   4.194 129.610  0.00  0.00    -0.025 A 
ATOM     10  C   LIG A   1      -3.936   2.987 128.921  0.00  0.00    +0.008 A 
ATOM     11  C   LIG A   1      -3.092   2.907 127.816  0.00  0.00    +0.001 A 
ATOM     12  C   LIG A   1      -2.393   4.034 127.394  0.00  0.00    +0.000 A 
ATOM     13  C   LIG A   1      -2.530   5.236 128.086  0.00  0.00    +0.001 A 
ATOM     14  C   LIG A   1      -3.377   5.315 129.196  0.00  0.00    +0.008 A 
ENDBRANCH   8   9
ENDBRANCH   3   7
BRANCH   1  15
ATOM     15  C   LIG A   1      -9.839   5.703 132.613  0.00  0.00    +0.058 C 
BRANCH  15  17
ATOM     16  C   LIG A   1     -11.542   6.626 131.036  0.00  0.00    +0.013 C 
ATOM     17  C   LIG A   1     -10.615   5.700 131.331  0.00  0.00    -0.025 C 
BRANCH  16  23
ATOM     18  O   LIG A   1      -9.824   6.602 127.267  0.00  0.00    -0.246 OA
ATOM     19  C   LIG A   1     -10.701   6.998 128.023  0.00  0.00    +0.332 C 
ATOM     20  C   LIG A   1     -10.915   8.444 128.224  0.00  0.00    +0.087 C 
ATOM     21  C   LIG A   1     -11.991   8.916 128.864  0.00  0.00    -0.016 C 
ATOM     22  C   LIG A   1     -12.991   7.983 129.461  0.00  0.00    +0.076 C 
ATOM     23  C   LIG A   1     -12.356   6.622 129.766  0.00  0.00    +0.203 C 
ATOM     24  O   LIG A   1     -11.530   6.151 128.683  0.00  0.00    -0.454 OA
ENDBRANCH  16  23
ENDBRANCH  15  17
ENDBRANCH   1  15
BRANCH   5  25
ATOM     25  O   LIG A   1      -6.703   4.780 135.819  0.00  0.00    -0.458 OA
BRANCH  25  26
ATOM     26  C   LIG A   1      -6.545   5.783 136.732  0.00  0.00    +0.304 C 
ATOM     27  C   LIG A   1      -7.853   6.465 137.003  0.00  0.00    +0.136 C 
ATOM     28  O   LIG A   1      -5.482   6.155 137.206  0.00  0.00    -0.251 OA
ENDBRANCH  25  26
ENDBRANCH   5  25
BRANCH   4  29
ATOM     29  O   LIG A   1      -5.338   6.293 133.650  0.00  0.00    -0.455 OA
BRANCH  29  30
ATOM     30  C   LIG A   1      -4.012   6.062 133.846  0.00  0.00    +0.304 C 
ATOM     31  C   LIG A   1      -3.241   6.927 132.885  0.00  0.00    +0.136 C 
ATOM     32  O   LIG A   1      -3.530   5.268 134.621  0.00  0.00    -0.251 OA
ENDBRANCH  29  30
ENDBRANCH   4  29
TORSDOF 9
ENDMDL
MODEL 5
REMARK VINA RESULT:      -8.5      4.814      8.961
REMARK  Name = NuBBE_582
REMARK  11 active torsions:
REMARK  status: ('A' for Active; 'I' for Inactive)
REMARK    1  A    between atoms: C_6  and  C_8
REMARK    2  A    between atoms: C_9  and  C_10
REMARK    3  A    between atoms: C_10  and  C_11
REMARK    4  A    between atoms: C_14  and  C_16
REMARK    5  A    between atoms: C_17  and  C_18
REMARK    6  A    between atoms: C_24  and  O_33
REMARK    7  A    between atoms: C_26  and  O_29
REMARK    8  A    between atoms: O_29  and  C_30
REMARK    9  A    between atoms: C_30  and  C_31
REMARK   10  A    between atoms: O_33  and  C_34
REMARK   11  A    between atoms: C_34  and  C_35
REMARK                            x       y       z     vdW  Elec       q    Type
REMARK                         _______ _______ _______ _____ _____    ______ ____
ROOT
ATOM      1  C   LIG A   1      -7.378   5.246 131.632  0.00  0.00    +0.127 C 
ATOM      2  O   LIG A   1      -7.691   4.257 130.648  0.00  0.00    -0.365 OA
ATOM      3  C   LIG A   1      -7.190   4.542 129.339  0.00  0.00    +0.186 C 
ATOM      4  C   LIG A   1      -5.646   4.623 129.324  0.00  0.00    +0.249 C 
ATOM      5  C   LIG A   1      -5.210   5.660 130.373  0.00  0.00    +0.222 C 
ATOM      6  C   LIG A   1      -5.859   5.412 131.735  0.00  0.00    +0.080 C 
ENDROOT
BRANCH   3   7
ATOM      7  C   LIG A   1      -7.756   3.471 128.454  0.00  0.00    +0.009 C 
ATOM      8  C   LIG A   1      -7.362   2.185 128.459  0.00  0.00    +0.006 C 
BRANCH   8   9
ATOM      9  C   LIG A   1      -7.918   1.159 127.569  0.00  0.00    -0.025 A 
ATOM     10  C   LIG A   1      -7.565  -0.190 127.704  0.00  0.00    +0.008 A 
ATOM     11  C   LIG A   1      -8.104  -1.159 126.862  0.00  0.00    +0.001 A 
ATOM     12  C   LIG A   1      -8.994  -0.790 125.858  0.00  0.00    +0.000 A 
ATOM     13  C   LIG A   1      -9.334   0.552 125.690  0.00  0.00    +0.001 A 
ATOM     14  C   LIG A   1      -8.791   1.525 126.536  0.00  0.00    +0.008 A 
ENDBRANCH   8   9
ENDBRANCH   3   7
BRANCH   1  15
ATOM     15  C   LIG A   1      -8.184   6.538 131.381  0.00  0.00    +0.058 C 
BRANCH  15  17
ATOM     16  C   LIG A   1     -10.407   6.701 130.254  0.00  0.00    +0.013 C 
ATOM     17  C   LIG A   1      -9.662   6.311 131.302  0.00  0.00    -0.025 C 
BRANCH  16  23
ATOM     18  O   LIG A   1     -12.473   6.718 126.665  0.00  0.00    -0.246 OA
ATOM     19  C   LIG A   1     -12.413   7.024 127.848  0.00  0.00    +0.332 C 
ATOM     20  C   LIG A   1     -12.560   8.433 128.261  0.00  0.00    +0.087 C 
ATOM     21  C   LIG A   1     -12.718   8.779 129.544  0.00  0.00    -0.016 C 
ATOM     22  C   LIG A   1     -12.686   7.746 130.620  0.00  0.00    +0.076 C 
ATOM     23  C   LIG A   1     -11.901   6.510 130.169  0.00  0.00    +0.203 C 
ATOM     24  O   LIG A   1     -12.244   6.104 128.830  0.00  0.00    -0.454 OA
ENDBRANCH  16  23
ENDBRANCH  15  17
ENDBRANCH   1  15
BRANCH   5  25
ATOM     25  O   LIG A   1      -3.771   5.647 130.547  0.00  0.00    -0.458 OA
BRANCH  25  26
ATOM     26  C   LIG A   1      -3.136   6.850 130.431  0.00  0.00    +0.304 C 
ATOM     27  C   LIG A   1      -2.180   7.057 131.568  0.00  0.00    +0.136 C 
ATOM     28  O   LIG A   1      -3.365   7.699 129.582  0.00  0.00    -0.251 OA
ENDBRANCH  25  26
ENDBRANCH   5  25
BRANCH   4  29
ATOM     29  O   LIG A   1      -5.271   5.146 128.026  0.00  0.00    -0.455 OA
BRANCH  29  30
ATOM     30  C   LIG A   1      -4.257   4.518 127.372  0.00  0.00    +0.304 C 
ATOM     31  C   LIG A   1      -4.863   3.612 126.333  0.00  0.00    +0.136 C 
ATOM     32  O   LIG A   1      -3.076   4.627 127.609  0.00  0.00    -0.251 OA
ENDBRANCH  29  30
ENDBRANCH   4  29
TORSDOF 9
ENDMDL
MODEL 6
REMARK VINA RESULT:      -8.5      2.648      4.218
REMARK  Name = NuBBE_582
REMARK  11 active torsions:
REMARK  status: ('A' for Active; 'I' for Inactive)
REMARK    1  A    between atoms: C_6  and  C_8
REMARK    2  A    between atoms: C_9  and  C_10
REMARK    3  A    between atoms: C_10  and  C_11
REMARK    4  A    between atoms: C_14  and  C_16
REMARK    5  A    between atoms: C_17  and  C_18
REMARK    6  A    between atoms: C_24  and  O_33
REMARK    7  A    between atoms: C_26  and  O_29
REMARK    8  A    between atoms: O_29  and  C_30
REMARK    9  A    between atoms: C_30  and  C_31
REMARK   10  A    between atoms: O_33  and  C_34
REMARK   11  A    between atoms: C_34  and  C_35
REMARK                            x       y       z     vdW  Elec       q    Type
REMARK                         _______ _______ _______ _____ _____    ______ ____
ROOT
ATOM      1  C   LIG A   1      -7.606   1.942 126.903  0.00  0.00    +0.127 C 
ATOM      2  O   LIG A   1      -7.256   2.561 125.663  0.00  0.00    -0.365 OA
ATOM      3  C   LIG A   1      -6.818   1.654 124.649  0.00  0.00    +0.186 C 
ATOM      4  C   LIG A   1      -7.923   0.641 124.272  0.00  0.00    +0.249 C 
ATOM      5  C   LIG A   1      -8.379  -0.070 125.557  0.00  0.00    +0.222 C 
ATOM      6  C   LIG A   1      -8.721   0.917 126.673  0.00  0.00    +0.080 C 
ENDROOT
BRANCH   3   7
ATOM      7  C   LIG A   1      -6.366   2.519 123.509  0.00  0.00    +0.009 C 
ATOM      8  C   LIG A   1      -7.133   2.872 122.463  0.00  0.00    +0.006 C 
BRANCH   8   9
ATOM      9  C   LIG A   1      -6.662   3.705 121.350  0.00  0.00    -0.025 A 
ATOM     10  C   LIG A   1      -7.440   3.887 120.198  0.00  0.00    +0.008 A 
ATOM     11  C   LIG A   1      -6.989   4.685 119.150  0.00  0.00    +0.001 A 
ATOM     12  C   LIG A   1      -5.745   5.301 119.231  0.00  0.00    +0.000 A 
ATOM     13  C   LIG A   1      -4.945   5.107 120.357  0.00  0.00    +0.001 A 
ATOM     14  C   LIG A   1      -5.397   4.304 121.409  0.00  0.00    +0.008 A 
ENDBRANCH   8   9
ENDBRANCH   3   7
BRANCH   1  15
ATOM     15  C   LIG A   1      -6.346   1.421 127.626  0.00  0.00    +0.058 C 
BRANCH  15  17
ATOM     16  C   LIG A   1      -6.082  -0.405 129.310  0.00  0.00    +0.013 C 
ATOM     17  C   LIG A   1      -6.644   0.756 128.935  0.00  0.00    -0.025 C 
BRANCH  16  23
ATOM     18  O   LIG A   1      -4.686  -4.200 130.203  0.00  0.00    -0.246 OA
ATOM     19  C   LIG A   1      -5.584  -3.371 130.245  0.00  0.00    +0.332 C 
ATOM     20  C   LIG A   1      -6.915  -3.686 129.692  0.00  0.00    +0.087 C 
ATOM     21  C   LIG A   1      -7.975  -2.899 129.911  0.00  0.00    -0.016 C 
ATOM     22  C   LIG A   1      -7.832  -1.626 130.677  0.00  0.00    +0.076 C 
ATOM     23  C   LIG A   1      -6.392  -1.106 130.609  0.00  0.00    +0.203 C 
ATOM     24  O   LIG A   1      -5.423  -2.152 130.818  0.00  0.00    -0.454 OA
ENDBRANCH  16  23
ENDBRANCH  15  17
ENDBRANCH   1  15
BRANCH   5  25
ATOM     25  O   LIG A   1      -9.544  -0.895 125.307  0.00  0.00    -0.458 OA
BRANCH  25  26
ATOM     26  C   LIG A   1      -9.335  -2.243 125.268  0.00  0.00    +0.304 C 
ATOM     27  C   LIG A   1      -8.563  -2.696 126.472  0.00  0.00    +0.136 C 
ATOM     28  O   LIG A   1      -9.642  -2.986 124.347  0.00  0.00    -0.251 OA
ENDBRANCH  25  26
ENDBRANCH   5  25
BRANCH   4  29
ATOM     29  O   LIG A   1      -7.298  -0.359 123.430  0.00  0.00    -0.455 OA
BRANCH  29  30
ATOM     30  C   LIG A   1      -6.315  -1.115 123.989  0.00  0.00    +0.304 C 
ATOM     31  C   LIG A   1      -6.171  -2.372 123.172  0.00  0.00    +0.136 C 
ATOM     32  O   LIG A   1      -5.692  -0.854 124.992  0.00  0.00    -0.251 OA
ENDBRANCH  29  30
ENDBRANCH   4  29
TORSDOF 9
ENDMDL
MODEL 7
REMARK VINA RESULT:      -8.4      5.101      8.582
REMARK  Name = NuBBE_582
REMARK  11 active torsions:
REMARK  status: ('A' for Active; 'I' for Inactive)
REMARK    1  A    between atoms: C_6  and  C_8
REMARK    2  A    between atoms: C_9  and  C_10
REMARK    3  A    between atoms: C_10  and  C_11
REMARK    4  A    between atoms: C_14  and  C_16
REMARK    5  A    between atoms: C_17  and  C_18
REMARK    6  A    between atoms: C_24  and  O_33
REMARK    7  A    between atoms: C_26  and  O_29
REMARK    8  A    between atoms: O_29  and  C_30
REMARK    9  A    between atoms: C_30  and  C_31
REMARK   10  A    between atoms: O_33  and  C_34
REMARK   11  A    between atoms: C_34  and  C_35
REMARK                            x       y       z     vdW  Elec       q    Type
REMARK                         _______ _______ _______ _____ _____    ______ ____
ROOT
ATOM      1  C   LIG A   1      -7.366   2.396 128.590  0.00  0.00    +0.127 C 
ATOM      2  O   LIG A   1      -6.842   1.130 128.997  0.00  0.00    -0.365 OA
ATOM      3  C   LIG A   1      -7.596   0.003 128.546  0.00  0.00    +0.186 C 
ATOM      4  C   LIG A   1      -7.636  -0.077 127.003  0.00  0.00    +0.249 C 
ATOM      5  C   LIG A   1      -8.176   1.259 126.467  0.00  0.00    +0.222 C 
ATOM      6  C   LIG A   1      -7.438   2.460 127.061  0.00  0.00    +0.080 C 
ENDROOT
BRANCH   3   7
ATOM      7  C   LIG A   1      -6.965  -1.188 129.205  0.00  0.00    +0.009 C 
ATOM      8  C   LIG A   1      -7.451  -1.808 130.295  0.00  0.00    +0.006 C 
BRANCH   8   9
ATOM      9  C   LIG A   1      -6.804  -2.961 130.934  0.00  0.00    -0.025 A 
ATOM     10  C   LIG A   1      -6.758  -3.089 132.329  0.00  0.00    +0.008 A 
ATOM     11  C   LIG A   1      -6.151  -4.190 132.927  0.00  0.00    +0.001 A 
ATOM     12  C   LIG A   1      -5.564  -5.174 132.137  0.00  0.00    +0.000 A 
ATOM     13  C   LIG A   1      -5.575  -5.048 130.749  0.00  0.00    +0.001 A 
ATOM     14  C   LIG A   1      -6.183  -3.941 130.148  0.00  0.00    +0.008 A 
ENDBRANCH   8   9
ENDBRANCH   3   7
BRANCH   1  15
ATOM     15  C   LIG A   1      -8.675   2.712 129.344  0.00  0.00    +0.058 C 
BRANCH  15  17
ATOM     16  C   LIG A   1      -9.695   4.641 130.559  0.00  0.00    +0.013 C 
ATOM     17  C   LIG A   1      -8.605   3.966 130.160  0.00  0.00    -0.025 C 
BRANCH  16  23
ATOM     18  O   LIG A   1     -13.072   6.868 131.447  0.00  0.00    -0.246 OA
ATOM     19  C   LIG A   1     -11.892   6.825 131.128  0.00  0.00    +0.332 C 
ATOM     20  C   LIG A   1     -11.425   7.501 129.903  0.00  0.00    +0.087 C 
ATOM     21  C   LIG A   1     -10.124   7.662 129.637  0.00  0.00    -0.016 C 
ATOM     22  C   LIG A   1      -9.086   7.101 130.549  0.00  0.00    +0.076 C 
ATOM     23  C   LIG A   1      -9.644   5.922 131.354  0.00  0.00    +0.203 C 
ATOM     24  O   LIG A   1     -10.957   6.195 131.883  0.00  0.00    -0.454 OA
ENDBRANCH  16  23
ENDBRANCH  15  17
ENDBRANCH   1  15
BRANCH   5  25
ATOM     25  O   LIG A   1      -8.059   1.324 125.024  0.00  0.00    -0.458 OA
BRANCH  25  26
ATOM     26  C   LIG A   1      -8.994   2.077 124.374  0.00  0.00    +0.304 C 
ATOM     27  C   LIG A   1     -10.292   1.333 124.263  0.00  0.00    +0.136 C 
ATOM     28  O   LIG A   1      -8.799   3.170 123.862  0.00  0.00    -0.251 OA
ENDBRANCH  25  26
ENDBRANCH   5  25
BRANCH   4  29
ATOM     29  O   LIG A   1      -8.610  -1.097 126.666  0.00  0.00    -0.455 OA
BRANCH  29  30
ATOM     30  C   LIG A   1      -8.183  -2.131 125.892  0.00  0.00    +0.304 C 
ATOM     31  C   LIG A   1      -9.344  -3.066 125.682  0.00  0.00    +0.136 C 
ATOM     32  O   LIG A   1      -7.059  -2.301 125.479  0.00  0.00    -0.251 OA
ENDBRANCH  29  30
ENDBRANCH   4  29
TORSDOF 9
ENDMDL
MODEL 8
REMARK VINA RESULT:      -8.4      4.414      7.700
REMARK  Name = NuBBE_582
REMARK  11 active torsions:
REMARK  status: ('A' for Active; 'I' for Inactive)
REMARK    1  A    between atoms: C_6  and  C_8
REMARK    2  A    between atoms: C_9  and  C_10
REMARK    3  A    between atoms: C_10  and  C_11
REMARK    4  A    between atoms: C_14  and  C_16
REMARK    5  A    between atoms: C_17  and  C_18
REMARK    6  A    between atoms: C_24  and  O_33
REMARK    7  A    between atoms: C_26  and  O_29
REMARK    8  A    between atoms: O_29  and  C_30
REMARK    9  A    between atoms: C_30  and  C_31
REMARK   10  A    between atoms: O_33  and  C_34
REMARK   11  A    between atoms: C_34  and  C_35
REMARK                            x       y       z     vdW  Elec       q    Type
REMARK                         _______ _______ _______ _____ _____    ______ ____
ROOT
ATOM      1  C   LIG A   1      -7.983   1.722 130.388  0.00  0.00    +0.127 C 
ATOM      2  O   LIG A   1      -7.915   0.822 129.280  0.00  0.00    -0.365 OA
ATOM      3  C   LIG A   1      -7.698   1.452 128.015  0.00  0.00    +0.186 C 
ATOM      4  C   LIG A   1      -6.350   2.208 127.978  0.00  0.00    +0.249 C 
ATOM      5  C   LIG A   1      -6.323   3.198 129.154  0.00  0.00    +0.222 C 
ATOM      6  C   LIG A   1      -6.684   2.528 130.481  0.00  0.00    +0.080 C 
ENDROOT
BRANCH   3   7
ATOM      7  C   LIG A   1      -7.814   0.355 126.998  0.00  0.00    +0.009 C 
ATOM      8  C   LIG A   1      -8.878   0.158 126.201  0.00  0.00    +0.006 C 
BRANCH   8   9
ATOM      9  C   LIG A   1      -8.976  -0.936 125.226  0.00  0.00    -0.025 A 
ATOM     10  C   LIG A   1      -9.152  -2.264 125.638  0.00  0.00    +0.008 A 
ATOM     11  C   LIG A   1      -9.253  -3.294 124.706  0.00  0.00    +0.001 A 
ATOM     12  C   LIG A   1      -9.162  -3.013 123.347  0.00  0.00    +0.000 A 
ATOM     13  C   LIG A   1      -8.958  -1.701 122.921  0.00  0.00    +0.001 A 
ATOM     14  C   LIG A   1      -8.855  -0.667 123.856  0.00  0.00    +0.008 A 
ENDBRANCH   8   9
ENDBRANCH   3   7
BRANCH   1  15
ATOM     15  C   LIG A   1      -9.288   2.544 130.343  0.00  0.00    +0.058 C 
BRANCH  15  17
ATOM     16  C   LIG A   1      -9.950   4.609 131.583  0.00  0.00    +0.013 C 
ATOM     17  C   LIG A   1      -9.105   3.973 130.754  0.00  0.00    -0.025 C 
BRANCH  16  23
ATOM     18  O   LIG A   1     -13.130   7.262 131.642  0.00  0.00    -0.246 OA
ATOM     19  C   LIG A   1     -11.952   7.035 131.405  0.00  0.00    +0.332 C 
ATOM     20  C   LIG A   1     -11.398   7.292 130.062  0.00  0.00    +0.087 C 
ATOM     21  C   LIG A   1     -10.082   7.265 129.824  0.00  0.00    -0.016 C 
ATOM     22  C   LIG A   1      -9.120   6.906 130.907  0.00  0.00    +0.076 C 
ATOM     23  C   LIG A   1      -9.801   6.055 131.984  0.00  0.00    +0.203 C 
ATOM     24  O   LIG A   1     -11.096   6.573 132.351  0.00  0.00    -0.454 OA
ENDBRANCH  16  23
ENDBRANCH  15  17
ENDBRANCH   1  15
BRANCH   5  25
ATOM     25  O   LIG A   1      -5.012   3.801 129.293  0.00  0.00    -0.458 OA
BRANCH  25  26
ATOM     26  C   LIG A   1      -4.942   5.149 129.089  0.00  0.00    +0.304 C 
ATOM     27  C   LIG A   1      -5.269   5.894 130.350  0.00  0.00    +0.136 C 
ATOM     28  O   LIG A   1      -4.736   5.699 128.018  0.00  0.00    -0.251 OA
ENDBRANCH  25  26
ENDBRANCH   5  25
BRANCH   4  29
ATOM     29  O   LIG A   1      -6.349   2.993 126.759  0.00  0.00    -0.455 OA
BRANCH  29  30
ATOM     30  C   LIG A   1      -5.278   2.854 125.933  0.00  0.00    +0.304 C 
ATOM     31  C   LIG A   1      -5.655   3.406 124.584  0.00  0.00    +0.136 C 
ATOM     32  O   LIG A   1      -4.220   2.338 126.211  0.00  0.00    -0.251 OA
ENDBRANCH  29  30
ENDBRANCH   4  29
TORSDOF 9
ENDMDL
MODEL 9
REMARK VINA RESULT:      -8.3      2.713      7.019
REMARK  Name = NuBBE_582
REMARK  11 active torsions:
REMARK  status: ('A' for Active; 'I' for Inactive)
REMARK    1  A    between atoms: C_6  and  C_8
REMARK    2  A    between atoms: C_9  and  C_10
REMARK    3  A    between atoms: C_10  and  C_11
REMARK    4  A    between atoms: C_14  and  C_16
REMARK    5  A    between atoms: C_17  and  C_18
REMARK    6  A    between atoms: C_24  and  O_33
REMARK    7  A    between atoms: C_26  and  O_29
REMARK    8  A    between atoms: O_29  and  C_30
REMARK    9  A    between atoms: C_30  and  C_31
REMARK   10  A    between atoms: O_33  and  C_34
REMARK   11  A    between atoms: C_34  and  C_35
REMARK                            x       y       z     vdW  Elec       q    Type
REMARK                         _______ _______ _______ _____ _____    ______ ____
ROOT
ATOM      1  C   LIG A   1      -7.916   0.849 128.240  0.00  0.00    +0.127 C 
ATOM      2  O   LIG A   1      -6.844   1.766 128.470  0.00  0.00    -0.365 OA
ATOM      3  C   LIG A   1      -6.073   2.082 127.308  0.00  0.00    +0.186 C 
ATOM      4  C   LIG A   1      -6.934   2.763 126.219  0.00  0.00    +0.249 C 
ATOM      5  C   LIG A   1      -8.132   1.849 125.914  0.00  0.00    +0.222 C 
ATOM      6  C   LIG A   1      -8.868   1.418 127.184  0.00  0.00    +0.080 C 
ENDROOT
BRANCH   3   7
ATOM      7  C   LIG A   1      -4.933   2.923 127.803  0.00  0.00    +0.009 C 
ATOM      8  C   LIG A   1      -5.069   4.091 128.455  0.00  0.00    +0.006 C 
BRANCH   8   9
ATOM      9  C   LIG A   1      -3.937   4.906 128.913  0.00  0.00    -0.025 A 
ATOM     10  C   LIG A   1      -3.488   4.848 130.239  0.00  0.00    +0.008 A 
ATOM     11  C   LIG A   1      -2.408   5.618 130.663  0.00  0.00    +0.001 A 
ATOM     12  C   LIG A   1      -1.771   6.472 129.769  0.00  0.00    +0.000 A 
ATOM     13  C   LIG A   1      -2.223   6.565 128.453  0.00  0.00    +0.001 A 
ATOM     14  C   LIG A   1      -3.309   5.792 128.028  0.00  0.00    +0.008 A 
ENDBRANCH   8   9
ENDBRANCH   3   7
BRANCH   1  15
ATOM     15  C   LIG A   1      -7.370  -0.569 127.966  0.00  0.00    +0.058 C 
BRANCH  15  17
ATOM     16  C   LIG A   1      -7.302  -2.230 126.102  0.00  0.00    +0.013 C 
ATOM     17  C   LIG A   1      -7.870  -1.161 126.685  0.00  0.00    -0.025 C 
BRANCH  16  23
ATOM     18  O   LIG A   1      -4.908  -4.652 123.746  0.00  0.00    -0.246 OA
ATOM     19  C   LIG A   1      -5.746  -3.765 123.835  0.00  0.00    +0.332 C 
ATOM     20  C   LIG A   1      -5.506  -2.448 123.216  0.00  0.00    +0.087 C 
ATOM     21  C   LIG A   1      -6.476  -1.534 123.103  0.00  0.00    -0.016 C 
ATOM     22  C   LIG A   1      -7.834  -1.792 123.664  0.00  0.00    +0.076 C 
ATOM     23  C   LIG A   1      -7.771  -2.822 124.797  0.00  0.00    +0.203 C 
ATOM     24  O   LIG A   1      -6.933  -3.947 124.466  0.00  0.00    -0.454 OA
ENDBRANCH  16  23
ENDBRANCH  15  17
ENDBRANCH   1  15
BRANCH   5  25
ATOM     25  O   LIG A   1      -9.081   2.513 125.043  0.00  0.00    -0.458 OA
BRANCH  25  26
ATOM     26  C   LIG A   1      -9.707   1.727 124.118  0.00  0.00    +0.304 C 
ATOM     27  C   LIG A   1      -9.078   1.895 122.767  0.00  0.00    +0.136 C 
ATOM     28  O   LIG A   1     -10.700   1.044 124.317  0.00  0.00    -0.251 OA
ENDBRANCH  25  26
ENDBRANCH   5  25
BRANCH   4  29
ATOM     29  O   LIG A   1      -6.120   2.815 125.021  0.00  0.00    -0.455 OA
BRANCH  29  30
ATOM     30  C   LIG A   1      -6.208   3.938 124.260  0.00  0.00    +0.304 C 
ATOM     31  C   LIG A   1      -6.299   5.122 125.185  0.00  0.00    +0.136 C 
ATOM     32  O   LIG A   1      -6.251   3.984 123.052  0.00  0.00    -0.251 OA
ENDBRANCH  29  30
ENDBRANCH   4  29
TORSDOF 9
ENDMDL
