MODEL 1
REMARK VINA RESULT:      -8.8      0.000      0.000
REMARK  Name = NuBBE_1098
REMARK  12 active torsions:
REMARK  status: ('A' for Active; 'I' for Inactive)
REMARK    1  A    between atoms: C_5  and  C_6
REMARK    2  A    between atoms: C_8  and  O_10
REMARK    3  A    between atoms: O_10  and  C_11
REMARK    4  A    between atoms: C_11  and  C_12
REMARK    5  A    between atoms: C_14  and  O_16
REMARK    6  A    between atoms: O_16  and  C_17
REMARK    7  A    between atoms: C_17  and  C_18
REMARK    8  A    between atoms: C_20  and  C_21
REMARK    9  A    between atoms: C_26  and  C_27
REMARK   10  A    between atoms: C_34  and  C_36
REMARK   11  A    between atoms: C_43  and  C_44
REMARK   12  A    between atoms: C_43  and  C_45
REMARK                            x       y       z     vdW  Elec       q    Type
REMARK                         _______ _______ _______ _____ _____    ______ ____
ROOT
ATOM      1  O   LIG A   1     -10.872   6.368 131.265  0.00  0.00    -0.292 OA
ATOM      2  C   LIG A   1     -10.014   5.529 130.990  0.00  0.00    +0.162 C 
ATOM      3  C   LIG A   1     -10.467   4.256 130.387  0.00  0.00    +0.043 C 
ATOM      4  C   LIG A   1      -9.637   3.236 130.137  0.00  0.00    -0.016 C 
ATOM      5  C   LIG A   1      -8.134   3.222 130.438  0.00  0.00    -0.003 C 
ATOM      6  C   LIG A   1      -8.113   2.457 131.781  0.00  0.00    +0.016 C 
ATOM      7  C   LIG A   1      -7.683   4.713 130.441  0.00  0.00    +0.056 C 
ATOM      8  C   LIG A   1      -6.156   4.844 130.500  0.00  0.00    +0.222 C 
ATOM      9  C   LIG A   1      -5.580   4.462 129.089  0.00  0.00    +0.226 C 
ATOM     10  C   LIG A   1      -5.978   3.023 128.593  0.00  0.00    +0.045 C 
ATOM     11  C   LIG A   1      -4.703   2.124 128.765  0.00  0.00    +0.018 C 
ATOM     12  C   LIG A   1      -7.388   2.508 129.209  0.00  0.00    +0.012 C 
ATOM     13  C   LIG A   1      -7.439   0.984 129.086  0.00  0.00    +0.006 C 
ATOM     14  C   LIG A   1      -7.304   0.525 127.606  0.00  0.00    +0.014 C 
ATOM     15  C   LIG A   1      -6.535   1.411 126.539  0.00  0.00    +0.042 C 
ATOM     16  C   LIG A   1      -5.115   0.870 126.170  0.00  0.00    +0.018 C 
ATOM     17  C   LIG A   1      -6.326   2.873 127.046  0.00  0.00    +0.125 C 
ATOM     18  O   LIG A   1      -7.360   3.812 126.652  0.00  0.00    -0.351 OA
ATOM     19  C   LIG A   1      -6.125   3.900 125.946  0.00  0.00    +0.260 C 
ATOM     20  C   LIG A   1      -6.241   3.516 124.510  0.00  0.00    +0.340 C 
ATOM     21  O   LIG A   1      -6.745   2.278 124.210  0.00  0.00    -0.454 OA
ATOM     22  C   LIG A   1      -7.379   1.440 125.210  0.00  0.00    +0.218 C 
ATOM     23  O   LIG A   1      -5.854   4.279 123.641  0.00  0.00    -0.248 OA
ATOM     24  C   LIG A   1      -8.519   5.758 131.258  0.00  0.00    +0.035 C 
ATOM     25  C   LIG A   1      -8.223   7.194 130.725  0.00  0.00    +0.019 C 
ATOM     26  C   LIG A   1      -8.290   5.793 132.774  0.00  0.00    +0.019 C 
ENDROOT
BRANCH  22  27
ATOM     27  C   LIG A   1      -7.664   0.055 124.608  0.00  0.00    +0.031 A 
ATOM     28  C   LIG A   1      -8.686  -0.837 124.897  0.00  0.00    +0.202 A 
ATOM     29  O   LIG A   1      -8.590  -1.975 124.172  0.00  0.00    -0.471 OA
ATOM     30  C   LIG A   1      -7.485  -1.852 123.405  0.00  0.00    +0.195 A 
ATOM     31  C   LIG A   1      -6.894  -0.626 123.610  0.00  0.00    +0.048 A 
ENDBRANCH  22  27
BRANCH   8  32
ATOM     32  O   LIG A   1      -5.517   4.335 131.719  0.00  0.00    -0.457 OA
BRANCH  32  33
ATOM     33  C   LIG A   1      -4.710   5.018 132.553  0.00  0.00    +0.304 C 
ATOM     34  C   LIG A   1      -4.550   6.456 132.206  0.00  0.00    +0.136 C 
ATOM     35  O   LIG A   1      -4.219   4.579 133.599  0.00  0.00    -0.251 OA
ENDBRANCH  32  33
ENDBRANCH   8  32
BRANCH   9  36
ATOM     36  O   LIG A   1      -4.142   4.668 129.107  0.00  0.00    -0.457 OA
BRANCH  36  37
ATOM     37  C   LIG A   1      -3.699   5.745 128.398  0.00  0.00    +0.304 C 
ATOM     38  C   LIG A   1      -2.332   6.148 128.871  0.00  0.00    +0.136 C 
ATOM     39  O   LIG A   1      -4.391   6.399 127.631  0.00  0.00    -0.251 OA
ENDBRANCH  36  37
ENDBRANCH   9  36
TORSDOF 5
ENDMDL
MODEL 2
REMARK VINA RESULT:      -8.6      3.149      7.492
REMARK  Name = NuBBE_1098
REMARK  12 active torsions:
REMARK  status: ('A' for Active; 'I' for Inactive)
REMARK    1  A    between atoms: C_5  and  C_6
REMARK    2  A    between atoms: C_8  and  O_10
REMARK    3  A    between atoms: O_10  and  C_11
REMARK    4  A    between atoms: C_11  and  C_12
REMARK    5  A    between atoms: C_14  and  O_16
REMARK    6  A    between atoms: O_16  and  C_17
REMARK    7  A    between atoms: C_17  and  C_18
REMARK    8  A    between atoms: C_20  and  C_21
REMARK    9  A    between atoms: C_26  and  C_27
REMARK   10  A    between atoms: C_34  and  C_36
REMARK   11  A    between atoms: C_43  and  C_44
REMARK   12  A    between atoms: C_43  and  C_45
REMARK                            x       y       z     vdW  Elec       q    Type
REMARK                         _______ _______ _______ _____ _____    ______ ____
ROOT
ATOM      1  O   LIG A   1      -7.488  -0.776 132.703  0.00  0.00    -0.292 OA
ATOM      2  C   LIG A   1      -7.417   0.452 132.676  0.00  0.00    +0.162 C 
ATOM      3  C   LIG A   1      -6.433   1.103 133.570  0.00  0.00    +0.043 C 
ATOM      4  C   LIG A   1      -6.337   2.432 133.696  0.00  0.00    -0.016 C 
ATOM      5  C   LIG A   1      -7.210   3.459 132.965  0.00  0.00    -0.003 C 
ATOM      6  C   LIG A   1      -8.257   3.780 134.056  0.00  0.00    +0.016 C 
ATOM      7  C   LIG A   1      -7.703   2.754 131.666  0.00  0.00    +0.056 C 
ATOM      8  C   LIG A   1      -8.400   3.737 130.718  0.00  0.00    +0.222 C 
ATOM      9  C   LIG A   1      -7.298   4.638 130.053  0.00  0.00    +0.226 C 
ATOM     10  C   LIG A   1      -6.398   5.424 131.077  0.00  0.00    +0.045 C 
ATOM     11  C   LIG A   1      -6.882   6.917 131.040  0.00  0.00    +0.018 C 
ATOM     12  C   LIG A   1      -6.270   4.678 132.511  0.00  0.00    +0.012 C 
ATOM     13  C   LIG A   1      -5.825   5.707 133.551  0.00  0.00    +0.006 C 
ATOM     14  C   LIG A   1      -4.466   6.360 133.166  0.00  0.00    +0.014 C 
ATOM     15  C   LIG A   1      -4.011   6.471 131.651  0.00  0.00    +0.042 C 
ATOM     16  C   LIG A   1      -4.144   7.909 131.052  0.00  0.00    +0.018 C 
ATOM     17  C   LIG A   1      -4.848   5.533 130.726  0.00  0.00    +0.125 C 
ATOM     18  O   LIG A   1      -4.272   4.220 130.501  0.00  0.00    -0.351 OA
ATOM     19  C   LIG A   1      -4.161   5.150 129.427  0.00  0.00    +0.260 C 
ATOM     20  C   LIG A   1      -2.756   5.565 129.153  0.00  0.00    +0.340 C 
ATOM     21  O   LIG A   1      -2.029   6.106 130.180  0.00  0.00    -0.454 OA
ATOM     22  C   LIG A   1      -2.490   6.069 131.555  0.00  0.00    +0.218 C 
ATOM     23  O   LIG A   1      -2.296   5.458 128.028  0.00  0.00    -0.248 OA
ATOM     24  C   LIG A   1      -8.309   1.312 131.766  0.00  0.00    +0.035 C 
ATOM     25  C   LIG A   1      -8.250   0.623 130.368  0.00  0.00    +0.019 C 
ATOM     26  C   LIG A   1      -9.758   1.203 132.253  0.00  0.00    +0.019 C 
ENDROOT
BRANCH  22  27
ATOM     27  C   LIG A   1      -1.553   6.915 132.430  0.00  0.00    +0.031 A 
ATOM     28  C   LIG A   1      -1.510   8.292 132.599  0.00  0.00    +0.202 A 
ATOM     29  O   LIG A   1      -0.520   8.671 133.440  0.00  0.00    -0.471 OA
ATOM     30  C   LIG A   1       0.117   7.543 133.821  0.00  0.00    +0.195 A 
ATOM     31  C   LIG A   1      -0.484   6.440 133.257  0.00  0.00    +0.048 A 
ENDBRANCH  22  27
BRANCH   8  32
ATOM     32  O   LIG A   1      -9.640   4.341 131.221  0.00  0.00    -0.457 OA
BRANCH  32  33
ATOM     33  C   LIG A   1     -10.813   4.440 130.567  0.00  0.00    +0.304 C 
ATOM     34  C   LIG A   1     -11.293   5.836 130.381  0.00  0.00    +0.136 C 
ATOM     35  O   LIG A   1     -11.421   3.504 130.035  0.00  0.00    -0.251 OA
ENDBRANCH  32  33
ENDBRANCH   8  32
BRANCH   9  36
ATOM     36  O   LIG A   1      -7.939   5.513 129.086  0.00  0.00    -0.457 OA
BRANCH  36  37
ATOM     37  C   LIG A   1      -8.195   4.951 127.871  0.00  0.00    +0.304 C 
ATOM     38  C   LIG A   1      -7.163   3.905 127.558  0.00  0.00    +0.136 C 
ATOM     39  O   LIG A   1      -9.023   5.371 127.077  0.00  0.00    -0.251 OA
ENDBRANCH  36  37
ENDBRANCH   9  36
TORSDOF 5
ENDMDL
MODEL 3
REMARK VINA RESULT:      -8.5      2.737      7.917
REMARK  Name = NuBBE_1098
REMARK  12 active torsions:
REMARK  status: ('A' for Active; 'I' for Inactive)
REMARK    1  A    between atoms: C_5  and  C_6
REMARK    2  A    between atoms: C_8  and  O_10
REMARK    3  A    between atoms: O_10  and  C_11
REMARK    4  A    between atoms: C_11  and  C_12
REMARK    5  A    between atoms: C_14  and  O_16
REMARK    6  A    between atoms: O_16  and  C_17
REMARK    7  A    between atoms: C_17  and  C_18
REMARK    8  A    between atoms: C_20  and  C_21
REMARK    9  A    between atoms: C_26  and  C_27
REMARK   10  A    between atoms: C_34  and  C_36
REMARK   11  A    between atoms: C_43  and  C_44
REMARK   12  A    between atoms: C_43  and  C_45
REMARK                            x       y       z     vdW  Elec       q    Type
REMARK                         _______ _______ _______ _____ _____    ______ ____
ROOT
ATOM      1  O   LIG A   1      -6.258  -3.960 123.945  0.00  0.00    -0.292 OA
ATOM      2  C   LIG A   1      -6.625  -2.926 124.504  0.00  0.00    +0.162 C 
ATOM      3  C   LIG A   1      -6.455  -2.841 125.971  0.00  0.00    +0.043 C 
ATOM      4  C   LIG A   1      -6.906  -1.809 126.695  0.00  0.00    -0.016 C 
ATOM      5  C   LIG A   1      -7.658  -0.596 126.136  0.00  0.00    -0.003 C 
ATOM      6  C   LIG A   1      -9.121  -0.997 126.435  0.00  0.00    +0.016 C 
ATOM      7  C   LIG A   1      -7.226  -0.473 124.644  0.00  0.00    +0.056 C 
ATOM      8  C   LIG A   1      -7.721   0.836 124.017  0.00  0.00    +0.222 C 
ATOM      9  C   LIG A   1      -6.841   2.009 124.579  0.00  0.00    +0.226 C 
ATOM     10  C   LIG A   1      -6.845   2.130 126.148  0.00  0.00    +0.045 C 
ATOM     11  C   LIG A   1      -7.757   3.358 126.498  0.00  0.00    +0.018 C 
ATOM     12  C   LIG A   1      -7.119   0.715 126.891  0.00  0.00    +0.012 C 
ATOM     13  C   LIG A   1      -7.589   1.003 128.318  0.00  0.00    +0.006 C 
ATOM     14  C   LIG A   1      -6.536   1.828 129.112  0.00  0.00    +0.014 C 
ATOM     15  C   LIG A   1      -5.521   2.793 128.369  0.00  0.00    +0.042 C 
ATOM     16  C   LIG A   1      -5.874   4.310 128.504  0.00  0.00    +0.018 C 
ATOM     17  C   LIG A   1      -5.457   2.496 126.838  0.00  0.00    +0.125 C 
ATOM     18  O   LIG A   1      -4.416   1.567 126.438  0.00  0.00    -0.351 OA
ATOM     19  C   LIG A   1      -4.173   2.944 126.161  0.00  0.00    +0.260 C 
ATOM     20  C   LIG A   1      -3.047   3.513 126.956  0.00  0.00    +0.340 C 
ATOM     21  O   LIG A   1      -3.107   3.419 128.321  0.00  0.00    -0.454 OA
ATOM     22  C   LIG A   1      -4.090   2.593 128.996  0.00  0.00    +0.218 C 
ATOM     23  O   LIG A   1      -2.127   4.079 126.391  0.00  0.00    -0.248 OA
ATOM     24  C   LIG A   1      -7.253  -1.751 123.738  0.00  0.00    +0.035 C 
ATOM     25  C   LIG A   1      -6.330  -1.532 122.499  0.00  0.00    +0.019 C 
ATOM     26  C   LIG A   1      -8.620  -2.189 123.199  0.00  0.00    +0.019 C 
ENDROOT
BRANCH  22  27
ATOM     27  C   LIG A   1      -4.018   2.848 130.509  0.00  0.00    +0.031 A 
ATOM     28  C   LIG A   1      -3.866   4.046 131.194  0.00  0.00    +0.202 A 
ATOM     29  O   LIG A   1      -3.821   3.864 132.534  0.00  0.00    -0.471 OA
ATOM     30  C   LIG A   1      -3.924   2.534 132.747  0.00  0.00    +0.195 A 
ATOM     31  C   LIG A   1      -4.071   1.868 131.552  0.00  0.00    +0.048 A 
ENDBRANCH  22  27
BRANCH   8  32
ATOM     32  O   LIG A   1      -9.177   0.989 123.921  0.00  0.00    -0.457 OA
BRANCH  32  33
ATOM     33  C   LIG A   1      -9.905   1.102 122.793  0.00  0.00    +0.304 C 
ATOM     34  C   LIG A   1      -9.424   2.158 121.861  0.00  0.00    +0.136 C 
ATOM     35  O   LIG A   1     -10.821   0.346 122.449  0.00  0.00    -0.251 OA
ENDBRANCH  32  33
ENDBRANCH   8  32
BRANCH   9  36
ATOM     36  O   LIG A   1      -7.242   3.242 123.924  0.00  0.00    -0.457 OA
BRANCH  36  37
ATOM     37  C   LIG A   1      -6.259   3.879 123.227  0.00  0.00    +0.304 C 
ATOM     38  C   LIG A   1      -5.980   3.152 121.943  0.00  0.00    +0.136 C 
ATOM     39  O   LIG A   1      -5.576   4.790 123.673  0.00  0.00    -0.251 OA
ENDBRANCH  36  37
ENDBRANCH   9  36
TORSDOF 5
ENDMDL
MODEL 4
REMARK VINA RESULT:      -8.3      2.651      8.026
REMARK  Name = NuBBE_1098
REMARK  12 active torsions:
REMARK  status: ('A' for Active; 'I' for Inactive)
REMARK    1  A    between atoms: C_5  and  C_6
REMARK    2  A    between atoms: C_8  and  O_10
REMARK    3  A    between atoms: O_10  and  C_11
REMARK    4  A    between atoms: C_11  and  C_12
REMARK    5  A    between atoms: C_14  and  O_16
REMARK    6  A    between atoms: O_16  and  C_17
REMARK    7  A    between atoms: C_17  and  C_18
REMARK    8  A    between atoms: C_20  and  C_21
REMARK    9  A    between atoms: C_26  and  C_27
REMARK   10  A    between atoms: C_34  and  C_36
REMARK   11  A    between atoms: C_43  and  C_44
REMARK   12  A    between atoms: C_43  and  C_45
REMARK                            x       y       z     vdW  Elec       q    Type
REMARK                         _______ _______ _______ _____ _____    ______ ____
ROOT
ATOM      1  O   LIG A   1      -5.454  -3.969 123.666  0.00  0.00    -0.292 OA
ATOM      2  C   LIG A   1      -5.976  -3.119 124.389  0.00  0.00    +0.162 C 
ATOM      3  C   LIG A   1      -5.650  -3.152 125.832  0.00  0.00    +0.043 C 
ATOM      4  C   LIG A   1      -6.232  -2.341 126.724  0.00  0.00    -0.016 C 
ATOM      5  C   LIG A   1      -7.302  -1.291 126.404  0.00  0.00    -0.003 C 
ATOM      6  C   LIG A   1      -8.588  -2.061 126.784  0.00  0.00    +0.016 C 
ATOM      7  C   LIG A   1      -7.095  -0.911 124.908  0.00  0.00    +0.056 C 
ATOM      8  C   LIG A   1      -7.947   0.300 124.507  0.00  0.00    +0.222 C 
ATOM      9  C   LIG A   1      -7.294   1.584 125.134  0.00  0.00    +0.226 C 
ATOM     10  C   LIG A   1      -7.133   1.532 126.699  0.00  0.00    +0.045 C 
ATOM     11  C   LIG A   1      -8.250   2.462 127.292  0.00  0.00    +0.018 C 
ATOM     12  C   LIG A   1      -6.986   0.022 127.271  0.00  0.00    +0.012 C 
ATOM     13  C   LIG A   1      -7.331   0.036 128.761  0.00  0.00    +0.006 C 
ATOM     14  C   LIG A   1      -6.404   1.000 129.554  0.00  0.00    +0.014 C 
ATOM     15  C   LIG A   1      -5.733   2.255 128.853  0.00  0.00    +0.042 C 
ATOM     16  C   LIG A   1      -6.401   3.620 129.220  0.00  0.00    +0.018 C 
ATOM     17  C   LIG A   1      -5.791   2.146 127.297  0.00  0.00    +0.125 C 
ATOM     18  O   LIG A   1      -4.623   1.542 126.682  0.00  0.00    -0.351 OA
ATOM     19  C   LIG A   1      -4.735   2.958 126.567  0.00  0.00    +0.260 C 
ATOM     20  C   LIG A   1      -3.679   3.693 127.321  0.00  0.00    +0.340 C 
ATOM     21  O   LIG A   1      -3.548   3.443 128.661  0.00  0.00    -0.454 OA
ATOM     22  C   LIG A   1      -4.228   2.338 129.311  0.00  0.00    +0.218 C 
ATOM     23  O   LIG A   1      -2.987   4.520 126.752  0.00  0.00    -0.248 OA
ATOM     24  C   LIG A   1      -6.943  -2.055 123.847  0.00  0.00    +0.035 C 
ATOM     25  C   LIG A   1      -6.252  -1.490 122.567  0.00  0.00    +0.019 C 
ATOM     26  C   LIG A   1      -8.230  -2.748 123.386  0.00  0.00    +0.019 C 
ENDROOT
BRANCH  22  27
ATOM     27  C   LIG A   1      -4.031   2.442 130.831  0.00  0.00    +0.031 A 
ATOM     28  C   LIG A   1      -3.819   3.565 131.617  0.00  0.00    +0.202 A 
ATOM     29  O   LIG A   1      -3.665   3.251 132.924  0.00  0.00    -0.471 OA
ATOM     30  C   LIG A   1      -3.754   1.906 133.011  0.00  0.00    +0.195 A 
ATOM     31  C   LIG A   1      -4.001   1.361 131.771  0.00  0.00    +0.048 A 
ENDBRANCH  22  27
BRANCH   8  32
ATOM     32  O   LIG A   1      -9.401   0.108 124.570  0.00  0.00    -0.457 OA
BRANCH  32  33
ATOM     33  C   LIG A   1     -10.318   0.600 123.715  0.00  0.00    +0.304 C 
ATOM     34  C   LIG A   1     -10.105   0.202 122.297  0.00  0.00    +0.136 C 
ATOM     35  O   LIG A   1     -11.337   1.224 124.034  0.00  0.00    -0.251 OA
ENDBRANCH  32  33
ENDBRANCH   8  32
BRANCH   9  36
ATOM     36  O   LIG A   1      -8.042   2.747 124.688  0.00  0.00    -0.457 OA
BRANCH  36  37
ATOM     37  C   LIG A   1      -7.779   3.155 123.414  0.00  0.00    +0.304 C 
ATOM     38  C   LIG A   1      -6.323   3.497 123.271  0.00  0.00    +0.136 C 
ATOM     39  O   LIG A   1      -8.635   3.391 122.574  0.00  0.00    -0.251 OA
ENDBRANCH  36  37
ENDBRANCH   9  36
TORSDOF 5
ENDMDL
MODEL 5
REMARK VINA RESULT:      -8.2      1.924      2.274
REMARK  Name = NuBBE_1098
REMARK  12 active torsions:
REMARK  status: ('A' for Active; 'I' for Inactive)
REMARK    1  A    between atoms: C_5  and  C_6
REMARK    2  A    between atoms: C_8  and  O_10
REMARK    3  A    between atoms: O_10  and  C_11
REMARK    4  A    between atoms: C_11  and  C_12
REMARK    5  A    between atoms: C_14  and  O_16
REMARK    6  A    between atoms: O_16  and  C_17
REMARK    7  A    between atoms: C_17  and  C_18
REMARK    8  A    between atoms: C_20  and  C_21
REMARK    9  A    between atoms: C_26  and  C_27
REMARK   10  A    between atoms: C_34  and  C_36
REMARK   11  A    between atoms: C_43  and  C_44
REMARK   12  A    between atoms: C_43  and  C_45
REMARK                            x       y       z     vdW  Elec       q    Type
REMARK                         _______ _______ _______ _____ _____    ______ ____
ROOT
ATOM      1  O   LIG A   1      -9.906   3.297 133.620  0.00  0.00    -0.292 OA
ATOM      2  C   LIG A   1      -9.143   2.734 132.835  0.00  0.00    +0.162 C 
ATOM      3  C   LIG A   1      -9.618   1.492 132.187  0.00  0.00    +0.043 C 
ATOM      4  C   LIG A   1      -8.841   0.745 131.393  0.00  0.00    -0.016 C 
ATOM      5  C   LIG A   1      -7.377   1.043 131.050  0.00  0.00    -0.003 C 
ATOM      6  C   LIG A   1      -6.649   0.117 132.051  0.00  0.00    +0.016 C 
ATOM      7  C   LIG A   1      -7.202   2.582 131.219  0.00  0.00    +0.056 C 
ATOM      8  C   LIG A   1      -5.846   3.060 130.686  0.00  0.00    +0.222 C 
ATOM      9  C   LIG A   1      -5.903   3.035 129.116  0.00  0.00    +0.226 C 
ATOM     10  C   LIG A   1      -6.258   1.631 128.502  0.00  0.00    +0.045 C 
ATOM     11  C   LIG A   1      -4.919   1.044 127.930  0.00  0.00    +0.018 C 
ATOM     12  C   LIG A   1      -7.154   0.713 129.495  0.00  0.00    +0.012 C 
ATOM     13  C   LIG A   1      -7.025  -0.745 129.051  0.00  0.00    +0.006 C 
ATOM     14  C   LIG A   1      -7.491  -0.939 127.579  0.00  0.00    +0.014 C 
ATOM     15  C   LIG A   1      -7.416   0.250 126.532  0.00  0.00    +0.042 C 
ATOM     16  C   LIG A   1      -6.243   0.121 125.507  0.00  0.00    +0.018 C 
ATOM     17  C   LIG A   1      -7.227   1.630 127.238  0.00  0.00    +0.125 C 
ATOM     18  O   LIG A   1      -8.457   2.345 127.525  0.00  0.00    -0.351 OA
ATOM     19  C   LIG A   1      -7.692   2.825 126.423  0.00  0.00    +0.260 C 
ATOM     20  C   LIG A   1      -8.372   2.638 125.110  0.00  0.00    +0.340 C 
ATOM     21  O   LIG A   1      -8.764   1.373 124.759  0.00  0.00    -0.454 OA
ATOM     22  C   LIG A   1      -8.755   0.272 125.703  0.00  0.00    +0.218 C 
ATOM     23  O   LIG A   1      -8.528   3.589 124.363  0.00  0.00    -0.248 OA
ATOM     24  C   LIG A   1      -7.736   3.269 132.523  0.00  0.00    +0.035 C 
ATOM     25  C   LIG A   1      -7.927   4.796 132.267  0.00  0.00    +0.019 C 
ATOM     26  C   LIG A   1      -6.869   3.135 133.780  0.00  0.00    +0.019 C 
ENDROOT
BRANCH  22  27
ATOM     27  C   LIG A   1      -9.065  -1.038 124.962  0.00  0.00    +0.031 A 
ATOM     28  C   LIG A   1      -9.453  -2.268 125.473  0.00  0.00    +0.202 A 
ATOM     29  O   LIG A   1      -9.610  -3.196 124.501  0.00  0.00    -0.471 OA
ATOM     30  C   LIG A   1      -9.307  -2.589 123.334  0.00  0.00    +0.195 A 
ATOM     31  C   LIG A   1      -8.991  -1.267 123.550  0.00  0.00    +0.048 A 
ENDBRANCH  22  27
BRANCH   8  32
ATOM     32  O   LIG A   1      -4.665   2.545 131.388  0.00  0.00    -0.457 OA
BRANCH  32  33
ATOM     33  C   LIG A   1      -3.735   3.267 132.042  0.00  0.00    +0.304 C 
ATOM     34  C   LIG A   1      -3.881   4.739 131.880  0.00  0.00    +0.136 C 
ATOM     35  O   LIG A   1      -2.890   2.814 132.823  0.00  0.00    -0.251 OA
ENDBRANCH  32  33
ENDBRANCH   8  32
BRANCH   9  36
ATOM     36  O   LIG A   1      -4.655   3.571 128.600  0.00  0.00    -0.457 OA
BRANCH  36  37
ATOM     37  C   LIG A   1      -4.754   4.777 127.973  0.00  0.00    +0.304 C 
ATOM     38  C   LIG A   1      -4.529   4.613 126.497  0.00  0.00    +0.136 C 
ATOM     39  O   LIG A   1      -4.822   5.852 128.552  0.00  0.00    -0.251 OA
ENDBRANCH  36  37
ENDBRANCH   9  36
TORSDOF 5
ENDMDL
MODEL 6
REMARK VINA RESULT:      -7.7      2.835      4.856
REMARK  Name = NuBBE_1098
REMARK  12 active torsions:
REMARK  status: ('A' for Active; 'I' for Inactive)
REMARK    1  A    between atoms: C_5  and  C_6
REMARK    2  A    between atoms: C_8  and  O_10
REMARK    3  A    between atoms: O_10  and  C_11
REMARK    4  A    between atoms: C_11  and  C_12
REMARK    5  A    between atoms: C_14  and  O_16
REMARK    6  A    between atoms: O_16  and  C_17
REMARK    7  A    between atoms: C_17  and  C_18
REMARK    8  A    between atoms: C_20  and  C_21
REMARK    9  A    between atoms: C_26  and  C_27
REMARK   10  A    between atoms: C_34  and  C_36
REMARK   11  A    between atoms: C_43  and  C_44
REMARK   12  A    between atoms: C_43  and  C_45
REMARK                            x       y       z     vdW  Elec       q    Type
REMARK                         _______ _______ _______ _____ _____    ______ ____
ROOT
ATOM      1  O   LIG A   1      -3.578   6.216 129.804  0.00  0.00    -0.292 OA
ATOM      2  C   LIG A   1      -4.467   5.365 129.770  0.00  0.00    +0.162 C 
ATOM      3  C   LIG A   1      -4.923   4.899 128.441  0.00  0.00    +0.043 C 
ATOM      4  C   LIG A   1      -5.947   4.052 128.281  0.00  0.00    -0.016 C 
ATOM      5  C   LIG A   1      -6.791   3.457 129.414  0.00  0.00    -0.003 C 
ATOM      6  C   LIG A   1      -8.017   4.398 129.388  0.00  0.00    +0.016 C 
ATOM      7  C   LIG A   1      -5.884   3.476 130.680  0.00  0.00    +0.056 C 
ATOM      8  C   LIG A   1      -6.514   2.698 131.841  0.00  0.00    +0.222 C 
ATOM      9  C   LIG A   1      -6.388   1.164 131.525  0.00  0.00    +0.226 C 
ATOM     10  C   LIG A   1      -7.044   0.725 130.164  0.00  0.00    +0.045 C 
ATOM     11  C   LIG A   1      -8.383  -0.005 130.530  0.00  0.00    +0.018 C 
ATOM     12  C   LIG A   1      -7.078   1.917 129.064  0.00  0.00    +0.012 C 
ATOM     13  C   LIG A   1      -8.135   1.573 128.013  0.00  0.00    +0.006 C 
ATOM     14  C   LIG A   1      -7.831   0.214 127.319  0.00  0.00    +0.014 C 
ATOM     15  C   LIG A   1      -7.009  -0.920 128.063  0.00  0.00    +0.042 C 
ATOM     16  C   LIG A   1      -7.887  -2.107 128.577  0.00  0.00    +0.018 C 
ATOM     17  C   LIG A   1      -6.255  -0.363 129.311  0.00  0.00    +0.125 C 
ATOM     18  O   LIG A   1      -4.889   0.060 129.062  0.00  0.00    -0.351 OA
ATOM     19  C   LIG A   1      -5.050  -1.184 129.739  0.00  0.00    +0.260 C 
ATOM     20  C   LIG A   1      -4.595  -2.353 128.933  0.00  0.00    +0.340 C 
ATOM     21  O   LIG A   1      -5.146  -2.537 127.693  0.00  0.00    -0.454 OA
ATOM     22  C   LIG A   1      -5.962  -1.524 127.052  0.00  0.00    +0.218 C 
ATOM     23  O   LIG A   1      -3.786  -3.137 129.399  0.00  0.00    -0.248 OA
ATOM     24  C   LIG A   1      -5.111   4.791 131.042  0.00  0.00    +0.035 C 
ATOM     25  C   LIG A   1      -3.917   4.451 131.986  0.00  0.00    +0.019 C 
ATOM     26  C   LIG A   1      -5.917   5.900 131.729  0.00  0.00    +0.019 C 
ENDROOT
BRANCH  22  27
ATOM     27  C   LIG A   1      -6.578  -2.102 125.768  0.00  0.00    +0.031 A 
ATOM     28  C   LIG A   1      -7.513  -3.116 125.620  0.00  0.00    +0.202 A 
ATOM     29  O   LIG A   1      -7.794  -3.364 124.320  0.00  0.00    -0.471 OA
ATOM     30  C   LIG A   1      -7.028  -2.523 123.592  0.00  0.00    +0.195 A 
ATOM     31  C   LIG A   1      -6.285  -1.713 124.421  0.00  0.00    +0.048 A 
ENDBRANCH  22  27
BRANCH   8  32
ATOM     32  O   LIG A   1      -7.773   3.240 132.366  0.00  0.00    -0.457 OA
BRANCH  32  33
ATOM     33  C   LIG A   1      -8.044   3.558 133.646  0.00  0.00    +0.304 C 
ATOM     34  C   LIG A   1      -6.838   3.709 134.506  0.00  0.00    +0.136 C 
ATOM     35  O   LIG A   1      -9.161   3.837 134.097  0.00  0.00    -0.251 OA
ENDBRANCH  32  33
ENDBRANCH   8  32
BRANCH   9  36
ATOM     36  O   LIG A   1      -6.902   0.415 132.659  0.00  0.00    -0.457 OA
BRANCH  36  37
ATOM     37  C   LIG A   1      -6.020   0.228 133.682  0.00  0.00    +0.304 C 
ATOM     38  C   LIG A   1      -4.638   0.006 133.139  0.00  0.00    +0.136 C 
ATOM     39  O   LIG A   1      -6.342   0.073 134.851  0.00  0.00    -0.251 OA
ENDBRANCH  36  37
ENDBRANCH   9  36
TORSDOF 5
ENDMDL
MODEL 7
REMARK VINA RESULT:      -7.7      3.826      5.789
REMARK  Name = NuBBE_1098
REMARK  12 active torsions:
REMARK  status: ('A' for Active; 'I' for Inactive)
REMARK    1  A    between atoms: C_5  and  C_6
REMARK    2  A    between atoms: C_8  and  O_10
REMARK    3  A    between atoms: O_10  and  C_11
REMARK    4  A    between atoms: C_11  and  C_12
REMARK    5  A    between atoms: C_14  and  O_16
REMARK    6  A    between atoms: O_16  and  C_17
REMARK    7  A    between atoms: C_17  and  C_18
REMARK    8  A    between atoms: C_20  and  C_21
REMARK    9  A    between atoms: C_26  and  C_27
REMARK   10  A    between atoms: C_34  and  C_36
REMARK   11  A    between atoms: C_43  and  C_44
REMARK   12  A    between atoms: C_43  and  C_45
REMARK                            x       y       z     vdW  Elec       q    Type
REMARK                         _______ _______ _______ _____ _____    ______ ____
ROOT
ATOM      1  O   LIG A   1     -10.440   5.736 132.257  0.00  0.00    -0.292 OA
ATOM      2  C   LIG A   1      -9.450   5.007 132.315  0.00  0.00    +0.162 C 
ATOM      3  C   LIG A   1      -9.409   3.989 133.389  0.00  0.00    +0.043 C 
ATOM      4  C   LIG A   1      -8.343   3.209 133.607  0.00  0.00    -0.016 C 
ATOM      5  C   LIG A   1      -7.033   3.253 132.812  0.00  0.00    -0.003 C 
ATOM      6  C   LIG A   1      -6.156   4.120 133.743  0.00  0.00    +0.016 C 
ATOM      7  C   LIG A   1      -7.401   3.829 131.412  0.00  0.00    +0.056 C 
ATOM      8  C   LIG A   1      -6.231   3.717 130.427  0.00  0.00    +0.222 C 
ATOM      9  C   LIG A   1      -6.100   2.211 129.997  0.00  0.00    +0.226 C 
ATOM     10  C   LIG A   1      -5.895   1.210 131.193  0.00  0.00    +0.045 C 
ATOM     11  C   LIG A   1      -4.382   0.793 131.171  0.00  0.00    +0.018 C 
ATOM     12  C   LIG A   1      -6.540   1.743 132.583  0.00  0.00    +0.012 C 
ATOM     13  C   LIG A   1      -5.883   0.987 133.739  0.00  0.00    +0.006 C 
ATOM     14  C   LIG A   1      -6.089  -0.549 133.610  0.00  0.00    +0.014 C 
ATOM     15  C   LIG A   1      -6.298  -1.232 132.194  0.00  0.00    +0.042 C 
ATOM     16  C   LIG A   1      -5.041  -1.999 131.668  0.00  0.00    +0.018 C 
ATOM     17  C   LIG A   1      -6.660  -0.184 131.095  0.00  0.00    +0.125 C 
ATOM     18  O   LIG A   1      -8.082   0.017 130.885  0.00  0.00    -0.351 OA
ATOM     19  C   LIG A   1      -7.402  -0.754 129.898  0.00  0.00    +0.260 C 
ATOM     20  C   LIG A   1      -7.828  -2.182 129.872  0.00  0.00    +0.340 C 
ATOM     21  O   LIG A   1      -7.734  -2.907 131.031  0.00  0.00    -0.454 OA
ATOM     22  C   LIG A   1      -7.466  -2.282 132.312  0.00  0.00    +0.218 C 
ATOM     23  O   LIG A   1      -8.208  -2.686 128.828  0.00  0.00    -0.248 OA
ATOM     24  C   LIG A   1      -8.277   5.128 131.330  0.00  0.00    +0.035 C 
ATOM     25  C   LIG A   1      -8.936   5.224 129.920  0.00  0.00    +0.019 C 
ATOM     26  C   LIG A   1      -7.562   6.461 131.578  0.00  0.00    +0.019 C 
ENDROOT
BRANCH  22  27
ATOM     27  C   LIG A   1      -7.236  -3.371 133.371  0.00  0.00    +0.031 A 
ATOM     28  C   LIG A   1      -6.267  -4.364 133.418  0.00  0.00    +0.202 A 
ATOM     29  O   LIG A   1      -6.403  -5.157 134.506  0.00  0.00    -0.471 OA
ATOM     30  C   LIG A   1      -7.482  -4.706 135.181  0.00  0.00    +0.195 A 
ATOM     31  C   LIG A   1      -8.016  -3.605 134.550  0.00  0.00    +0.048 A 
ENDBRANCH  22  27
BRANCH   8  32
ATOM     32  O   LIG A   1      -5.033   4.493 130.765  0.00  0.00    -0.457 OA
BRANCH  32  33
ATOM     33  C   LIG A   1      -4.344   5.313 129.949  0.00  0.00    +0.304 C 
ATOM     34  C   LIG A   1      -2.952   4.869 129.670  0.00  0.00    +0.136 C 
ATOM     35  O   LIG A   1      -4.810   6.291 129.352  0.00  0.00    -0.251 OA
ENDBRANCH  32  33
ENDBRANCH   8  32
BRANCH   9  36
ATOM     36  O   LIG A   1      -5.052   2.107 128.996  0.00  0.00    -0.457 OA
BRANCH  36  37
ATOM     37  C   LIG A   1      -5.486   1.999 127.708  0.00  0.00    +0.304 C 
ATOM     38  C   LIG A   1      -4.424   2.484 126.763  0.00  0.00    +0.136 C 
ATOM     39  O   LIG A   1      -6.634   1.731 127.386  0.00  0.00    -0.251 OA
ENDBRANCH  36  37
ENDBRANCH   9  36
TORSDOF 5
ENDMDL
MODEL 8
REMARK VINA RESULT:      -7.7      4.313      8.963
REMARK  Name = NuBBE_1098
REMARK  12 active torsions:
REMARK  status: ('A' for Active; 'I' for Inactive)
REMARK    1  A    between atoms: C_5  and  C_6
REMARK    2  A    between atoms: C_8  and  O_10
REMARK    3  A    between atoms: O_10  and  C_11
REMARK    4  A    between atoms: C_11  and  C_12
REMARK    5  A    between atoms: C_14  and  O_16
REMARK    6  A    between atoms: O_16  and  C_17
REMARK    7  A    between atoms: C_17  and  C_18
REMARK    8  A    between atoms: C_20  and  C_21
REMARK    9  A    between atoms: C_26  and  C_27
REMARK   10  A    between atoms: C_34  and  C_36
REMARK   11  A    between atoms: C_43  and  C_44
REMARK   12  A    between atoms: C_43  and  C_45
REMARK                            x       y       z     vdW  Elec       q    Type
REMARK                         _______ _______ _______ _____ _____    ______ ____
ROOT
ATOM      1  O   LIG A   1     -10.142   5.228 132.429  0.00  0.00    -0.292 OA
ATOM      2  C   LIG A   1      -8.940   5.216 132.162  0.00  0.00    +0.162 C 
ATOM      3  C   LIG A   1      -8.335   6.472 131.663  0.00  0.00    +0.043 C 
ATOM      4  C   LIG A   1      -7.064   6.549 131.250  0.00  0.00    -0.016 C 
ATOM      5  C   LIG A   1      -6.069   5.384 131.218  0.00  0.00    -0.003 C 
ATOM      6  C   LIG A   1      -6.162   4.962 129.733  0.00  0.00    +0.016 C 
ATOM      7  C   LIG A   1      -6.559   4.371 132.296  0.00  0.00    +0.056 C 
ATOM      8  C   LIG A   1      -5.531   3.260 132.539  0.00  0.00    +0.222 C 
ATOM      9  C   LIG A   1      -4.340   3.869 133.362  0.00  0.00    +0.226 C 
ATOM     10  C   LIG A   1      -3.645   5.106 132.680  0.00  0.00    +0.045 C 
ATOM     11  C   LIG A   1      -2.280   4.588 132.105  0.00  0.00    +0.018 C 
ATOM     12  C   LIG A   1      -4.642   5.934 131.706  0.00  0.00    +0.012 C 
ATOM     13  C   LIG A   1      -3.792   6.766 130.743  0.00  0.00    +0.006 C 
ATOM     14  C   LIG A   1      -2.856   7.746 131.507  0.00  0.00    +0.014 C 
ATOM     15  C   LIG A   1      -2.357   7.425 132.977  0.00  0.00    +0.042 C 
ATOM     16  C   LIG A   1      -0.869   6.951 133.054  0.00  0.00    +0.018 C 
ATOM     17  C   LIG A   1      -3.208   6.297 133.642  0.00  0.00    +0.125 C 
ATOM     18  O   LIG A   1      -4.331   6.764 134.436  0.00  0.00    -0.351 OA
ATOM     19  C   LIG A   1      -3.192   6.307 135.161  0.00  0.00    +0.260 C 
ATOM     20  C   LIG A   1      -2.500   7.392 135.913  0.00  0.00    +0.340 C 
ATOM     21  O   LIG A   1      -2.071   8.490 135.215  0.00  0.00    -0.454 OA
ATOM     22  C   LIG A   1      -2.471   8.737 133.842  0.00  0.00    +0.218 C 
ATOM     23  O   LIG A   1      -2.292   7.270 137.108  0.00  0.00    -0.248 OA
ATOM     24  C   LIG A   1      -8.072   3.958 132.318  0.00  0.00    +0.035 C 
ATOM     25  C   LIG A   1      -8.434   3.384 133.722  0.00  0.00    +0.019 C 
ATOM     26  C   LIG A   1      -8.520   2.919 131.284  0.00  0.00    +0.019 C 
ENDROOT
BRANCH  22  27
ATOM     27  C   LIG A   1      -1.681   9.933 133.288  0.00  0.00    +0.031 A 
ATOM     28  C   LIG A   1      -0.319  10.191 133.348  0.00  0.00    +0.202 A 
ATOM     29  O   LIG A   1       0.002  11.369 132.763  0.00  0.00    -0.471 OA
ATOM     30  C   LIG A   1      -1.155  11.912 132.328  0.00  0.00    +0.195 A 
ATOM     31  C   LIG A   1      -2.211  11.070 132.598  0.00  0.00    +0.048 A 
ENDBRANCH  22  27
BRANCH   8  32
ATOM     32  O   LIG A   1      -5.261   2.377 131.398  0.00  0.00    -0.457 OA
BRANCH  32  33
ATOM     33  C   LIG A   1      -5.315   1.031 131.388  0.00  0.00    +0.304 C 
ATOM     34  C   LIG A   1      -4.137   0.378 130.754  0.00  0.00    +0.136 C 
ATOM     35  O   LIG A   1      -6.174   0.341 131.949  0.00  0.00    -0.251 OA
ENDBRANCH  32  33
ENDBRANCH   8  32
BRANCH   9  36
ATOM     36  O   LIG A   1      -3.403   2.805 133.675  0.00  0.00    -0.457 OA
BRANCH  36  37
ATOM     37  C   LIG A   1      -3.803   1.945 134.655  0.00  0.00    +0.304 C 
ATOM     38  C   LIG A   1      -4.083   2.701 135.923  0.00  0.00    +0.136 C 
ATOM     39  O   LIG A   1      -3.752   0.727 134.567  0.00  0.00    -0.251 OA
ENDBRANCH  36  37
ENDBRANCH   9  36
TORSDOF 5
ENDMDL
MODEL 9
REMARK VINA RESULT:      -7.6      6.295      7.844
REMARK  Name = NuBBE_1098
REMARK  12 active torsions:
REMARK  status: ('A' for Active; 'I' for Inactive)
REMARK    1  A    between atoms: C_5  and  C_6
REMARK    2  A    between atoms: C_8  and  O_10
REMARK    3  A    between atoms: O_10  and  C_11
REMARK    4  A    between atoms: C_11  and  C_12
REMARK    5  A    between atoms: C_14  and  O_16
REMARK    6  A    between atoms: O_16  and  C_17
REMARK    7  A    between atoms: C_17  and  C_18
REMARK    8  A    between atoms: C_20  and  C_21
REMARK    9  A    between atoms: C_26  and  C_27
REMARK   10  A    between atoms: C_34  and  C_36
REMARK   11  A    between atoms: C_43  and  C_44
REMARK   12  A    between atoms: C_43  and  C_45
REMARK                            x       y       z     vdW  Elec       q    Type
REMARK                         _______ _______ _______ _____ _____    ______ ____
ROOT
ATOM      1  O   LIG A   1      -8.167  -2.427 137.347  0.00  0.00    -0.292 OA
ATOM      2  C   LIG A   1      -7.531  -2.829 136.373  0.00  0.00    +0.162 C 
ATOM      3  C   LIG A   1      -8.298  -3.348 135.218  0.00  0.00    +0.043 C 
ATOM      4  C   LIG A   1      -7.713  -3.900 134.149  0.00  0.00    -0.016 C 
ATOM      5  C   LIG A   1      -6.203  -4.087 133.961  0.00  0.00    -0.003 C 
ATOM      6  C   LIG A   1      -6.038  -5.566 134.382  0.00  0.00    +0.016 C 
ATOM      7  C   LIG A   1      -5.523  -2.998 134.843  0.00  0.00    +0.056 C 
ATOM      8  C   LIG A   1      -4.015  -2.913 134.578  0.00  0.00    +0.222 C 
ATOM      9  C   LIG A   1      -3.804  -2.209 133.189  0.00  0.00    +0.226 C 
ATOM     10  C   LIG A   1      -4.523  -2.920 131.984  0.00  0.00    +0.045 C 
ATOM     11  C   LIG A   1      -3.405  -3.665 131.175  0.00  0.00    +0.018 C 
ATOM     12  C   LIG A   1      -5.845  -3.745 132.434  0.00  0.00    +0.012 C 
ATOM     13  C   LIG A   1      -6.169  -4.767 131.343  0.00  0.00    +0.006 C 
ATOM     14  C   LIG A   1      -6.411  -4.080 129.968  0.00  0.00    +0.014 C 
ATOM     15  C   LIG A   1      -5.737  -2.689 129.618  0.00  0.00    +0.042 C 
ATOM     16  C   LIG A   1      -4.528  -2.799 128.632  0.00  0.00    +0.018 C 
ATOM     17  C   LIG A   1      -5.194  -1.972 130.894  0.00  0.00    +0.125 C 
ATOM     18  O   LIG A   1      -6.119  -1.040 131.514  0.00  0.00    -0.351 OA
ATOM     19  C   LIG A   1      -5.053  -0.466 130.761  0.00  0.00    +0.260 C 
ATOM     20  C   LIG A   1      -5.516   0.241 129.533  0.00  0.00    +0.340 C 
ATOM     21  O   LIG A   1      -6.266  -0.461 128.626  0.00  0.00    -0.454 OA
ATOM     22  C   LIG A   1      -6.814  -1.770 128.928  0.00  0.00    +0.218 C 
ATOM     23  O   LIG A   1      -5.191   1.400 129.336  0.00  0.00    -0.248 OA
ATOM     24  C   LIG A   1      -5.995  -2.818 136.328  0.00  0.00    +0.035 C 
ATOM     25  C   LIG A   1      -5.582  -1.403 136.838  0.00  0.00    +0.019 C 
ATOM     26  C   LIG A   1      -5.465  -3.831 137.349  0.00  0.00    +0.019 C 
ENDROOT
BRANCH  22  27
ATOM     27  C   LIG A   1      -7.437  -2.367 127.656  0.00  0.00    +0.031 A 
ATOM     28  C   LIG A   1      -7.077  -2.181 126.329  0.00  0.00    +0.202 A 
ATOM     29  O   LIG A   1      -7.885  -2.860 125.482  0.00  0.00    -0.471 OA
ATOM     30  C   LIG A   1      -8.804  -3.489 126.246  0.00  0.00    +0.195 A 
ATOM     31  C   LIG A   1      -8.566  -3.245 127.580  0.00  0.00    +0.048 A 
ENDBRANCH  22  27
BRANCH   8  32
ATOM     32  O   LIG A   1      -3.236  -4.108 134.923  0.00  0.00    -0.457 OA
BRANCH  32  33
ATOM     33  C   LIG A   1      -2.122  -4.155 135.677  0.00  0.00    +0.304 C 
ATOM     34  C   LIG A   1      -2.012  -3.055 136.673  0.00  0.00    +0.136 C 
ATOM     35  O   LIG A   1      -1.292  -5.072 135.678  0.00  0.00    -0.251 OA
ENDBRANCH  32  33
ENDBRANCH   8  32
BRANCH   9  36
ATOM     36  O   LIG A   1      -2.378  -2.043 132.968  0.00  0.00    -0.457 OA
BRANCH  36  37
ATOM     37  C   LIG A   1      -1.802  -1.002 133.634  0.00  0.00    +0.304 C 
ATOM     38  C   LIG A   1      -2.687   0.210 133.563  0.00  0.00    +0.136 C 
ATOM     39  O   LIG A   1      -0.655  -1.002 134.056  0.00  0.00    -0.251 OA
ENDBRANCH  36  37
ENDBRANCH   9  36
TORSDOF 5
ENDMDL
