MODEL 1
REMARK VINA RESULT:      -8.6      0.000      0.000
REMARK  Name = NuBBE_877
REMARK  13 active torsions:
REMARK  status: ('A' for Active; 'I' for Inactive)
REMARK    1  A    between atoms: O_1  and  C_2
REMARK    2  A    between atoms: C_6  and  C_7
REMARK    3  A    between atoms: C_6  and  C_8
REMARK    4  A    between atoms: C_12  and  O_13
REMARK    5  A    between atoms: C_14  and  C_15
REMARK    6  A    between atoms: C_15  and  C_16
REMARK    7  A    between atoms: C_16  and  C_17
REMARK    8  A    between atoms: C_17  and  C_18
REMARK    9  A    between atoms: C_20  and  C_21
REMARK   10  A    between atoms: C_21  and  C_22
REMARK   11  A    between atoms: C_23  and  C_24
REMARK   12  A    between atoms: C_23  and  C_25
REMARK   13  A    between atoms: C_26  and  O_29
REMARK                            x       y       z     vdW  Elec       q    Type
REMARK                         _______ _______ _______ _____ _____    ______ ____
ROOT
ATOM      1  C   LIG A   1      -9.077  -1.914 123.429  0.00  0.00    +0.171 C 
ATOM      2  O   LIG A   1      -9.776  -2.824 122.998  0.00  0.00    -0.292 OA
ENDROOT
BRANCH   1  14
ATOM      3  C   LIG A   1      -8.736  -2.593 125.837  0.00  0.00    +0.138 A 
ATOM      4  C   LIG A   1      -7.954  -2.759 127.002  0.00  0.00    +0.037 A 
ATOM      5  C   LIG A   1      -6.592  -2.461 126.935  0.00  0.00    +0.131 A 
ATOM      6  O   LIG A   1      -5.719  -2.575 127.982  0.00  0.00    -0.486 OA
ATOM      7  C   LIG A   1      -6.285  -2.721 129.295  0.00  0.00    +0.105 C 
ATOM      8  C   LIG A   1      -6.634  -1.329 129.843  0.00  0.00    +0.055 C 
ATOM      9  C   LIG A   1      -5.173  -3.324 130.165  0.00  0.00    +0.055 C 
ATOM     10  C   LIG A   1      -7.479  -3.681 129.281  0.00  0.00    +0.052 C 
ATOM     11  C   LIG A   1      -8.552  -3.224 128.302  0.00  0.00    +0.046 C 
ATOM     12  C   LIG A   1      -6.017  -2.042 125.737  0.00  0.00    +0.092 A 
ATOM     13  C   LIG A   1      -6.801  -1.881 124.590  0.00  0.00    +0.134 A 
ATOM     14  C   LIG A   1      -8.177  -2.148 124.618  0.00  0.00    +0.101 A 
BRANCH   3  15
ATOM     15  O   LIG A   1     -10.064  -2.935 125.881  0.00  0.00    -0.505 OA
ATOM     16  H   LIG A   1     -10.162  -3.819 126.268  0.00  0.00    +0.292 HD
ENDBRANCH   3  15
BRANCH  13  17
ATOM     17  O   LIG A   1      -6.180  -1.430 123.457  0.00  0.00    -0.506 OA
ATOM     18  H   LIG A   1      -6.748  -0.770 123.020  0.00  0.00    +0.292 HD
ENDBRANCH  13  17
ENDBRANCH   1  14
BRANCH   1  19
ATOM     19  C   LIG A   1      -9.173  -0.519 122.821  0.00  0.00    +0.084 C 
BRANCH  19  20
ATOM     20  C   LIG A   1      -9.468   0.545 123.889  0.00  0.00    +0.043 C 
BRANCH  20  21
ATOM     21  C   LIG A   1      -8.267   1.425 124.174  0.00  0.00    -0.046 A 
ATOM     22  C   LIG A   1      -7.667   2.189 123.158  0.00  0.00    +0.011 A 
ATOM     23  C   LIG A   1      -6.545   3.008 123.412  0.00  0.00    -0.002 A 
ATOM     24  C   LIG A   1      -6.028   3.021 124.715  0.00  0.00    +0.120 A 
ATOM     25  C   LIG A   1      -6.639   2.304 125.740  0.00  0.00    +0.046 A 
ATOM     26  C   LIG A   1      -7.752   1.512 125.473  0.00  0.00    +0.007 A 
BRANCH  24  27
ATOM     27  O   LIG A   1      -4.910   3.720 125.080  0.00  0.00    -0.506 OA
ATOM     28  H   LIG A   1      -4.993   4.633 124.765  0.00  0.00    +0.292 HD
ENDBRANCH  24  27
BRANCH  23  29
ATOM     29  C   LIG A   1      -5.946   3.805 122.267  0.00  0.00    +0.066 C 
BRANCH  29  30
ATOM     30  C   LIG A   1      -6.782   3.807 121.011  0.00  0.00    -0.023 C 
ATOM     31  C   LIG A   1      -6.552   4.478 119.865  0.00  0.00    -0.079 C 
ATOM     32  C   LIG A   1      -5.376   5.374 119.600  0.00  0.00    +0.038 C 
ATOM     33  C   LIG A   1      -7.520   4.366 118.714  0.00  0.00    +0.038 C 
ENDBRANCH  29  30
ENDBRANCH  23  29
ENDBRANCH  20  21
ENDBRANCH  19  20
ENDBRANCH   1  19
TORSDOF 9
ENDMDL
MODEL 2
REMARK VINA RESULT:      -8.1      1.511      3.178
REMARK  Name = NuBBE_877
REMARK  13 active torsions:
REMARK  status: ('A' for Active; 'I' for Inactive)
REMARK    1  A    between atoms: O_1  and  C_2
REMARK    2  A    between atoms: C_6  and  C_7
REMARK    3  A    between atoms: C_6  and  C_8
REMARK    4  A    between atoms: C_12  and  O_13
REMARK    5  A    between atoms: C_14  and  C_15
REMARK    6  A    between atoms: C_15  and  C_16
REMARK    7  A    between atoms: C_16  and  C_17
REMARK    8  A    between atoms: C_17  and  C_18
REMARK    9  A    between atoms: C_20  and  C_21
REMARK   10  A    between atoms: C_21  and  C_22
REMARK   11  A    between atoms: C_23  and  C_24
REMARK   12  A    between atoms: C_23  and  C_25
REMARK   13  A    between atoms: C_26  and  O_29
REMARK                            x       y       z     vdW  Elec       q    Type
REMARK                         _______ _______ _______ _____ _____    ______ ____
ROOT
ATOM      1  C   LIG A   1      -9.163  -1.711 123.461  0.00  0.00    +0.171 C 
ATOM      2  O   LIG A   1      -9.785  -2.633 122.949  0.00  0.00    -0.292 OA
ENDROOT
BRANCH   1  14
ATOM      3  C   LIG A   1      -8.785  -2.491 125.833  0.00  0.00    +0.138 A 
ATOM      4  C   LIG A   1      -7.990  -2.687 126.985  0.00  0.00    +0.037 A 
ATOM      5  C   LIG A   1      -6.639  -2.345 126.924  0.00  0.00    +0.131 A 
ATOM      6  O   LIG A   1      -5.756  -2.481 127.961  0.00  0.00    -0.486 OA
ATOM      7  C   LIG A   1      -6.308  -2.705 129.268  0.00  0.00    +0.105 C 
ATOM      8  C   LIG A   1      -6.695  -1.351 129.883  0.00  0.00    +0.055 C 
ATOM      9  C   LIG A   1      -5.172  -3.314 130.104  0.00  0.00    +0.055 C 
ATOM     10  C   LIG A   1      -7.473  -3.700 129.216  0.00  0.00    +0.052 C 
ATOM     11  C   LIG A   1      -8.565  -3.229 128.264  0.00  0.00    +0.046 C 
ATOM     12  C   LIG A   1      -6.085  -1.853 125.744  0.00  0.00    +0.092 A 
ATOM     13  C   LIG A   1      -6.881  -1.663 124.611  0.00  0.00    +0.134 A 
ATOM     14  C   LIG A   1      -8.247  -1.973 124.633  0.00  0.00    +0.101 A 
BRANCH   3  15
ATOM     15  O   LIG A   1     -10.101  -2.875 125.868  0.00  0.00    -0.505 OA
ATOM     16  H   LIG A   1     -10.187  -3.784 125.542  0.00  0.00    +0.292 HD
ENDBRANCH   3  15
BRANCH  13  17
ATOM     17  O   LIG A   1      -6.281  -1.140 123.497  0.00  0.00    -0.506 OA
ATOM     18  H   LIG A   1      -6.560  -0.214 123.385  0.00  0.00    +0.292 HD
ENDBRANCH  13  17
ENDBRANCH   1  14
BRANCH   1  19
ATOM     19  C   LIG A   1      -9.370  -0.281 122.974  0.00  0.00    +0.084 C 
BRANCH  19  20
ATOM     20  C   LIG A   1      -9.379   0.719 124.139  0.00  0.00    +0.043 C 
BRANCH  20  21
ATOM     21  C   LIG A   1      -8.292   1.768 124.008  0.00  0.00    -0.046 A 
ATOM     22  C   LIG A   1      -7.491   2.127 125.105  0.00  0.00    +0.011 A 
ATOM     23  C   LIG A   1      -6.480   3.107 124.995  0.00  0.00    -0.002 A 
ATOM     24  C   LIG A   1      -6.310   3.733 123.752  0.00  0.00    +0.120 A 
ATOM     25  C   LIG A   1      -7.067   3.356 122.646  0.00  0.00    +0.046 A 
ATOM     26  C   LIG A   1      -8.051   2.379 122.771  0.00  0.00    +0.007 A 
BRANCH  24  27
ATOM     27  O   LIG A   1      -5.412   4.740 123.527  0.00  0.00    -0.506 OA
ATOM     28  H   LIG A   1      -5.885   5.511 123.179  0.00  0.00    +0.292 HD
ENDBRANCH  24  27
BRANCH  23  29
ATOM     29  C   LIG A   1      -5.653   3.447 126.222  0.00  0.00    +0.066 C 
BRANCH  29  30
ATOM     30  C   LIG A   1      -4.218   2.988 126.146  0.00  0.00    -0.023 C 
ATOM     31  C   LIG A   1      -3.130   3.576 126.683  0.00  0.00    -0.079 C 
ATOM     32  C   LIG A   1      -3.137   4.838 127.499  0.00  0.00    +0.038 C 
ATOM     33  C   LIG A   1      -1.764   2.972 126.483  0.00  0.00    +0.038 C 
ENDBRANCH  29  30
ENDBRANCH  23  29
ENDBRANCH  20  21
ENDBRANCH  19  20
ENDBRANCH   1  19
TORSDOF 9
ENDMDL
MODEL 3
REMARK VINA RESULT:      -8.1      1.138      2.153
REMARK  Name = NuBBE_877
REMARK  13 active torsions:
REMARK  status: ('A' for Active; 'I' for Inactive)
REMARK    1  A    between atoms: O_1  and  C_2
REMARK    2  A    between atoms: C_6  and  C_7
REMARK    3  A    between atoms: C_6  and  C_8
REMARK    4  A    between atoms: C_12  and  O_13
REMARK    5  A    between atoms: C_14  and  C_15
REMARK    6  A    between atoms: C_15  and  C_16
REMARK    7  A    between atoms: C_16  and  C_17
REMARK    8  A    between atoms: C_17  and  C_18
REMARK    9  A    between atoms: C_20  and  C_21
REMARK   10  A    between atoms: C_21  and  C_22
REMARK   11  A    between atoms: C_23  and  C_24
REMARK   12  A    between atoms: C_23  and  C_25
REMARK   13  A    between atoms: C_26  and  O_29
REMARK                            x       y       z     vdW  Elec       q    Type
REMARK                         _______ _______ _______ _____ _____    ______ ____
ROOT
ATOM      1  C   LIG A   1      -7.100  -1.981 123.907  0.00  0.00    +0.171 C 
ATOM      2  O   LIG A   1      -6.260  -2.634 123.300  0.00  0.00    -0.292 OA
ENDROOT
BRANCH   1  14
ATOM      3  C   LIG A   1      -6.337  -1.869 126.312  0.00  0.00    +0.138 A 
ATOM      4  C   LIG A   1      -6.471  -2.143 127.692  0.00  0.00    +0.037 A 
ATOM      5  C   LIG A   1      -7.622  -2.799 128.129  0.00  0.00    +0.131 A 
ATOM      6  O   LIG A   1      -7.882  -3.127 129.432  0.00  0.00    -0.486 OA
ATOM      7  C   LIG A   1      -6.783  -3.064 130.356  0.00  0.00    +0.105 C 
ATOM      8  C   LIG A   1      -5.985  -4.374 130.270  0.00  0.00    +0.055 C 
ATOM      9  C   LIG A   1      -7.415  -2.967 131.752  0.00  0.00    +0.055 C 
ATOM     10  C   LIG A   1      -5.925  -1.817 130.113  0.00  0.00    +0.052 C 
ATOM     11  C   LIG A   1      -5.404  -1.768 128.683  0.00  0.00    +0.046 C 
ATOM     12  C   LIG A   1      -8.627  -3.143 127.228  0.00  0.00    +0.092 A 
ATOM     13  C   LIG A   1      -8.484  -2.866 125.865  0.00  0.00    +0.134 A 
ATOM     14  C   LIG A   1      -7.335  -2.229 125.378  0.00  0.00    +0.101 A 
BRANCH   3  15
ATOM     15  O   LIG A   1      -5.233  -1.178 125.882  0.00  0.00    -0.505 OA
ATOM     16  H   LIG A   1      -4.756  -1.700 125.219  0.00  0.00    +0.292 HD
ENDBRANCH   3  15
BRANCH  13  17
ATOM     17  O   LIG A   1      -9.492  -3.265 125.029  0.00  0.00    -0.506 OA
ATOM     18  H   LIG A   1      -9.188  -4.021 124.495  0.00  0.00    +0.292 HD
ENDBRANCH  13  17
ENDBRANCH   1  14
BRANCH   1  19
ATOM     19  C   LIG A   1      -7.971  -0.973 123.166  0.00  0.00    +0.084 C 
BRANCH  19  20
ATOM     20  C   LIG A   1      -8.544   0.089 124.117  0.00  0.00    +0.043 C 
BRANCH  20  21
ATOM     21  C   LIG A   1      -7.596   1.254 124.319  0.00  0.00    -0.046 A 
ATOM     22  C   LIG A   1      -7.101   1.988 123.228  0.00  0.00    +0.011 A 
ATOM     23  C   LIG A   1      -6.213   3.071 123.405  0.00  0.00    -0.002 A 
ATOM     24  C   LIG A   1      -5.818   3.385 124.714  0.00  0.00    +0.120 A 
ATOM     25  C   LIG A   1      -6.335   2.694 125.807  0.00  0.00    +0.046 A 
ATOM     26  C   LIG A   1      -7.219   1.636 125.612  0.00  0.00    +0.007 A 
BRANCH  24  27
ATOM     27  O   LIG A   1      -4.917   4.367 125.019  0.00  0.00    -0.506 OA
ATOM     28  H   LIG A   1      -4.150   3.966 125.456  0.00  0.00    +0.292 HD
ENDBRANCH  24  27
BRANCH  23  29
ATOM     29  C   LIG A   1      -5.716   3.820 122.181  0.00  0.00    +0.066 C 
BRANCH  29  30
ATOM     30  C   LIG A   1      -6.671   3.797 121.013  0.00  0.00    -0.023 C 
ATOM     31  C   LIG A   1      -6.568   4.463 119.846  0.00  0.00    -0.079 C 
ATOM     32  C   LIG A   1      -5.440   5.378 119.463  0.00  0.00    +0.038 C 
ATOM     33  C   LIG A   1      -7.641   4.326 118.796  0.00  0.00    +0.038 C 
ENDBRANCH  29  30
ENDBRANCH  23  29
ENDBRANCH  20  21
ENDBRANCH  19  20
ENDBRANCH   1  19
TORSDOF 9
ENDMDL
MODEL 4
REMARK VINA RESULT:      -8.1      6.785      9.887
REMARK  Name = NuBBE_877
REMARK  13 active torsions:
REMARK  status: ('A' for Active; 'I' for Inactive)
REMARK    1  A    between atoms: O_1  and  C_2
REMARK    2  A    between atoms: C_6  and  C_7
REMARK    3  A    between atoms: C_6  and  C_8
REMARK    4  A    between atoms: C_12  and  O_13
REMARK    5  A    between atoms: C_14  and  C_15
REMARK    6  A    between atoms: C_15  and  C_16
REMARK    7  A    between atoms: C_16  and  C_17
REMARK    8  A    between atoms: C_17  and  C_18
REMARK    9  A    between atoms: C_20  and  C_21
REMARK   10  A    between atoms: C_21  and  C_22
REMARK   11  A    between atoms: C_23  and  C_24
REMARK   12  A    between atoms: C_23  and  C_25
REMARK   13  A    between atoms: C_26  and  O_29
REMARK                            x       y       z     vdW  Elec       q    Type
REMARK                         _______ _______ _______ _____ _____    ______ ____
ROOT
ATOM      1  C   LIG A   1      -7.521   5.264 132.106  0.00  0.00    +0.171 C 
ATOM      2  O   LIG A   1      -7.320   5.832 133.172  0.00  0.00    -0.292 OA
ENDROOT
BRANCH   1  14
ATOM      3  C   LIG A   1      -8.810   6.725 130.498  0.00  0.00    +0.138 A 
ATOM      4  C   LIG A   1      -9.973   7.098 129.788  0.00  0.00    +0.037 A 
ATOM      5  C   LIG A   1     -11.110   6.297 129.909  0.00  0.00    +0.131 A 
ATOM      6  O   LIG A   1     -12.301   6.539 129.282  0.00  0.00    -0.486 OA
ATOM      7  C   LIG A   1     -12.487   7.844 128.707  0.00  0.00    +0.105 C 
ATOM      8  C   LIG A   1     -12.964   8.807 129.805  0.00  0.00    +0.055 C 
ATOM      9  C   LIG A   1     -13.611   7.688 127.672  0.00  0.00    +0.055 C 
ATOM     10  C   LIG A   1     -11.218   8.321 127.993  0.00  0.00    +0.052 C 
ATOM     11  C   LIG A   1     -10.020   8.335 128.933  0.00  0.00    +0.046 C 
ATOM     12  C   LIG A   1     -11.082   5.141 130.687  0.00  0.00    +0.092 A 
ATOM     13  C   LIG A   1      -9.925   4.782 131.384  0.00  0.00    +0.134 A 
ATOM     14  C   LIG A   1      -8.768   5.568 131.309  0.00  0.00    +0.101 A 
BRANCH   3  15
ATOM     15  O   LIG A   1      -7.674   7.477 130.342  0.00  0.00    -0.505 OA
ATOM     16  H   LIG A   1      -7.604   8.121 131.063  0.00  0.00    +0.292 HD
ENDBRANCH   3  15
BRANCH  13  17
ATOM     17  O   LIG A   1      -9.978   3.655 132.159  0.00  0.00    -0.506 OA
ATOM     18  H   LIG A   1     -10.843   3.223 132.042  0.00  0.00    +0.292 HD
ENDBRANCH  13  17
ENDBRANCH   1  14
BRANCH   1  19
ATOM     19  C   LIG A   1      -6.559   4.188 131.615  0.00  0.00    +0.084 C 
BRANCH  19  20
ATOM     20  C   LIG A   1      -5.118   4.467 132.067  0.00  0.00    +0.043 C 
BRANCH  20  21
ATOM     21  C   LIG A   1      -4.274   5.074 130.964  0.00  0.00    -0.046 A 
ATOM     22  C   LIG A   1      -3.850   4.306 129.866  0.00  0.00    +0.011 A 
ATOM     23  C   LIG A   1      -3.059   4.860 128.836  0.00  0.00    -0.002 A 
ATOM     24  C   LIG A   1      -2.687   6.207 128.951  0.00  0.00    +0.120 A 
ATOM     25  C   LIG A   1      -3.137   6.990 130.011  0.00  0.00    +0.046 A 
ATOM     26  C   LIG A   1      -3.927   6.429 131.010  0.00  0.00    +0.007 A 
BRANCH  24  27
ATOM     27  O   LIG A   1      -1.873   6.848 128.058  0.00  0.00    -0.506 OA
ATOM     28  H   LIG A   1      -1.087   6.303 127.901  0.00  0.00    +0.292 HD
ENDBRANCH  24  27
BRANCH  23  29
ATOM     29  C   LIG A   1      -2.634   3.972 127.680  0.00  0.00    +0.066 C 
BRANCH  29  30
ATOM     30  C   LIG A   1      -3.594   3.972 126.516  0.00  0.00    -0.023 C 
ATOM     31  C   LIG A   1      -4.592   3.101 126.265  0.00  0.00    -0.079 C 
ATOM     32  C   LIG A   1      -4.963   1.930 127.130  0.00  0.00    +0.038 C 
ATOM     33  C   LIG A   1      -5.442   3.256 125.030  0.00  0.00    +0.038 C 
ENDBRANCH  29  30
ENDBRANCH  23  29
ENDBRANCH  20  21
ENDBRANCH  19  20
ENDBRANCH   1  19
TORSDOF 9
ENDMDL
MODEL 5
REMARK VINA RESULT:      -8.1      5.118      7.535
REMARK  Name = NuBBE_877
REMARK  13 active torsions:
REMARK  status: ('A' for Active; 'I' for Inactive)
REMARK    1  A    between atoms: O_1  and  C_2
REMARK    2  A    between atoms: C_6  and  C_7
REMARK    3  A    between atoms: C_6  and  C_8
REMARK    4  A    between atoms: C_12  and  O_13
REMARK    5  A    between atoms: C_14  and  C_15
REMARK    6  A    between atoms: C_15  and  C_16
REMARK    7  A    between atoms: C_16  and  C_17
REMARK    8  A    between atoms: C_17  and  C_18
REMARK    9  A    between atoms: C_20  and  C_21
REMARK   10  A    between atoms: C_21  and  C_22
REMARK   11  A    between atoms: C_23  and  C_24
REMARK   12  A    between atoms: C_23  and  C_25
REMARK   13  A    between atoms: C_26  and  O_29
REMARK                            x       y       z     vdW  Elec       q    Type
REMARK                         _______ _______ _______ _____ _____    ______ ____
ROOT
ATOM      1  C   LIG A   1      -7.259   0.974 129.684  0.00  0.00    +0.171 C 
ATOM      2  O   LIG A   1      -6.336   1.778 129.625  0.00  0.00    -0.292 OA
ENDROOT
BRANCH   1  14
ATOM      3  C   LIG A   1      -7.558  -1.008 128.148  0.00  0.00    +0.138 A 
ATOM      4  C   LIG A   1      -7.984  -1.622 126.949  0.00  0.00    +0.037 A 
ATOM      5  C   LIG A   1      -8.660  -0.843 126.010  0.00  0.00    +0.131 A 
ATOM      6  O   LIG A   1      -9.127  -1.304 124.809  0.00  0.00    -0.486 OA
ATOM      7  C   LIG A   1      -8.636  -2.577 124.359  0.00  0.00    +0.105 C 
ATOM      8  C   LIG A   1      -7.283  -2.369 123.661  0.00  0.00    +0.055 C 
ATOM      9  C   LIG A   1      -9.651  -3.074 123.320  0.00  0.00    +0.055 C 
ATOM     10  C   LIG A   1      -8.572  -3.586 125.512  0.00  0.00    +0.052 C 
ATOM     11  C   LIG A   1      -7.709  -3.071 126.656  0.00  0.00    +0.046 C 
ATOM     12  C   LIG A   1      -8.936   0.499 126.268  0.00  0.00    +0.092 A 
ATOM     13  C   LIG A   1      -8.509   1.095 127.459  0.00  0.00    +0.134 A 
ATOM     14  C   LIG A   1      -7.808   0.356 128.420  0.00  0.00    +0.101 A 
BRANCH   3  15
ATOM     15  O   LIG A   1      -6.940  -1.780 129.099  0.00  0.00    -0.505 OA
ATOM     16  H   LIG A   1      -6.247  -2.318 128.686  0.00  0.00    +0.292 HD
ENDBRANCH   3  15
BRANCH  13  17
ATOM     17  O   LIG A   1      -8.779   2.425 127.632  0.00  0.00    -0.506 OA
ATOM     18  H   LIG A   1      -9.162   2.786 126.812  0.00  0.00    +0.292 HD
ENDBRANCH  13  17
ENDBRANCH   1  14
BRANCH   1  19
ATOM     19  C   LIG A   1      -7.914   0.656 131.023  0.00  0.00    +0.084 C 
BRANCH  19  20
ATOM     20  C   LIG A   1      -9.319   1.266 131.126  0.00  0.00    +0.043 C 
BRANCH  20  21
ATOM     21  C   LIG A   1      -9.309   2.634 131.779  0.00  0.00    -0.046 A 
ATOM     22  C   LIG A   1      -9.369   3.808 131.009  0.00  0.00    +0.011 A 
ATOM     23  C   LIG A   1      -9.354   5.087 131.608  0.00  0.00    -0.002 A 
ATOM     24  C   LIG A   1      -9.256   5.154 133.005  0.00  0.00    +0.120 A 
ATOM     25  C   LIG A   1      -9.240   3.998 133.781  0.00  0.00    +0.046 A 
ATOM     26  C   LIG A   1      -9.268   2.746 133.174  0.00  0.00    +0.007 A 
BRANCH  24  27
ATOM     27  O   LIG A   1      -9.169   6.326 133.703  0.00  0.00    -0.506 OA
ATOM     28  H   LIG A   1      -8.261   6.435 134.023  0.00  0.00    +0.292 HD
ENDBRANCH  24  27
BRANCH  23  29
ATOM     29  C   LIG A   1      -9.421   6.314 130.715  0.00  0.00    +0.066 C 
BRANCH  29  30
ATOM     30  C   LIG A   1     -10.800   6.912 130.589  0.00  0.00    -0.023 C 
ATOM     31  C   LIG A   1     -11.251   7.761 129.643  0.00  0.00    -0.079 C 
ATOM     32  C   LIG A   1     -10.447   8.283 128.487  0.00  0.00    +0.038 C 
ATOM     33  C   LIG A   1     -12.669   8.269 129.694  0.00  0.00    +0.038 C 
ENDBRANCH  29  30
ENDBRANCH  23  29
ENDBRANCH  20  21
ENDBRANCH  19  20
ENDBRANCH   1  19
TORSDOF 9
ENDMDL
MODEL 6
REMARK VINA RESULT:      -8.0      1.647      2.252
REMARK  Name = NuBBE_877
REMARK  13 active torsions:
REMARK  status: ('A' for Active; 'I' for Inactive)
REMARK    1  A    between atoms: O_1  and  C_2
REMARK    2  A    between atoms: C_6  and  C_7
REMARK    3  A    between atoms: C_6  and  C_8
REMARK    4  A    between atoms: C_12  and  O_13
REMARK    5  A    between atoms: C_14  and  C_15
REMARK    6  A    between atoms: C_15  and  C_16
REMARK    7  A    between atoms: C_16  and  C_17
REMARK    8  A    between atoms: C_17  and  C_18
REMARK    9  A    between atoms: C_20  and  C_21
REMARK   10  A    between atoms: C_21  and  C_22
REMARK   11  A    between atoms: C_23  and  C_24
REMARK   12  A    between atoms: C_23  and  C_25
REMARK   13  A    between atoms: C_26  and  O_29
REMARK                            x       y       z     vdW  Elec       q    Type
REMARK                         _______ _______ _______ _____ _____    ______ ____
ROOT
ATOM      1  C   LIG A   1      -7.790  -3.243 124.731  0.00  0.00    +0.171 C 
ATOM      2  O   LIG A   1      -7.368  -4.333 124.363  0.00  0.00    -0.292 OA
ENDROOT
BRANCH   1  14
ATOM      3  C   LIG A   1      -7.903  -2.865 127.226  0.00  0.00    +0.138 A 
ATOM      4  C   LIG A   1      -7.493  -2.246 128.427  0.00  0.00    +0.037 A 
ATOM      5  C   LIG A   1      -6.424  -1.351 128.381  0.00  0.00    +0.131 A 
ATOM      6  O   LIG A   1      -5.924  -0.681 129.464  0.00  0.00    -0.486 OA
ATOM      7  C   LIG A   1      -6.728  -0.666 130.655  0.00  0.00    +0.105 C 
ATOM      8  C   LIG A   1      -7.766   0.461 130.540  0.00  0.00    +0.055 C 
ATOM      9  C   LIG A   1      -5.767  -0.329 131.805  0.00  0.00    +0.055 C 
ATOM     10  C   LIG A   1      -7.354  -2.040 130.919  0.00  0.00    +0.052 C 
ATOM     11  C   LIG A   1      -8.189  -2.509 129.735  0.00  0.00    +0.046 C 
ATOM     12  C   LIG A   1      -5.758  -1.104 127.182  0.00  0.00    +0.092 A 
ATOM     13  C   LIG A   1      -6.173  -1.723 125.999  0.00  0.00    +0.134 A 
ATOM     14  C   LIG A   1      -7.256  -2.612 125.995  0.00  0.00    +0.101 A 
BRANCH   3  15
ATOM     15  O   LIG A   1      -8.919  -3.786 127.272  0.00  0.00    -0.505 OA
ATOM     16  H   LIG A   1      -9.233  -3.974 126.375  0.00  0.00    +0.292 HD
ENDBRANCH   3  15
BRANCH  13  17
ATOM     17  O   LIG A   1      -5.500  -1.407 124.850  0.00  0.00    -0.506 OA
ATOM     18  H   LIG A   1      -4.600  -1.110 125.075  0.00  0.00    +0.292 HD
ENDBRANCH  13  17
ENDBRANCH   1  14
BRANCH   1  19
ATOM     19  C   LIG A   1      -8.913  -2.555 123.963  0.00  0.00    +0.084 C 
BRANCH  19  20
ATOM     20  C   LIG A   1      -8.366  -1.555 122.934  0.00  0.00    +0.043 C 
BRANCH  20  21
ATOM     21  C   LIG A   1      -8.481  -0.119 123.406  0.00  0.00    -0.046 A 
ATOM     22  C   LIG A   1      -7.472   0.821 123.132  0.00  0.00    +0.011 A 
ATOM     23  C   LIG A   1      -7.567   2.159 123.572  0.00  0.00    -0.002 A 
ATOM     24  C   LIG A   1      -8.698   2.523 124.317  0.00  0.00    +0.120 A 
ATOM     25  C   LIG A   1      -9.725   1.614 124.558  0.00  0.00    +0.046 A 
ATOM     26  C   LIG A   1      -9.619   0.302 124.105  0.00  0.00    +0.007 A 
BRANCH  24  27
ATOM     27  O   LIG A   1      -8.883   3.767 124.854  0.00  0.00    -0.506 OA
ATOM     28  H   LIG A   1      -9.834   3.928 124.955  0.00  0.00    +0.292 HD
ENDBRANCH  24  27
BRANCH  23  29
ATOM     29  C   LIG A   1      -6.440   3.121 123.241  0.00  0.00    +0.066 C 
BRANCH  29  30
ATOM     30  C   LIG A   1      -6.453   3.622 121.818  0.00  0.00    -0.023 C 
ATOM     31  C   LIG A   1      -5.535   4.395 121.204  0.00  0.00    -0.079 C 
ATOM     32  C   LIG A   1      -4.273   4.914 121.832  0.00  0.00    +0.038 C 
ATOM     33  C   LIG A   1      -5.733   4.813 119.769  0.00  0.00    +0.038 C 
ENDBRANCH  29  30
ENDBRANCH  23  29
ENDBRANCH  20  21
ENDBRANCH  19  20
ENDBRANCH   1  19
TORSDOF 9
ENDMDL
MODEL 7
REMARK VINA RESULT:      -8.0      7.763     10.837
REMARK  Name = NuBBE_877
REMARK  13 active torsions:
REMARK  status: ('A' for Active; 'I' for Inactive)
REMARK    1  A    between atoms: O_1  and  C_2
REMARK    2  A    between atoms: C_6  and  C_7
REMARK    3  A    between atoms: C_6  and  C_8
REMARK    4  A    between atoms: C_12  and  O_13
REMARK    5  A    between atoms: C_14  and  C_15
REMARK    6  A    between atoms: C_15  and  C_16
REMARK    7  A    between atoms: C_16  and  C_17
REMARK    8  A    between atoms: C_17  and  C_18
REMARK    9  A    between atoms: C_20  and  C_21
REMARK   10  A    between atoms: C_21  and  C_22
REMARK   11  A    between atoms: C_23  and  C_24
REMARK   12  A    between atoms: C_23  and  C_25
REMARK   13  A    between atoms: C_26  and  O_29
REMARK                            x       y       z     vdW  Elec       q    Type
REMARK                         _______ _______ _______ _____ _____    ______ ____
ROOT
ATOM      1  C   LIG A   1      -7.288   4.857 132.666  0.00  0.00    +0.171 C 
ATOM      2  O   LIG A   1      -6.918   5.178 133.789  0.00  0.00    -0.292 OA
ENDROOT
BRANCH   1  14
ATOM      3  C   LIG A   1      -9.614   5.716 132.187  0.00  0.00    +0.138 A 
ATOM      4  C   LIG A   1     -10.552   6.473 131.451  0.00  0.00    +0.037 A 
ATOM      5  C   LIG A   1     -10.087   7.266 130.401  0.00  0.00    +0.131 A 
ATOM      6  O   LIG A   1     -10.881   8.047 129.607  0.00  0.00    -0.486 OA
ATOM      7  C   LIG A   1     -12.298   7.812 129.661  0.00  0.00    +0.105 C 
ATOM      8  C   LIG A   1     -12.644   6.647 128.720  0.00  0.00    +0.055 C 
ATOM      9  C   LIG A   1     -12.955   9.090 129.118  0.00  0.00    +0.055 C 
ATOM     10  C   LIG A   1     -12.768   7.586 131.101  0.00  0.00    +0.052 C 
ATOM     11  C   LIG A   1     -12.025   6.429 131.756  0.00  0.00    +0.046 C 
ATOM     12  C   LIG A   1      -8.726   7.330 130.112  0.00  0.00    +0.092 A 
ATOM     13  C   LIG A   1      -7.806   6.576 130.847  0.00  0.00    +0.134 A 
ATOM     14  C   LIG A   1      -8.232   5.750 131.896  0.00  0.00    +0.101 A 
BRANCH   3  15
ATOM     15  O   LIG A   1     -10.057   4.976 133.254  0.00  0.00    -0.505 OA
ATOM     16  H   LIG A   1     -10.928   4.599 133.054  0.00  0.00    +0.292 HD
ENDBRANCH   3  15
BRANCH  13  17
ATOM     17  O   LIG A   1      -6.489   6.656 130.486  0.00  0.00    -0.506 OA
ATOM     18  H   LIG A   1      -5.936   6.288 131.198  0.00  0.00    +0.292 HD
ENDBRANCH  13  17
ENDBRANCH   1  14
BRANCH   1  19
ATOM     19  C   LIG A   1      -6.866   3.518 132.072  0.00  0.00    +0.084 C 
BRANCH  19  20
ATOM     20  C   LIG A   1      -5.377   3.232 132.319  0.00  0.00    +0.043 C 
BRANCH  20  21
ATOM     21  C   LIG A   1      -4.508   3.647 131.149  0.00  0.00    -0.046 A 
ATOM     22  C   LIG A   1      -3.702   4.798 131.212  0.00  0.00    +0.011 A 
ATOM     23  C   LIG A   1      -2.893   5.196 130.126  0.00  0.00    -0.002 A 
ATOM     24  C   LIG A   1      -2.931   4.415 128.962  0.00  0.00    +0.120 A 
ATOM     25  C   LIG A   1      -3.691   3.249 128.901  0.00  0.00    +0.046 A 
ATOM     26  C   LIG A   1      -4.473   2.866 129.987  0.00  0.00    +0.007 A 
BRANCH  24  27
ATOM     27  O   LIG A   1      -2.246   4.723 127.820  0.00  0.00    -0.506 OA
ATOM     28  H   LIG A   1      -2.146   3.921 127.285  0.00  0.00    +0.292 HD
ENDBRANCH  24  27
BRANCH  23  29
ATOM     29  C   LIG A   1      -2.048   6.450 130.263  0.00  0.00    +0.066 C 
BRANCH  29  30
ATOM     30  C   LIG A   1      -2.450   7.343 131.411  0.00  0.00    -0.023 C 
ATOM     31  C   LIG A   1      -1.727   7.662 132.504  0.00  0.00    -0.079 C 
ATOM     32  C   LIG A   1      -0.332   7.186 132.794  0.00  0.00    +0.038 C 
ATOM     33  C   LIG A   1      -2.310   8.563 133.562  0.00  0.00    +0.038 C 
ENDBRANCH  29  30
ENDBRANCH  23  29
ENDBRANCH  20  21
ENDBRANCH  19  20
ENDBRANCH   1  19
TORSDOF 9
ENDMDL
MODEL 8
REMARK VINA RESULT:      -8.0      9.174     12.645
REMARK  Name = NuBBE_877
REMARK  13 active torsions:
REMARK  status: ('A' for Active; 'I' for Inactive)
REMARK    1  A    between atoms: O_1  and  C_2
REMARK    2  A    between atoms: C_6  and  C_7
REMARK    3  A    between atoms: C_6  and  C_8
REMARK    4  A    between atoms: C_12  and  O_13
REMARK    5  A    between atoms: C_14  and  C_15
REMARK    6  A    between atoms: C_15  and  C_16
REMARK    7  A    between atoms: C_16  and  C_17
REMARK    8  A    between atoms: C_17  and  C_18
REMARK    9  A    between atoms: C_20  and  C_21
REMARK   10  A    between atoms: C_21  and  C_22
REMARK   11  A    between atoms: C_23  and  C_24
REMARK   12  A    between atoms: C_23  and  C_25
REMARK   13  A    between atoms: C_26  and  O_29
REMARK                            x       y       z     vdW  Elec       q    Type
REMARK                         _______ _______ _______ _____ _____    ______ ____
ROOT
ATOM      1  C   LIG A   1      -7.456   3.486 132.192  0.00  0.00    +0.171 C 
ATOM      2  O   LIG A   1      -6.348   3.489 131.670  0.00  0.00    -0.292 OA
ENDROOT
BRANCH   1  14
ATOM      3  C   LIG A   1      -8.711   5.345 131.031  0.00  0.00    +0.138 A 
ATOM      4  C   LIG A   1      -9.839   5.888 130.377  0.00  0.00    +0.037 A 
ATOM      5  C   LIG A   1     -10.929   5.053 130.130  0.00  0.00    +0.131 A 
ATOM      6  O   LIG A   1     -12.083   5.444 129.509  0.00  0.00    -0.486 OA
ATOM      7  C   LIG A   1     -12.307   6.857 129.371  0.00  0.00    +0.105 C 
ATOM      8  C   LIG A   1     -12.923   7.392 130.672  0.00  0.00    +0.055 C 
ATOM      9  C   LIG A   1     -13.339   7.008 128.244  0.00  0.00    +0.055 C 
ATOM     10  C   LIG A   1     -11.021   7.586 128.966  0.00  0.00    +0.052 C 
ATOM     11  C   LIG A   1      -9.899   7.333 129.965  0.00  0.00    +0.046 C 
ATOM     12  C   LIG A   1     -10.887   3.708 130.493  0.00  0.00    +0.092 A 
ATOM     13  C   LIG A   1      -9.765   3.181 131.140  0.00  0.00    +0.134 A 
ATOM     14  C   LIG A   1      -8.656   3.989 131.426  0.00  0.00    +0.101 A 
BRANCH   3  15
ATOM     15  O   LIG A   1      -7.615   6.146 131.228  0.00  0.00    -0.505 OA
ATOM     16  H   LIG A   1      -7.710   6.965 130.718  0.00  0.00    +0.292 HD
ENDBRANCH   3  15
BRANCH  13  17
ATOM     17  O   LIG A   1      -9.804   1.862 131.503  0.00  0.00    -0.506 OA
ATOM     18  H   LIG A   1      -9.863   1.796 132.472  0.00  0.00    +0.292 HD
ENDBRANCH  13  17
ENDBRANCH   1  14
BRANCH   1  19
ATOM     19  C   LIG A   1      -7.618   3.053 133.645  0.00  0.00    +0.084 C 
BRANCH  19  20
ATOM     20  C   LIG A   1      -8.351   4.117 134.476  0.00  0.00    +0.043 C 
BRANCH  20  21
ATOM     21  C   LIG A   1      -7.400   4.957 135.305  0.00  0.00    -0.046 A 
ATOM     22  C   LIG A   1      -7.863   6.052 136.056  0.00  0.00    +0.011 A 
ATOM     23  C   LIG A   1      -6.986   6.844 136.827  0.00  0.00    -0.002 A 
ATOM     24  C   LIG A   1      -5.622   6.519 136.806  0.00  0.00    +0.120 A 
ATOM     25  C   LIG A   1      -5.157   5.412 136.102  0.00  0.00    +0.046 A 
ATOM     26  C   LIG A   1      -6.039   4.634 135.357  0.00  0.00    +0.007 A 
BRANCH  24  27
ATOM     27  O   LIG A   1      -4.660   7.241 137.457  0.00  0.00    -0.506 OA
ATOM     28  H   LIG A   1      -3.897   7.352 136.869  0.00  0.00    +0.292 HD
ENDBRANCH  24  27
BRANCH  23  29
ATOM     29  C   LIG A   1      -7.554   8.013 137.614  0.00  0.00    +0.066 C 
BRANCH  29  30
ATOM     30  C   LIG A   1      -9.040   8.207 137.444  0.00  0.00    -0.023 C 
ATOM     31  C   LIG A   1      -9.850   9.040 138.129  0.00  0.00    -0.079 C 
ATOM     32  C   LIG A   1      -9.414   9.976 139.220  0.00  0.00    +0.038 C 
ATOM     33  C   LIG A   1     -11.326   9.082 137.826  0.00  0.00    +0.038 C 
ENDBRANCH  29  30
ENDBRANCH  23  29
ENDBRANCH  20  21
ENDBRANCH  19  20
ENDBRANCH   1  19
TORSDOF 9
ENDMDL
MODEL 9
REMARK VINA RESULT:      -7.9      7.580     10.696
REMARK  Name = NuBBE_877
REMARK  13 active torsions:
REMARK  status: ('A' for Active; 'I' for Inactive)
REMARK    1  A    between atoms: O_1  and  C_2
REMARK    2  A    between atoms: C_6  and  C_7
REMARK    3  A    between atoms: C_6  and  C_8
REMARK    4  A    between atoms: C_12  and  O_13
REMARK    5  A    between atoms: C_14  and  C_15
REMARK    6  A    between atoms: C_15  and  C_16
REMARK    7  A    between atoms: C_16  and  C_17
REMARK    8  A    between atoms: C_17  and  C_18
REMARK    9  A    between atoms: C_20  and  C_21
REMARK   10  A    between atoms: C_21  and  C_22
REMARK   11  A    between atoms: C_23  and  C_24
REMARK   12  A    between atoms: C_23  and  C_25
REMARK   13  A    between atoms: C_26  and  O_29
REMARK                            x       y       z     vdW  Elec       q    Type
REMARK                         _______ _______ _______ _____ _____    ______ ____
ROOT
ATOM      1  C   LIG A   1      -7.515   5.096 132.243  0.00  0.00    +0.171 C 
ATOM      2  O   LIG A   1      -7.371   5.732 133.280  0.00  0.00    -0.292 OA
ENDROOT
BRANCH   1  14
ATOM      3  C   LIG A   1      -8.764   6.525 130.576  0.00  0.00    +0.138 A 
ATOM      4  C   LIG A   1      -9.889   6.849 129.786  0.00  0.00    +0.037 A 
ATOM      5  C   LIG A   1     -10.981   5.980 129.798  0.00  0.00    +0.131 A 
ATOM      6  O   LIG A   1     -12.133   6.169 129.085  0.00  0.00    -0.486 OA
ATOM      7  C   LIG A   1     -12.353   7.477 128.530  0.00  0.00    +0.105 C 
ATOM      8  C   LIG A   1     -12.971   8.377 129.611  0.00  0.00    +0.055 C 
ATOM      9  C   LIG A   1     -13.383   7.286 127.406  0.00  0.00    +0.055 C 
ATOM     10  C   LIG A   1     -11.065   8.050 127.930  0.00  0.00    +0.052 C 
ATOM     11  C   LIG A   1      -9.946   8.106 128.961  0.00  0.00    +0.046 C 
ATOM     12  C   LIG A   1     -10.942   4.805 130.546  0.00  0.00    +0.092 A 
ATOM     13  C   LIG A   1      -9.823   4.494 131.323  0.00  0.00    +0.134 A 
ATOM     14  C   LIG A   1      -8.713   5.349 131.358  0.00  0.00    +0.101 A 
BRANCH   3  15
ATOM     15  O   LIG A   1      -7.666   7.347 130.528  0.00  0.00    -0.505 OA
ATOM     16  H   LIG A   1      -6.862   6.830 130.687  0.00  0.00    +0.292 HD
ENDBRANCH   3  15
BRANCH  13  17
ATOM     17  O   LIG A   1      -9.866   3.344 132.064  0.00  0.00    -0.506 OA
ATOM     18  H   LIG A   1     -10.153   3.554 132.970  0.00  0.00    +0.292 HD
ENDBRANCH  13  17
ENDBRANCH   1  14
BRANCH   1  19
ATOM     19  C   LIG A   1      -6.533   3.989 131.879  0.00  0.00    +0.084 C 
BRANCH  19  20
ATOM     20  C   LIG A   1      -6.405   3.821 130.358  0.00  0.00    +0.043 C 
BRANCH  20  21
ATOM     21  C   LIG A   1      -5.186   4.528 129.799  0.00  0.00    -0.046 A 
ATOM     22  C   LIG A   1      -4.154   4.975 130.642  0.00  0.00    +0.011 A 
ATOM     23  C   LIG A   1      -3.017   5.639 130.132  0.00  0.00    -0.002 A 
ATOM     24  C   LIG A   1      -2.956   5.862 128.749  0.00  0.00    +0.120 A 
ATOM     25  C   LIG A   1      -3.950   5.386 127.899  0.00  0.00    +0.046 A 
ATOM     26  C   LIG A   1      -5.058   4.722 128.419  0.00  0.00    +0.007 A 
BRANCH  24  27
ATOM     27  O   LIG A   1      -1.944   6.547 128.136  0.00  0.00    -0.506 OA
ATOM     28  H   LIG A   1      -1.904   6.283 127.204  0.00  0.00    +0.292 HD
ENDBRANCH  24  27
BRANCH  23  29
ATOM     29  C   LIG A   1      -1.940   6.097 131.100  0.00  0.00    +0.066 C 
BRANCH  29  30
ATOM     30  C   LIG A   1      -2.297   7.337 131.881  0.00  0.00    -0.023 C 
ATOM     31  C   LIG A   1      -1.523   8.023 132.745  0.00  0.00    -0.079 C 
ATOM     32  C   LIG A   1      -0.103   7.685 133.100  0.00  0.00    +0.038 C 
ATOM     33  C   LIG A   1      -2.066   9.240 133.449  0.00  0.00    +0.038 C 
ENDBRANCH  29  30
ENDBRANCH  23  29
ENDBRANCH  20  21
ENDBRANCH  19  20
ENDBRANCH   1  19
TORSDOF 9
ENDMDL
