MODEL 1
REMARK VINA RESULT:      -7.8      0.000      0.000
REMARK  Name = NuBBE_377
REMARK  4 active torsions:
REMARK  status: ('A' for Active; 'I' for Inactive)
REMARK    1  A    between atoms: C_1  and  C_2
REMARK    2  A    between atoms: C_4  and  O_5
REMARK    3  A    between atoms: C_9  and  O_11
REMARK    4  A    between atoms: C_19  and  O_21
REMARK                            x       y       z     vdW  Elec       q    Type
REMARK                         _______ _______ _______ _____ _____    ______ ____
ROOT
ATOM      1  C   LIG A   1     -10.742   8.505 128.005  0.00  0.00    +0.044 C 
ATOM      2  C   LIG A   1     -10.458   7.788 129.291  0.00  0.00    -0.046 A 
ATOM      3  C   LIG A   1     -11.495   7.252 130.059  0.00  0.00    +0.049 A 
ATOM      4  C   LIG A   1     -11.205   6.571 131.242  0.00  0.00    +0.123 A 
ATOM      5  C   LIG A   1      -9.139   7.634 129.732  0.00  0.00    +0.015 A 
ATOM      6  C   LIG A   1      -8.855   6.930 130.915  0.00  0.00    +0.027 A 
ATOM      7  C   LIG A   1      -9.888   6.396 131.691  0.00  0.00    +0.033 A 
ATOM      8  C   LIG A   1      -9.616   5.588 132.941  0.00  0.00    +0.152 C 
ATOM      9  C   LIG A   1      -8.174   5.726 133.479  0.00  0.00    +0.033 C 
ATOM     10  C   LIG A   1      -7.118   5.702 132.366  0.00  0.00    +0.068 C 
ATOM     11  C   LIG A   1      -7.432   6.712 131.278  0.00  0.00    +0.167 C 
ATOM     12  O   LIG A   1      -6.535   7.272 130.655  0.00  0.00    -0.292 OA
ATOM     13  C   LIG A   1      -6.922   4.319 131.747  0.00  0.00    +0.043 C 
ATOM     14  C   LIG A   1      -6.605   3.255 132.795  0.00  0.00    +0.115 C 
ATOM     15  C   LIG A   1      -7.549   3.272 133.996  0.00  0.00    +0.032 C 
ATOM     16  C   LIG A   1      -7.810   4.676 134.547  0.00  0.00    +0.009 C 
ENDROOT
BRANCH   4  17
ATOM     17  O   LIG A   1     -12.228   6.032 131.973  0.00  0.00    -0.506 OA
ATOM     18  H   LIG A   1     -11.919   5.230 132.428  0.00  0.00    +0.292 HD
ENDBRANCH   4  17
BRANCH   8  19
ATOM     19  O   LIG A   1      -9.914   4.219 132.685  0.00  0.00    -0.387 OA
ATOM     20  H   LIG A   1      -9.605   3.677 133.428  0.00  0.00    +0.210 HD
ENDBRANCH   8  19
BRANCH  14  21
ATOM     21  O   LIG A   1      -6.672   1.967 132.188  0.00  0.00    -0.392 OA
ATOM     22  H   LIG A   1      -5.981   1.923 131.504  0.00  0.00    +0.210 HD
ENDBRANCH  14  21
TORSDOF 3
ENDMDL
MODEL 2
REMARK VINA RESULT:      -7.2      2.018      3.580
REMARK  Name = NuBBE_377
REMARK  4 active torsions:
REMARK  status: ('A' for Active; 'I' for Inactive)
REMARK    1  A    between atoms: C_1  and  C_2
REMARK    2  A    between atoms: C_4  and  O_5
REMARK    3  A    between atoms: C_9  and  O_11
REMARK    4  A    between atoms: C_19  and  O_21
REMARK                            x       y       z     vdW  Elec       q    Type
REMARK                         _______ _______ _______ _____ _____    ______ ____
ROOT
ATOM      1  C   LIG A   1     -13.335   9.910 128.780  0.00  0.00    +0.044 C 
ATOM      2  C   LIG A   1     -12.425   8.725 128.908  0.00  0.00    -0.046 A 
ATOM      3  C   LIG A   1     -11.628   8.312 127.838  0.00  0.00    +0.049 A 
ATOM      4  C   LIG A   1     -10.774   7.218 127.987  0.00  0.00    +0.123 A 
ATOM      5  C   LIG A   1     -12.354   8.022 130.116  0.00  0.00    +0.015 A 
ATOM      6  C   LIG A   1     -11.477   6.934 130.264  0.00  0.00    +0.027 A 
ATOM      7  C   LIG A   1     -10.680   6.512 129.195  0.00  0.00    +0.033 A 
ATOM      8  C   LIG A   1      -9.687   5.379 129.334  0.00  0.00    +0.152 C 
ATOM      9  C   LIG A   1      -9.897   4.509 130.593  0.00  0.00    +0.033 C 
ATOM     10  C   LIG A   1     -10.217   5.338 131.844  0.00  0.00    +0.068 C 
ATOM     11  C   LIG A   1     -11.371   6.293 131.599  0.00  0.00    +0.167 C 
ATOM     12  O   LIG A   1     -12.146   6.595 132.500  0.00  0.00    -0.292 OA
ATOM     13  C   LIG A   1      -9.014   6.108 132.385  0.00  0.00    +0.043 C 
ATOM     14  C   LIG A   1      -7.817   5.199 132.650  0.00  0.00    +0.115 C 
ATOM     15  C   LIG A   1      -7.486   4.260 131.491  0.00  0.00    +0.032 C 
ATOM     16  C   LIG A   1      -8.715   3.567 130.898  0.00  0.00    +0.009 C 
ENDROOT
BRANCH   4  17
ATOM     17  O   LIG A   1      -9.982   6.837 126.938  0.00  0.00    -0.506 OA
ATOM     18  H   LIG A   1      -9.785   7.607 126.379  0.00  0.00    +0.292 HD
ENDBRANCH   4  17
BRANCH   8  19
ATOM     19  O   LIG A   1      -8.367   5.911 129.321  0.00  0.00    -0.387 OA
ATOM     20  H   LIG A   1      -7.982   5.799 128.437  0.00  0.00    +0.210 HD
ENDBRANCH   8  19
BRANCH  14  21
ATOM     21  O   LIG A   1      -6.670   6.003 132.919  0.00  0.00    -0.392 OA
ATOM     22  H   LIG A   1      -6.946   6.729 133.504  0.00  0.00    +0.210 HD
ENDBRANCH  14  21
TORSDOF 3
ENDMDL
MODEL 3
REMARK VINA RESULT:      -7.0      8.215     10.070
REMARK  Name = NuBBE_377
REMARK  4 active torsions:
REMARK  status: ('A' for Active; 'I' for Inactive)
REMARK    1  A    between atoms: C_1  and  C_2
REMARK    2  A    between atoms: C_4  and  O_5
REMARK    3  A    between atoms: C_9  and  O_11
REMARK    4  A    between atoms: C_19  and  O_21
REMARK                            x       y       z     vdW  Elec       q    Type
REMARK                         _______ _______ _______ _____ _____    ______ ____
ROOT
ATOM      1  C   LIG A   1      -8.892  -4.038 128.099  0.00  0.00    +0.044 C 
ATOM      2  C   LIG A   1      -8.668  -3.064 126.981  0.00  0.00    -0.046 A 
ATOM      3  C   LIG A   1      -9.341  -3.199 125.764  0.00  0.00    +0.049 A 
ATOM      4  C   LIG A   1      -9.132  -2.268 124.745  0.00  0.00    +0.123 A 
ATOM      5  C   LIG A   1      -7.787  -1.990 127.152  0.00  0.00    +0.015 A 
ATOM      6  C   LIG A   1      -7.597  -1.046 126.128  0.00  0.00    +0.027 A 
ATOM      7  C   LIG A   1      -8.263  -1.179 124.905  0.00  0.00    +0.033 A 
ATOM      8  C   LIG A   1      -8.123  -0.155 123.801  0.00  0.00    +0.152 C 
ATOM      9  C   LIG A   1      -6.929   0.808 123.984  0.00  0.00    +0.033 C 
ATOM     10  C   LIG A   1      -6.767   1.290 125.432  0.00  0.00    +0.068 C 
ATOM     11  C   LIG A   1      -6.728   0.125 126.404  0.00  0.00    +0.167 C 
ATOM     12  O   LIG A   1      -6.064   0.182 127.434  0.00  0.00    -0.292 OA
ATOM     13  C   LIG A   1      -7.840   2.287 125.862  0.00  0.00    +0.043 C 
ATOM     14  C   LIG A   1      -7.930   3.484 124.919  0.00  0.00    +0.115 C 
ATOM     15  C   LIG A   1      -7.992   3.102 123.441  0.00  0.00    +0.032 C 
ATOM     16  C   LIG A   1      -6.972   2.031 123.045  0.00  0.00    +0.009 C 
ENDROOT
BRANCH   4  17
ATOM     17  O   LIG A   1      -9.814  -2.400 123.567  0.00  0.00    -0.506 OA
ATOM     18  H   LIG A   1     -10.112  -1.527 123.261  0.00  0.00    +0.292 HD
ENDBRANCH   4  17
BRANCH   8  19
ATOM     19  O   LIG A   1      -9.336   0.584 123.693  0.00  0.00    -0.387 OA
ATOM     20  H   LIG A   1      -9.989   0.063 123.201  0.00  0.00    +0.210 HD
ENDBRANCH   8  19
BRANCH  14  21
ATOM     21  O   LIG A   1      -9.094   4.243 125.237  0.00  0.00    -0.392 OA
ATOM     22  H   LIG A   1      -8.946   4.671 126.097  0.00  0.00    +0.210 HD
ENDBRANCH  14  21
TORSDOF 3
ENDMDL
MODEL 4
REMARK VINA RESULT:      -7.0      1.855      2.183
REMARK  Name = NuBBE_377
REMARK  4 active torsions:
REMARK  status: ('A' for Active; 'I' for Inactive)
REMARK    1  A    between atoms: C_1  and  C_2
REMARK    2  A    between atoms: C_4  and  O_5
REMARK    3  A    between atoms: C_9  and  O_11
REMARK    4  A    between atoms: C_19  and  O_21
REMARK                            x       y       z     vdW  Elec       q    Type
REMARK                         _______ _______ _______ _____ _____    ______ ____
ROOT
ATOM      1  C   LIG A   1     -13.190   7.142 127.033  0.00  0.00    +0.044 C 
ATOM      2  C   LIG A   1     -12.459   7.008 128.336  0.00  0.00    -0.046 A 
ATOM      3  C   LIG A   1     -13.041   7.429 129.534  0.00  0.00    +0.049 A 
ATOM      4  C   LIG A   1     -12.350   7.276 130.737  0.00  0.00    +0.123 A 
ATOM      5  C   LIG A   1     -11.180   6.441 128.367  0.00  0.00    +0.015 A 
ATOM      6  C   LIG A   1     -10.498   6.273 129.585  0.00  0.00    +0.027 A 
ATOM      7  C   LIG A   1     -11.073   6.697 130.787  0.00  0.00    +0.033 A 
ATOM      8  C   LIG A   1     -10.392   6.484 132.121  0.00  0.00    +0.152 C 
ATOM      9  C   LIG A   1      -8.894   6.123 132.011  0.00  0.00    +0.033 C 
ATOM     10  C   LIG A   1      -8.603   5.117 130.890  0.00  0.00    +0.068 C 
ATOM     11  C   LIG A   1      -9.189   5.574 129.567  0.00  0.00    +0.167 C 
ATOM     12  O   LIG A   1      -8.641   5.301 128.504  0.00  0.00    -0.292 OA
ATOM     13  C   LIG A   1      -9.083   3.701 131.206  0.00  0.00    +0.043 C 
ATOM     14  C   LIG A   1      -8.528   3.185 132.532  0.00  0.00    +0.115 C 
ATOM     15  C   LIG A   1      -8.682   4.168 133.690  0.00  0.00    +0.032 C 
ATOM     16  C   LIG A   1      -8.286   5.602 133.329  0.00  0.00    +0.009 C 
ENDROOT
BRANCH   4  17
ATOM     17  O   LIG A   1     -12.941   7.672 131.905  0.00  0.00    -0.506 OA
ATOM     18  H   LIG A   1     -13.870   7.389 131.916  0.00  0.00    +0.292 HD
ENDBRANCH   4  17
BRANCH   8  19
ATOM     19  O   LIG A   1     -11.088   5.474 132.844  0.00  0.00    -0.387 OA
ATOM     20  H   LIG A   1     -10.593   5.254 133.649  0.00  0.00    +0.210 HD
ENDBRANCH   8  19
BRANCH  14  21
ATOM     21  O   LIG A   1      -9.196   1.974 132.877  0.00  0.00    -0.392 OA
ATOM     22  H   LIG A   1      -8.842   1.670 133.731  0.00  0.00    +0.210 HD
ENDBRANCH  14  21
TORSDOF 3
ENDMDL
MODEL 5
REMARK VINA RESULT:      -7.0      1.991      6.083
REMARK  Name = NuBBE_377
REMARK  4 active torsions:
REMARK  status: ('A' for Active; 'I' for Inactive)
REMARK    1  A    between atoms: C_1  and  C_2
REMARK    2  A    between atoms: C_4  and  O_5
REMARK    3  A    between atoms: C_9  and  O_11
REMARK    4  A    between atoms: C_19  and  O_21
REMARK                            x       y       z     vdW  Elec       q    Type
REMARK                         _______ _______ _______ _____ _____    ______ ____
ROOT
ATOM      1  C   LIG A   1      -9.245   3.728 134.007  0.00  0.00    +0.044 C 
ATOM      2  C   LIG A   1      -9.270   4.629 132.808  0.00  0.00    -0.046 A 
ATOM      3  C   LIG A   1      -8.177   4.703 131.940  0.00  0.00    +0.049 A 
ATOM      4  C   LIG A   1      -8.231   5.532 130.820  0.00  0.00    +0.123 A 
ATOM      5  C   LIG A   1     -10.405   5.400 132.533  0.00  0.00    +0.015 A 
ATOM      6  C   LIG A   1     -10.459   6.219 131.392  0.00  0.00    +0.027 A 
ATOM      7  C   LIG A   1      -9.366   6.302 130.523  0.00  0.00    +0.033 A 
ATOM      8  C   LIG A   1      -9.409   7.130 129.258  0.00  0.00    +0.152 C 
ATOM      9  C   LIG A   1     -10.574   8.144 129.209  0.00  0.00    +0.033 C 
ATOM     10  C   LIG A   1     -11.895   7.560 129.727  0.00  0.00    +0.068 C 
ATOM     11  C   LIG A   1     -11.726   6.935 131.100  0.00  0.00    +0.167 C 
ATOM     12  O   LIG A   1     -12.641   6.944 131.917  0.00  0.00    -0.292 OA
ATOM     13  C   LIG A   1     -12.526   6.548 128.772  0.00  0.00    +0.043 C 
ATOM     14  C   LIG A   1     -12.719   7.120 127.370  0.00  0.00    +0.115 C 
ATOM     15  C   LIG A   1     -11.480   7.814 126.810  0.00  0.00    +0.032 C 
ATOM     16  C   LIG A   1     -10.804   8.754 127.812  0.00  0.00    +0.009 C 
ENDROOT
BRANCH   4  17
ATOM     17  O   LIG A   1      -7.163   5.579 129.967  0.00  0.00    -0.506 OA
ATOM     18  H   LIG A   1      -6.401   5.982 130.417  0.00  0.00    +0.292 HD
ENDBRANCH   4  17
BRANCH   8  19
ATOM     19  O   LIG A   1      -9.468   6.261 128.132  0.00  0.00    -0.387 OA
ATOM     20  H   LIG A   1     -10.315   6.382 127.674  0.00  0.00    +0.210 HD
ENDBRANCH   8  19
BRANCH  14  21
ATOM     21  O   LIG A   1     -13.083   6.065 126.482  0.00  0.00    -0.392 OA
ATOM     22  H   LIG A   1     -13.862   5.616 126.854  0.00  0.00    +0.210 HD
ENDBRANCH  14  21
TORSDOF 3
ENDMDL
MODEL 6
REMARK VINA RESULT:      -6.9      8.130      9.696
REMARK  Name = NuBBE_377
REMARK  4 active torsions:
REMARK  status: ('A' for Active; 'I' for Inactive)
REMARK    1  A    between atoms: C_1  and  C_2
REMARK    2  A    between atoms: C_4  and  O_5
REMARK    3  A    between atoms: C_9  and  O_11
REMARK    4  A    between atoms: C_19  and  O_21
REMARK                            x       y       z     vdW  Elec       q    Type
REMARK                         _______ _______ _______ _____ _____    ______ ____
ROOT
ATOM      1  C   LIG A   1      -7.514   4.419 118.352  0.00  0.00    +0.044 C 
ATOM      2  C   LIG A   1      -6.949   4.259 119.732  0.00  0.00    -0.046 A 
ATOM      3  C   LIG A   1      -5.747   4.873 120.094  0.00  0.00    +0.049 A 
ATOM      4  C   LIG A   1      -5.252   4.726 121.390  0.00  0.00    +0.123 A 
ATOM      5  C   LIG A   1      -7.635   3.498 120.687  0.00  0.00    +0.015 A 
ATOM      6  C   LIG A   1      -7.139   3.372 121.996  0.00  0.00    +0.027 A 
ATOM      7  C   LIG A   1      -5.933   3.979 122.362  0.00  0.00    +0.033 A 
ATOM      8  C   LIG A   1      -5.397   3.908 123.775  0.00  0.00    +0.152 C 
ATOM      9  C   LIG A   1      -6.069   2.825 124.649  0.00  0.00    +0.033 C 
ATOM     10  C   LIG A   1      -7.590   2.762 124.457  0.00  0.00    +0.068 C 
ATOM     11  C   LIG A   1      -7.960   2.637 122.991  0.00  0.00    +0.167 C 
ATOM     12  O   LIG A   1      -8.959   2.018 122.640  0.00  0.00    -0.292 OA
ATOM     13  C   LIG A   1      -8.329   3.947 125.078  0.00  0.00    +0.043 C 
ATOM     14  C   LIG A   1      -7.994   4.126 126.556  0.00  0.00    +0.115 C 
ATOM     15  C   LIG A   1      -6.497   4.099 126.858  0.00  0.00    +0.032 C 
ATOM     16  C   LIG A   1      -5.754   2.962 126.152  0.00  0.00    +0.009 C 
ENDROOT
BRANCH   4  17
ATOM     17  O   LIG A   1      -4.085   5.350 121.737  0.00  0.00    -0.506 OA
ATOM     18  H   LIG A   1      -4.273   6.258 122.029  0.00  0.00    +0.292 HD
ENDBRANCH   4  17
BRANCH   8  19
ATOM     19  O   LIG A   1      -5.529   5.185 124.389  0.00  0.00    -0.387 OA
ATOM     20  H   LIG A   1      -6.135   5.735 123.866  0.00  0.00    +0.210 HD
ENDBRANCH   8  19
BRANCH  14  21
ATOM     21  O   LIG A   1      -8.521   5.373 127.006  0.00  0.00    -0.392 OA
ATOM     22  H   LIG A   1      -7.967   5.683 127.743  0.00  0.00    +0.210 HD
ENDBRANCH  14  21
TORSDOF 3
ENDMDL
MODEL 7
REMARK VINA RESULT:      -6.6      8.594      9.568
REMARK  Name = NuBBE_377
REMARK  4 active torsions:
REMARK  status: ('A' for Active; 'I' for Inactive)
REMARK    1  A    between atoms: C_1  and  C_2
REMARK    2  A    between atoms: C_4  and  O_5
REMARK    3  A    between atoms: C_9  and  O_11
REMARK    4  A    between atoms: C_19  and  O_21
REMARK                            x       y       z     vdW  Elec       q    Type
REMARK                         _______ _______ _______ _____ _____    ______ ____
ROOT
ATOM      1  C   LIG A   1      -4.894   5.075 120.087  0.00  0.00    +0.044 C 
ATOM      2  C   LIG A   1      -5.960   4.402 120.900  0.00  0.00    -0.046 A 
ATOM      3  C   LIG A   1      -7.208   4.107 120.347  0.00  0.00    +0.049 A 
ATOM      4  C   LIG A   1      -8.177   3.462 121.117  0.00  0.00    +0.123 A 
ATOM      5  C   LIG A   1      -5.707   4.046 122.230  0.00  0.00    +0.015 A 
ATOM      6  C   LIG A   1      -6.682   3.380 122.993  0.00  0.00    +0.027 A 
ATOM      7  C   LIG A   1      -7.935   3.086 122.447  0.00  0.00    +0.033 A 
ATOM      8  C   LIG A   1      -8.988   2.324 123.221  0.00  0.00    +0.152 C 
ATOM      9  C   LIG A   1      -8.715   2.240 124.739  0.00  0.00    +0.033 C 
ATOM     10  C   LIG A   1      -7.243   1.959 125.066  0.00  0.00    +0.068 C 
ATOM     11  C   LIG A   1      -6.320   2.938 124.363  0.00  0.00    +0.167 C 
ATOM     12  O   LIG A   1      -5.262   3.290 124.875  0.00  0.00    -0.292 OA
ATOM     13  C   LIG A   1      -6.815   0.527 124.751  0.00  0.00    +0.043 C 
ATOM     14  C   LIG A   1      -7.710  -0.507 125.429  0.00  0.00    +0.115 C 
ATOM     15  C   LIG A   1      -9.203  -0.248 125.243  0.00  0.00    +0.032 C 
ATOM     16  C   LIG A   1      -9.602   1.212 125.471  0.00  0.00    +0.009 C 
ENDROOT
BRANCH   4  17
ATOM     17  O   LIG A   1      -9.388   3.160 120.557  0.00  0.00    -0.506 OA
ATOM     18  H   LIG A   1     -10.089   3.246 121.224  0.00  0.00    +0.292 HD
ENDBRANCH   4  17
BRANCH   8  19
ATOM     19  O   LIG A   1      -9.115   1.016 122.673  0.00  0.00    -0.387 OA
ATOM     20  H   LIG A   1      -9.397   1.080 121.747  0.00  0.00    +0.210 HD
ENDBRANCH   8  19
BRANCH  14  21
ATOM     21  O   LIG A   1      -7.408  -1.799 124.908  0.00  0.00    -0.392 OA
ATOM     22  H   LIG A   1      -8.237  -2.307 124.869  0.00  0.00    +0.210 HD
ENDBRANCH  14  21
TORSDOF 3
ENDMDL
MODEL 8
REMARK VINA RESULT:      -6.4      9.262     10.121
REMARK  Name = NuBBE_377
REMARK  4 active torsions:
REMARK  status: ('A' for Active; 'I' for Inactive)
REMARK    1  A    between atoms: C_1  and  C_2
REMARK    2  A    between atoms: C_4  and  O_5
REMARK    3  A    between atoms: C_9  and  O_11
REMARK    4  A    between atoms: C_19  and  O_21
REMARK                            x       y       z     vdW  Elec       q    Type
REMARK                         _______ _______ _______ _____ _____    ______ ____
ROOT
ATOM      1  C   LIG A   1      -6.805   3.753 121.411  0.00  0.00    +0.044 C 
ATOM      2  C   LIG A   1      -7.202   2.768 122.470  0.00  0.00    -0.046 A 
ATOM      3  C   LIG A   1      -8.053   3.138 123.513  0.00  0.00    +0.049 A 
ATOM      4  C   LIG A   1      -8.425   2.199 124.476  0.00  0.00    +0.123 A 
ATOM      5  C   LIG A   1      -6.731   1.451 122.414  0.00  0.00    +0.015 A 
ATOM      6  C   LIG A   1      -7.126   0.506 123.377  0.00  0.00    +0.027 A 
ATOM      7  C   LIG A   1      -7.973   0.871 124.427  0.00  0.00    +0.033 A 
ATOM      8  C   LIG A   1      -8.460  -0.131 125.450  0.00  0.00    +0.152 C 
ATOM      9  C   LIG A   1      -7.665  -1.456 125.461  0.00  0.00    +0.033 C 
ATOM     10  C   LIG A   1      -7.342  -1.970 124.052  0.00  0.00    +0.068 C 
ATOM     11  C   LIG A   1      -6.676  -0.899 123.208  0.00  0.00    +0.167 C 
ATOM     12  O   LIG A   1      -5.849  -1.191 122.350  0.00  0.00    -0.292 OA
ATOM     13  C   LIG A   1      -8.560  -2.524 123.315  0.00  0.00    +0.043 C 
ATOM     14  C   LIG A   1      -9.278  -3.608 124.118  0.00  0.00    +0.115 C 
ATOM     15  C   LIG A   1      -9.551  -3.221 125.570  0.00  0.00    +0.032 C 
ATOM     16  C   LIG A   1      -8.348  -2.580 126.266  0.00  0.00    +0.009 C 
ENDROOT
BRANCH   4  17
ATOM     17  O   LIG A   1      -9.276   2.568 125.481  0.00  0.00    -0.506 OA
ATOM     18  H   LIG A   1     -10.193   2.374 125.222  0.00  0.00    +0.292 HD
ENDBRANCH   4  17
BRANCH   8  19
ATOM     19  O   LIG A   1      -9.843  -0.392 125.227  0.00  0.00    -0.387 OA
ATOM     20  H   LIG A   1     -10.153   0.134 124.473  0.00  0.00    +0.210 HD
ENDBRANCH   8  19
BRANCH  14  21
ATOM     21  O   LIG A   1     -10.522  -3.906 123.490  0.00  0.00    -0.392 OA
ATOM     22  H   LIG A   1     -10.333  -4.257 122.602  0.00  0.00    +0.210 HD
ENDBRANCH  14  21
TORSDOF 3
ENDMDL
MODEL 9
REMARK VINA RESULT:      -6.3      8.432     10.749
REMARK  Name = NuBBE_377
REMARK  4 active torsions:
REMARK  status: ('A' for Active; 'I' for Inactive)
REMARK    1  A    between atoms: C_1  and  C_2
REMARK    2  A    between atoms: C_4  and  O_5
REMARK    3  A    between atoms: C_9  and  O_11
REMARK    4  A    between atoms: C_19  and  O_21
REMARK                            x       y       z     vdW  Elec       q    Type
REMARK                         _______ _______ _______ _____ _____    ______ ____
ROOT
ATOM      1  C   LIG A   1      -5.380  -5.110 131.483  0.00  0.00    +0.044 C 
ATOM      2  C   LIG A   1      -5.659  -3.993 130.523  0.00  0.00    -0.046 A 
ATOM      3  C   LIG A   1      -4.755  -2.941 130.360  0.00  0.00    +0.049 A 
ATOM      4  C   LIG A   1      -5.027  -1.923 129.445  0.00  0.00    +0.123 A 
ATOM      5  C   LIG A   1      -6.833  -4.001 129.760  0.00  0.00    +0.015 A 
ATOM      6  C   LIG A   1      -7.090  -2.982 128.826  0.00  0.00    +0.027 A 
ATOM      7  C   LIG A   1      -6.192  -1.923 128.663  0.00  0.00    +0.033 A 
ATOM      8  C   LIG A   1      -6.410  -0.838 127.632  0.00  0.00    +0.152 C 
ATOM      9  C   LIG A   1      -7.846  -0.790 127.064  0.00  0.00    +0.033 C 
ATOM     10  C   LIG A   1      -8.419  -2.183 126.770  0.00  0.00    +0.068 C 
ATOM     11  C   LIG A   1      -8.301  -3.098 127.975  0.00  0.00    +0.167 C 
ATOM     12  O   LIG A   1      -9.138  -3.968 128.194  0.00  0.00    -0.292 OA
ATOM     13  C   LIG A   1      -7.790  -2.851 125.549  0.00  0.00    +0.043 C 
ATOM     14  C   LIG A   1      -7.875  -1.975 124.302  0.00  0.00    +0.115 C 
ATOM     15  C   LIG A   1      -7.419  -0.535 124.527  0.00  0.00    +0.032 C 
ATOM     16  C   LIG A   1      -7.984   0.090 125.805  0.00  0.00    +0.009 C 
ENDROOT
BRANCH   4  17
ATOM     17  O   LIG A   1      -4.123  -0.909 129.281  0.00  0.00    -0.506 OA
ATOM     18  H   LIG A   1      -3.714  -0.975 128.402  0.00  0.00    +0.292 HD
ENDBRANCH   4  17
BRANCH   8  19
ATOM     19  O   LIG A   1      -5.471  -1.003 126.575  0.00  0.00    -0.387 OA
ATOM     20  H   LIG A   1      -4.585  -1.134 126.947  0.00  0.00    +0.210 HD
ENDBRANCH   8  19
BRANCH  14  21
ATOM     21  O   LIG A   1      -7.069  -2.547 123.274  0.00  0.00    -0.392 OA
ATOM     22  H   LIG A   1      -7.533  -3.330 122.932  0.00  0.00    +0.210 HD
ENDBRANCH  14  21
TORSDOF 3
ENDMDL
