MODEL 1
REMARK VINA RESULT:      -7.1      0.000      0.000
REMARK  Name = NuBBE_1223
REMARK  7 active torsions:
REMARK  status: ('A' for Active; 'I' for Inactive)
REMARK    1  A    between atoms: C_3  and  O_4
REMARK    2  A    between atoms: O_4  and  C_5
REMARK    3  A    between atoms: C_6  and  C_16
REMARK    4  A    between atoms: C_10  and  O_11
REMARK    5  A    between atoms: C_13  and  O_14
REMARK    6  A    between atoms: C_18  and  O_19
REMARK    7  A    between atoms: C_20  and  O_23
REMARK                            x       y       z     vdW  Elec       q    Type
REMARK                         _______ _______ _______ _____ _____    ______ ____
ROOT
ATOM      1  O   LIG A   1      -8.641   2.149 126.240  0.00  0.00    -0.283 OA
ATOM      2  C   LIG A   1      -8.027   1.865 125.216  0.00  0.00    +0.238 A 
ATOM      3  C   LIG A   1      -7.597   2.871 124.197  0.00  0.00    +0.211 A 
ATOM      4  C   LIG A   1      -6.995   2.396 123.089  0.00  0.00    +0.181 A 
ATOM      5  O   LIG A   1      -6.721   1.068 122.824  0.00  0.00    -0.451 OA
ATOM      6  C   LIG A   1      -7.050   0.133 123.768  0.00  0.00    +0.146 A 
ATOM      7  C   LIG A   1      -7.688   0.458 124.959  0.00  0.00    +0.109 A 
ATOM      8  C   LIG A   1      -7.993  -0.552 125.881  0.00  0.00    +0.135 A 
ATOM      9  C   LIG A   1      -7.656  -1.877 125.615  0.00  0.00    +0.091 A 
ATOM     10  C   LIG A   1      -7.019  -2.186 124.417  0.00  0.00    +0.124 A 
ATOM     11  C   LIG A   1      -6.715  -1.193 123.491  0.00  0.00    +0.092 A 
ENDROOT
BRANCH   4  12
ATOM     12  C   LIG A   1      -6.548   3.291 122.011  0.00  0.00    +0.025 A 
ATOM     13  C   LIG A   1      -7.345   3.476 120.872  0.00  0.00    +0.060 A 
ATOM     14  C   LIG A   1      -6.903   4.324 119.862  0.00  0.00    +0.159 A 
ATOM     15  C   LIG A   1      -5.681   4.983 119.978  0.00  0.00    +0.158 A 
ATOM     16  C   LIG A   1      -4.882   4.808 121.097  0.00  0.00    +0.050 A 
ATOM     17  C   LIG A   1      -5.316   3.959 122.118  0.00  0.00    +0.015 A 
BRANCH  14  18
ATOM     18  O   LIG A   1      -7.637   4.543 118.728  0.00  0.00    -0.503 OA
ATOM     19  H   LIG A   1      -7.525   3.775 118.141  0.00  0.00    +0.292 HD
ENDBRANCH  14  18
BRANCH  15  20
ATOM     20  O   LIG A   1      -5.257   5.812 118.979  0.00  0.00    -0.503 OA
ATOM     21  H   LIG A   1      -5.284   6.705 119.376  0.00  0.00    +0.292 HD
ENDBRANCH  15  20
ENDBRANCH   4  12
BRANCH   3  22
ATOM     22  O   LIG A   1      -7.834   4.231 124.341  0.00  0.00    -0.488 OA
ATOM     23  C   LIG A   1      -6.998   4.922 125.261  0.00  0.00    +0.277 C 
ENDBRANCH   3  22
BRANCH   8  24
ATOM     24  O   LIG A   1      -8.624  -0.311 127.073  0.00  0.00    -0.506 OA
ATOM     25  H   LIG A   1      -9.412  -0.899 127.125  0.00  0.00    +0.292 HD
ENDBRANCH   8  24
BRANCH  10  26
ATOM     26  O   LIG A   1      -6.670  -3.467 124.110  0.00  0.00    -0.506 OA
ATOM     27  H   LIG A   1      -6.989  -3.675 123.215  0.00  0.00    +0.292 HD
ENDBRANCH  10  26
TORSDOF 6
ENDMDL
MODEL 2
REMARK VINA RESULT:      -6.9      2.987      4.239
REMARK  Name = NuBBE_1223
REMARK  7 active torsions:
REMARK  status: ('A' for Active; 'I' for Inactive)
REMARK    1  A    between atoms: C_3  and  O_4
REMARK    2  A    between atoms: O_4  and  C_5
REMARK    3  A    between atoms: C_6  and  C_16
REMARK    4  A    between atoms: C_10  and  O_11
REMARK    5  A    between atoms: C_13  and  O_14
REMARK    6  A    between atoms: C_18  and  O_19
REMARK    7  A    between atoms: C_20  and  O_23
REMARK                            x       y       z     vdW  Elec       q    Type
REMARK                         _______ _______ _______ _____ _____    ______ ____
ROOT
ATOM      1  O   LIG A   1      -9.481  -1.698 123.268  0.00  0.00    -0.283 OA
ATOM      2  C   LIG A   1      -8.952  -1.058 124.173  0.00  0.00    +0.238 A 
ATOM      3  C   LIG A   1      -8.525   0.368 124.044  0.00  0.00    +0.211 A 
ATOM      4  C   LIG A   1      -7.893   0.912 125.103  0.00  0.00    +0.181 A 
ATOM      5  O   LIG A   1      -7.626   0.275 126.301  0.00  0.00    -0.451 OA
ATOM      6  C   LIG A   1      -8.062  -1.012 126.466  0.00  0.00    +0.146 A 
ATOM      7  C   LIG A   1      -8.718  -1.719 125.465  0.00  0.00    +0.109 A 
ATOM      8  C   LIG A   1      -9.137  -3.034 125.706  0.00  0.00    +0.135 A 
ATOM      9  C   LIG A   1      -8.906  -3.635 126.941  0.00  0.00    +0.091 A 
ATOM     10  C   LIG A   1      -8.246  -2.914 127.932  0.00  0.00    +0.124 A 
ATOM     11  C   LIG A   1      -7.821  -1.609 127.704  0.00  0.00    +0.092 A 
ENDROOT
BRANCH   4  12
ATOM     12  C   LIG A   1      -7.409   2.300 125.082  0.00  0.00    +0.025 A 
ATOM     13  C   LIG A   1      -8.281   3.355 125.387  0.00  0.00    +0.060 A 
ATOM     14  C   LIG A   1      -7.804   4.662 125.358  0.00  0.00    +0.159 A 
ATOM     15  C   LIG A   1      -6.475   4.922 125.029  0.00  0.00    +0.158 A 
ATOM     16  C   LIG A   1      -5.603   3.889 124.724  0.00  0.00    +0.050 A 
ATOM     17  C   LIG A   1      -6.071   2.573 124.750  0.00  0.00    +0.015 A 
BRANCH  14  18
ATOM     18  O   LIG A   1      -8.606   5.732 125.646  0.00  0.00    -0.503 OA
ATOM     19  H   LIG A   1      -9.528   5.421 125.674  0.00  0.00    +0.292 HD
ENDBRANCH  14  18
BRANCH  15  20
ATOM     20  O   LIG A   1      -6.019   6.208 125.003  0.00  0.00    -0.503 OA
ATOM     21  H   LIG A   1      -5.050   6.122 124.902  0.00  0.00    +0.292 HD
ENDBRANCH  15  20
ENDBRANCH   4  12
BRANCH   3  22
ATOM     22  O   LIG A   1      -8.718   1.106 122.886  0.00  0.00    -0.488 OA
ATOM     23  C   LIG A   1     -10.054   1.513 122.613  0.00  0.00    +0.277 C 
ENDBRANCH   3  22
BRANCH   8  24
ATOM     24  O   LIG A   1      -9.785  -3.796 124.769  0.00  0.00    -0.506 OA
ATOM     25  H   LIG A   1      -9.654  -3.374 123.890  0.00  0.00    +0.292 HD
ENDBRANCH   8  24
BRANCH  10  26
ATOM     26  O   LIG A   1      -7.996  -3.458 129.156  0.00  0.00    -0.506 OA
ATOM     27  H   LIG A   1      -8.843  -3.680 129.581  0.00  0.00    +0.292 HD
ENDBRANCH  10  26
TORSDOF 6
ENDMDL
MODEL 3
REMARK VINA RESULT:      -6.8      8.443     10.047
REMARK  Name = NuBBE_1223
REMARK  7 active torsions:
REMARK  status: ('A' for Active; 'I' for Inactive)
REMARK    1  A    between atoms: C_3  and  O_4
REMARK    2  A    between atoms: O_4  and  C_5
REMARK    3  A    between atoms: C_6  and  C_16
REMARK    4  A    between atoms: C_10  and  O_11
REMARK    5  A    between atoms: C_13  and  O_14
REMARK    6  A    between atoms: C_18  and  O_19
REMARK    7  A    between atoms: C_20  and  O_23
REMARK                            x       y       z     vdW  Elec       q    Type
REMARK                         _______ _______ _______ _____ _____    ______ ____
ROOT
ATOM      1  O   LIG A   1      -9.962   5.261 133.084  0.00  0.00    -0.283 OA
ATOM      2  C   LIG A   1      -9.324   5.790 132.179  0.00  0.00    +0.238 A 
ATOM      3  C   LIG A   1      -7.842   5.668 132.024  0.00  0.00    +0.211 A 
ATOM      4  C   LIG A   1      -7.275   6.367 131.021  0.00  0.00    +0.181 A 
ATOM      5  O   LIG A   1      -7.944   7.166 130.113  0.00  0.00    -0.451 OA
ATOM      6  C   LIG A   1      -9.308   7.246 130.196  0.00  0.00    +0.146 A 
ATOM      7  C   LIG A   1     -10.042   6.597 131.182  0.00  0.00    +0.109 A 
ATOM      8  C   LIG A   1     -11.437   6.723 131.205  0.00  0.00    +0.135 A 
ATOM      9  C   LIG A   1     -12.094   7.489 130.244  0.00  0.00    +0.091 A 
ATOM     10  C   LIG A   1     -11.344   8.135 129.266  0.00  0.00    +0.124 A 
ATOM     11  C   LIG A   1      -9.957   8.021 129.235  0.00  0.00    +0.092 A 
ENDROOT
BRANCH   4  12
ATOM     12  C   LIG A   1      -5.824   6.339 130.787  0.00  0.00    +0.025 A 
ATOM     13  C   LIG A   1      -5.259   5.341 129.979  0.00  0.00    +0.060 A 
ATOM     14  C   LIG A   1      -3.884   5.331 129.772  0.00  0.00    +0.159 A 
ATOM     15  C   LIG A   1      -3.073   6.299 130.361  0.00  0.00    +0.158 A 
ATOM     16  C   LIG A   1      -3.618   7.291 131.162  0.00  0.00    +0.050 A 
ATOM     17  C   LIG A   1      -4.998   7.311 131.377  0.00  0.00    +0.015 A 
BRANCH  14  18
ATOM     18  O   LIG A   1      -3.275   4.383 128.995  0.00  0.00    -0.503 OA
ATOM     19  H   LIG A   1      -3.963   3.789 128.648  0.00  0.00    +0.292 HD
ENDBRANCH  14  18
BRANCH  15  20
ATOM     20  O   LIG A   1      -1.724   6.278 130.152  0.00  0.00    -0.503 OA
ATOM     21  H   LIG A   1      -1.361   5.835 130.944  0.00  0.00    +0.292 HD
ENDBRANCH  15  20
ENDBRANCH   4  12
BRANCH   3  22
ATOM     22  O   LIG A   1      -7.059   4.912 132.885  0.00  0.00    -0.488 OA
ATOM     23  C   LIG A   1      -7.088   3.504 132.690  0.00  0.00    +0.277 C 
ENDBRANCH   3  22
BRANCH   8  24
ATOM     24  O   LIG A   1     -12.228   6.117 132.145  0.00  0.00    -0.506 OA
ATOM     25  H   LIG A   1     -12.815   5.476 131.683  0.00  0.00    +0.292 HD
ENDBRANCH   8  24
BRANCH  10  26
ATOM     26  O   LIG A   1     -11.939   8.897 128.305  0.00  0.00    -0.506 OA
ATOM     27  H   LIG A   1     -11.276   9.128 127.631  0.00  0.00    +0.292 HD
ENDBRANCH  10  26
TORSDOF 6
ENDMDL
MODEL 4
REMARK VINA RESULT:      -6.8      3.279      8.054
REMARK  Name = NuBBE_1223
REMARK  7 active torsions:
REMARK  status: ('A' for Active; 'I' for Inactive)
REMARK    1  A    between atoms: C_3  and  O_4
REMARK    2  A    between atoms: O_4  and  C_5
REMARK    3  A    between atoms: C_6  and  C_16
REMARK    4  A    between atoms: C_10  and  O_11
REMARK    5  A    between atoms: C_13  and  O_14
REMARK    6  A    between atoms: C_18  and  O_19
REMARK    7  A    between atoms: C_20  and  O_23
REMARK                            x       y       z     vdW  Elec       q    Type
REMARK                         _______ _______ _______ _____ _____    ______ ____
ROOT
ATOM      1  O   LIG A   1      -9.826  -1.857 123.386  0.00  0.00    -0.283 OA
ATOM      2  C   LIG A   1      -9.157  -1.343 124.278  0.00  0.00    +0.238 A 
ATOM      3  C   LIG A   1      -8.509  -2.115 125.383  0.00  0.00    +0.211 A 
ATOM      4  C   LIG A   1      -7.867  -1.401 126.328  0.00  0.00    +0.181 A 
ATOM      5  O   LIG A   1      -7.738  -0.025 126.355  0.00  0.00    -0.451 OA
ATOM      6  C   LIG A   1      -8.270   0.700 125.324  0.00  0.00    +0.146 A 
ATOM      7  C   LIG A   1      -8.975   0.116 124.277  0.00  0.00    +0.109 A 
ATOM      8  C   LIG A   1      -9.491   0.921 123.253  0.00  0.00    +0.135 A 
ATOM      9  C   LIG A   1      -9.299   2.300 123.274  0.00  0.00    +0.091 A 
ATOM     10  C   LIG A   1      -8.593   2.870 124.330  0.00  0.00    +0.124 A 
ATOM     11  C   LIG A   1      -8.080   2.082 125.355  0.00  0.00    +0.092 A 
ENDROOT
BRANCH   4  12
ATOM     12  C   LIG A   1      -7.211  -2.052 127.472  0.00  0.00    +0.025 A 
ATOM     13  C   LIG A   1      -5.817  -1.996 127.611  0.00  0.00    +0.060 A 
ATOM     14  C   LIG A   1      -5.215  -2.621 128.698  0.00  0.00    +0.159 A 
ATOM     15  C   LIG A   1      -5.987  -3.298 129.640  0.00  0.00    +0.158 A 
ATOM     16  C   LIG A   1      -7.366  -3.362 129.515  0.00  0.00    +0.050 A 
ATOM     17  C   LIG A   1      -7.981  -2.738 128.427  0.00  0.00    +0.015 A 
BRANCH  14  18
ATOM     18  O   LIG A   1      -3.860  -2.601 128.886  0.00  0.00    -0.503 OA
ATOM     19  H   LIG A   1      -3.471  -1.999 128.227  0.00  0.00    +0.292 HD
ENDBRANCH  14  18
BRANCH  15  20
ATOM     20  O   LIG A   1      -5.385  -3.908 130.702  0.00  0.00    -0.503 OA
ATOM     21  H   LIG A   1      -5.311  -3.206 131.378  0.00  0.00    +0.292 HD
ENDBRANCH  15  20
ENDBRANCH   4  12
BRANCH   3  22
ATOM     22  O   LIG A   1      -8.586  -3.497 125.475  0.00  0.00    -0.488 OA
ATOM     23  C   LIG A   1      -7.731  -4.235 124.611  0.00  0.00    +0.277 C 
ENDBRANCH   3  22
BRANCH   8  24
ATOM     24  O   LIG A   1     -10.197   0.420 122.192  0.00  0.00    -0.506 OA
ATOM     25  H   LIG A   1     -10.215  -0.561 122.274  0.00  0.00    +0.292 HD
ENDBRANCH   8  24
BRANCH  10  26
ATOM     26  O   LIG A   1      -8.380   4.214 124.396  0.00  0.00    -0.506 OA
ATOM     27  H   LIG A   1      -9.002   4.662 123.796  0.00  0.00    +0.292 HD
ENDBRANCH  10  26
TORSDOF 6
ENDMDL
MODEL 5
REMARK VINA RESULT:      -6.7      7.867      9.946
REMARK  Name = NuBBE_1223
REMARK  7 active torsions:
REMARK  status: ('A' for Active; 'I' for Inactive)
REMARK    1  A    between atoms: C_3  and  O_4
REMARK    2  A    between atoms: O_4  and  C_5
REMARK    3  A    between atoms: C_6  and  C_16
REMARK    4  A    between atoms: C_10  and  O_11
REMARK    5  A    between atoms: C_13  and  O_14
REMARK    6  A    between atoms: C_18  and  O_19
REMARK    7  A    between atoms: C_20  and  O_23
REMARK                            x       y       z     vdW  Elec       q    Type
REMARK                         _______ _______ _______ _____ _____    ______ ____
ROOT
ATOM      1  O   LIG A   1     -11.915   6.792 131.994  0.00  0.00    -0.283 OA
ATOM      2  C   LIG A   1     -11.005   6.658 131.181  0.00  0.00    +0.238 A 
ATOM      3  C   LIG A   1      -9.593   6.340 131.557  0.00  0.00    +0.211 A 
ATOM      4  C   LIG A   1      -8.693   6.296 130.555  0.00  0.00    +0.181 A 
ATOM      5  O   LIG A   1      -8.962   6.499 129.215  0.00  0.00    -0.451 OA
ATOM      6  C   LIG A   1     -10.258   6.732 128.838  0.00  0.00    +0.146 A 
ATOM      7  C   LIG A   1     -11.303   6.820 129.751  0.00  0.00    +0.109 A 
ATOM      8  C   LIG A   1     -12.604   7.060 129.293  0.00  0.00    +0.135 A 
ATOM      9  C   LIG A   1     -12.860   7.205 127.931  0.00  0.00    +0.091 A 
ATOM     10  C   LIG A   1     -11.802   7.116 127.031  0.00  0.00    +0.124 A 
ATOM     11  C   LIG A   1     -10.504   6.882 127.473  0.00  0.00    +0.092 A 
ENDROOT
BRANCH   4  12
ATOM     12  C   LIG A   1      -7.272   6.013 130.809  0.00  0.00    +0.025 A 
ATOM     13  C   LIG A   1      -6.798   4.694 130.767  0.00  0.00    +0.060 A 
ATOM     14  C   LIG A   1      -5.452   4.446 131.013  0.00  0.00    +0.159 A 
ATOM     15  C   LIG A   1      -4.581   5.496 131.299  0.00  0.00    +0.158 A 
ATOM     16  C   LIG A   1      -5.036   6.804 131.345  0.00  0.00    +0.050 A 
ATOM     17  C   LIG A   1      -6.387   7.065 131.100  0.00  0.00    +0.015 A 
BRANCH  14  18
ATOM     18  O   LIG A   1      -4.931   3.181 130.986  0.00  0.00    -0.503 OA
ATOM     19  H   LIG A   1      -4.076   3.215 130.522  0.00  0.00    +0.292 HD
ENDBRANCH  14  18
BRANCH  15  20
ATOM     20  O   LIG A   1      -3.262   5.241 131.539  0.00  0.00    -0.503 OA
ATOM     21  H   LIG A   1      -2.806   5.522 130.722  0.00  0.00    +0.292 HD
ENDBRANCH  15  20
ENDBRANCH   4  12
BRANCH   3  22
ATOM     22  O   LIG A   1      -9.196   6.136 132.870  0.00  0.00    -0.488 OA
ATOM     23  C   LIG A   1      -9.348   4.816 133.378  0.00  0.00    +0.277 C 
ENDBRANCH   3  22
BRANCH   8  24
ATOM     24  O   LIG A   1     -13.684   7.164 130.130  0.00  0.00    -0.506 OA
ATOM     25  H   LIG A   1     -14.360   7.726 129.686  0.00  0.00    +0.292 HD
ENDBRANCH   8  24
BRANCH  10  26
ATOM     26  O   LIG A   1     -12.000   7.251 125.690  0.00  0.00    -0.506 OA
ATOM     27  H   LIG A   1     -11.283   7.793 125.318  0.00  0.00    +0.292 HD
ENDBRANCH  10  26
TORSDOF 6
ENDMDL
MODEL 6
REMARK VINA RESULT:      -6.6      7.707     10.472
REMARK  Name = NuBBE_1223
REMARK  7 active torsions:
REMARK  status: ('A' for Active; 'I' for Inactive)
REMARK    1  A    between atoms: C_3  and  O_4
REMARK    2  A    between atoms: O_4  and  C_5
REMARK    3  A    between atoms: C_6  and  C_16
REMARK    4  A    between atoms: C_10  and  O_11
REMARK    5  A    between atoms: C_13  and  O_14
REMARK    6  A    between atoms: C_18  and  O_19
REMARK    7  A    between atoms: C_20  and  O_23
REMARK                            x       y       z     vdW  Elec       q    Type
REMARK                         _______ _______ _______ _____ _____    ______ ____
ROOT
ATOM      1  O   LIG A   1      -7.647   2.859 131.317  0.00  0.00    -0.283 OA
ATOM      2  C   LIG A   1      -8.185   3.887 131.717  0.00  0.00    +0.238 A 
ATOM      3  C   LIG A   1      -9.162   4.684 130.913  0.00  0.00    +0.211 A 
ATOM      4  C   LIG A   1      -9.611   5.829 131.462  0.00  0.00    +0.181 A 
ATOM      5  O   LIG A   1      -9.267   6.319 132.708  0.00  0.00    -0.451 OA
ATOM      6  C   LIG A   1      -8.422   5.577 133.489  0.00  0.00    +0.146 A 
ATOM      7  C   LIG A   1      -7.860   4.379 133.064  0.00  0.00    +0.109 A 
ATOM      8  C   LIG A   1      -7.005   3.673 133.918  0.00  0.00    +0.135 A 
ATOM      9  C   LIG A   1      -6.717   4.159 135.192  0.00  0.00    +0.091 A 
ATOM     10  C   LIG A   1      -7.286   5.361 135.601  0.00  0.00    +0.124 A 
ATOM     11  C   LIG A   1      -8.135   6.075 134.761  0.00  0.00    +0.092 A 
ENDROOT
BRANCH   4  12
ATOM     12  C   LIG A   1     -10.558   6.703 130.754  0.00  0.00    +0.025 A 
ATOM     13  C   LIG A   1     -10.135   7.449 129.644  0.00  0.00    +0.060 A 
ATOM     14  C   LIG A   1     -11.045   8.273 128.990  0.00  0.00    +0.159 A 
ATOM     15  C   LIG A   1     -12.364   8.359 129.432  0.00  0.00    +0.158 A 
ATOM     16  C   LIG A   1     -12.795   7.628 130.527  0.00  0.00    +0.050 A 
ATOM     17  C   LIG A   1     -11.890   6.798 131.192  0.00  0.00    +0.015 A 
BRANCH  14  18
ATOM     18  O   LIG A   1     -10.691   9.024 127.902  0.00  0.00    -0.503 OA
ATOM     19  H   LIG A   1     -11.391   8.936 127.233  0.00  0.00    +0.292 HD
ENDBRANCH  14  18
BRANCH  15  20
ATOM     20  O   LIG A   1     -13.248   9.171 128.782  0.00  0.00    -0.503 OA
ATOM     21  H   LIG A   1     -12.685   9.801 128.290  0.00  0.00    +0.292 HD
ENDBRANCH  15  20
ENDBRANCH   4  12
BRANCH   3  22
ATOM     22  O   LIG A   1      -9.568   4.306 129.641  0.00  0.00    -0.488 OA
ATOM     23  C   LIG A   1      -8.583   4.376 128.618  0.00  0.00    +0.277 C 
ENDBRANCH   3  22
BRANCH   8  24
ATOM     24  O   LIG A   1      -6.410   2.489 133.570  0.00  0.00    -0.506 OA
ATOM     25  H   LIG A   1      -6.040   2.082 134.387  0.00  0.00    +0.292 HD
ENDBRANCH   8  24
BRANCH  10  26
ATOM     26  O   LIG A   1      -7.036   5.879 136.837  0.00  0.00    -0.506 OA
ATOM     27  H   LIG A   1      -7.509   5.350 137.502  0.00  0.00    +0.292 HD
ENDBRANCH  10  26
TORSDOF 6
ENDMDL
MODEL 7
REMARK VINA RESULT:      -6.5      3.352      4.217
REMARK  Name = NuBBE_1223
REMARK  7 active torsions:
REMARK  status: ('A' for Active; 'I' for Inactive)
REMARK    1  A    between atoms: C_3  and  O_4
REMARK    2  A    between atoms: O_4  and  C_5
REMARK    3  A    between atoms: C_6  and  C_16
REMARK    4  A    between atoms: C_10  and  O_11
REMARK    5  A    between atoms: C_13  and  O_14
REMARK    6  A    between atoms: C_18  and  O_19
REMARK    7  A    between atoms: C_20  and  O_23
REMARK                            x       y       z     vdW  Elec       q    Type
REMARK                         _______ _______ _______ _____ _____    ______ ____
ROOT
ATOM      1  O   LIG A   1      -7.461  -1.398 128.863  0.00  0.00    -0.283 OA
ATOM      2  C   LIG A   1      -7.597  -0.843 127.776  0.00  0.00    +0.238 A 
ATOM      3  C   LIG A   1      -7.158   0.558 127.496  0.00  0.00    +0.211 A 
ATOM      4  C   LIG A   1      -7.443   1.052 126.275  0.00  0.00    +0.181 A 
ATOM      5  O   LIG A   1      -8.082   0.372 125.256  0.00  0.00    -0.451 OA
ATOM      6  C   LIG A   1      -8.440  -0.933 125.466  0.00  0.00    +0.146 A 
ATOM      7  C   LIG A   1      -8.229  -1.585 126.676  0.00  0.00    +0.109 A 
ATOM      8  C   LIG A   1      -8.620  -2.922 126.819  0.00  0.00    +0.135 A 
ATOM      9  C   LIG A   1      -9.213  -3.604 125.758  0.00  0.00    +0.091 A 
ATOM     10  C   LIG A   1      -9.419  -2.935 124.555  0.00  0.00    +0.124 A 
ATOM     11  C   LIG A   1      -9.039  -1.606 124.401  0.00  0.00    +0.092 A 
ENDROOT
BRANCH   4  12
ATOM     12  C   LIG A   1      -7.077   2.425 125.894  0.00  0.00    +0.025 A 
ATOM     13  C   LIG A   1      -8.028   3.453 125.964  0.00  0.00    +0.060 A 
ATOM     14  C   LIG A   1      -7.663   4.744 125.597  0.00  0.00    +0.159 A 
ATOM     15  C   LIG A   1      -6.367   5.015 125.162  0.00  0.00    +0.158 A 
ATOM     16  C   LIG A   1      -5.418   4.008 125.087  0.00  0.00    +0.050 A 
ATOM     17  C   LIG A   1      -5.773   2.708 125.454  0.00  0.00    +0.015 A 
BRANCH  14  18
ATOM     18  O   LIG A   1      -8.547   5.788 125.644  0.00  0.00    -0.503 OA
ATOM     19  H   LIG A   1      -8.070   6.600 125.399  0.00  0.00    +0.292 HD
ENDBRANCH  14  18
BRANCH  15  20
ATOM     20  O   LIG A   1      -6.021   6.286 124.804  0.00  0.00    -0.503 OA
ATOM     21  H   LIG A   1      -5.057   6.242 124.649  0.00  0.00    +0.292 HD
ENDBRANCH  15  20
ENDBRANCH   4  12
BRANCH   3  22
ATOM     22  O   LIG A   1      -6.525   1.348 128.444  0.00  0.00    -0.488 OA
ATOM     23  C   LIG A   1      -5.165   1.035 128.719  0.00  0.00    +0.277 C 
ENDBRANCH   3  22
BRANCH   8  24
ATOM     24  O   LIG A   1      -8.450  -3.631 127.979  0.00  0.00    -0.506 OA
ATOM     25  H   LIG A   1      -8.831  -4.529 127.846  0.00  0.00    +0.292 HD
ENDBRANCH   8  24
BRANCH  10  26
ATOM     26  O   LIG A   1      -9.995  -3.558 123.489  0.00  0.00    -0.506 OA
ATOM     27  H   LIG A   1     -10.641  -2.954 123.083  0.00  0.00    +0.292 HD
ENDBRANCH  10  26
TORSDOF 6
ENDMDL
MODEL 8
REMARK VINA RESULT:      -6.4      7.037     11.047
REMARK  Name = NuBBE_1223
REMARK  7 active torsions:
REMARK  status: ('A' for Active; 'I' for Inactive)
REMARK    1  A    between atoms: C_3  and  O_4
REMARK    2  A    between atoms: O_4  and  C_5
REMARK    3  A    between atoms: C_6  and  C_16
REMARK    4  A    between atoms: C_10  and  O_11
REMARK    5  A    between atoms: C_13  and  O_14
REMARK    6  A    between atoms: C_18  and  O_19
REMARK    7  A    between atoms: C_20  and  O_23
REMARK                            x       y       z     vdW  Elec       q    Type
REMARK                         _______ _______ _______ _____ _____    ______ ____
ROOT
ATOM      1  O   LIG A   1      -8.991   5.268 127.388  0.00  0.00    -0.283 OA
ATOM      2  C   LIG A   1      -9.249   5.723 128.498  0.00  0.00    +0.238 A 
ATOM      3  C   LIG A   1      -8.528   5.330 129.747  0.00  0.00    +0.211 A 
ATOM      4  C   LIG A   1      -8.975   5.863 130.901  0.00  0.00    +0.181 A 
ATOM      5  O   LIG A   1     -10.023   6.755 131.028  0.00  0.00    -0.451 OA
ATOM      6  C   LIG A   1     -10.661   7.178 129.893  0.00  0.00    +0.146 A 
ATOM      7  C   LIG A   1     -10.329   6.712 128.625  0.00  0.00    +0.109 A 
ATOM      8  C   LIG A   1     -11.024   7.191 127.507  0.00  0.00    +0.135 A 
ATOM      9  C   LIG A   1     -12.040   8.132 127.656  0.00  0.00    +0.091 A 
ATOM     10  C   LIG A   1     -12.361   8.586 128.931  0.00  0.00    +0.124 A 
ATOM     11  C   LIG A   1     -11.682   8.116 130.051  0.00  0.00    +0.092 A 
ENDROOT
BRANCH   4  12
ATOM     12  C   LIG A   1      -8.356   5.532 132.193  0.00  0.00    +0.025 A 
ATOM     13  C   LIG A   1      -7.082   6.023 132.512  0.00  0.00    +0.060 A 
ATOM     14  C   LIG A   1      -6.513   5.696 133.738  0.00  0.00    +0.159 A 
ATOM     15  C   LIG A   1      -7.199   4.887 134.642  0.00  0.00    +0.158 A 
ATOM     16  C   LIG A   1      -8.458   4.394 134.340  0.00  0.00    +0.050 A 
ATOM     17  C   LIG A   1      -9.040   4.716 133.111  0.00  0.00    +0.015 A 
BRANCH  14  18
ATOM     18  O   LIG A   1      -5.273   6.145 134.104  0.00  0.00    -0.503 OA
ATOM     19  H   LIG A   1      -5.309   7.115 134.169  0.00  0.00    +0.292 HD
ENDBRANCH  14  18
BRANCH  15  20
ATOM     20  O   LIG A   1      -6.630   4.572 135.842  0.00  0.00    -0.503 OA
ATOM     21  H   LIG A   1      -6.147   3.739 135.672  0.00  0.00    +0.292 HD
ENDBRANCH  15  20
ENDBRANCH   4  12
BRANCH   3  22
ATOM     22  O   LIG A   1      -7.474   4.428 129.751  0.00  0.00    -0.488 OA
ATOM     23  C   LIG A   1      -7.823   3.050 129.729  0.00  0.00    +0.277 C 
ENDBRANCH   3  22
BRANCH   8  24
ATOM     24  O   LIG A   1     -10.758   6.778 126.228  0.00  0.00    -0.506 OA
ATOM     25  H   LIG A   1     -11.617   6.653 125.764  0.00  0.00    +0.292 HD
ENDBRANCH   8  24
BRANCH  10  26
ATOM     26  O   LIG A   1     -13.347   9.506 129.129  0.00  0.00    -0.506 OA
ATOM     27  H   LIG A   1     -12.951  10.394 129.142  0.00  0.00    +0.292 HD
ENDBRANCH  10  26
TORSDOF 6
ENDMDL
MODEL 9
REMARK VINA RESULT:      -6.4      2.463      3.274
REMARK  Name = NuBBE_1223
REMARK  7 active torsions:
REMARK  status: ('A' for Active; 'I' for Inactive)
REMARK    1  A    between atoms: C_3  and  O_4
REMARK    2  A    between atoms: O_4  and  C_5
REMARK    3  A    between atoms: C_6  and  C_16
REMARK    4  A    between atoms: C_10  and  O_11
REMARK    5  A    between atoms: C_13  and  O_14
REMARK    6  A    between atoms: C_18  and  O_19
REMARK    7  A    between atoms: C_20  and  O_23
REMARK                            x       y       z     vdW  Elec       q    Type
REMARK                         _______ _______ _______ _____ _____    ______ ____
ROOT
ATOM      1  O   LIG A   1      -9.305   1.721 125.734  0.00  0.00    -0.283 OA
ATOM      2  C   LIG A   1      -8.202   2.130 125.382  0.00  0.00    +0.238 A 
ATOM      3  C   LIG A   1      -7.936   2.775 124.060  0.00  0.00    +0.211 A 
ATOM      4  C   LIG A   1      -6.658   3.105 123.790  0.00  0.00    +0.181 A 
ATOM      5  O   LIG A   1      -5.579   2.920 124.634  0.00  0.00    -0.451 OA
ATOM      6  C   LIG A   1      -5.805   2.387 125.875  0.00  0.00    +0.146 A 
ATOM      7  C   LIG A   1      -7.065   1.982 126.302  0.00  0.00    +0.109 A 
ATOM      8  C   LIG A   1      -7.223   1.446 127.586  0.00  0.00    +0.135 A 
ATOM      9  C   LIG A   1      -6.129   1.321 128.440  0.00  0.00    +0.091 A 
ATOM     10  C   LIG A   1      -4.875   1.730 127.996  0.00  0.00    +0.124 A 
ATOM     11  C   LIG A   1      -4.704   2.260 126.721  0.00  0.00    +0.092 A 
ENDROOT
BRANCH   4  12
ATOM     12  C   LIG A   1      -6.275   3.725 122.513  0.00  0.00    +0.025 A 
ATOM     13  C   LIG A   1      -5.198   4.621 122.459  0.00  0.00    +0.060 A 
ATOM     14  C   LIG A   1      -4.854   5.200 121.242  0.00  0.00    +0.159 A 
ATOM     15  C   LIG A   1      -5.572   4.896 120.088  0.00  0.00    +0.158 A 
ATOM     16  C   LIG A   1      -6.640   4.012 120.126  0.00  0.00    +0.050 A 
ATOM     17  C   LIG A   1      -6.994   3.425 121.343  0.00  0.00    +0.015 A 
BRANCH  14  18
ATOM     18  O   LIG A   1      -3.814   6.082 121.127  0.00  0.00    -0.503 OA
ATOM     19  H   LIG A   1      -3.036   5.691 121.562  0.00  0.00    +0.292 HD
ENDBRANCH  14  18
BRANCH  15  20
ATOM     20  O   LIG A   1      -5.226   5.471 118.899  0.00  0.00    -0.503 OA
ATOM     21  H   LIG A   1      -4.921   4.724 118.346  0.00  0.00    +0.292 HD
ENDBRANCH  15  20
ENDBRANCH   4  12
BRANCH   3  22
ATOM     22  O   LIG A   1      -8.933   2.995 123.120  0.00  0.00    -0.488 OA
ATOM     23  C   LIG A   1      -9.648   1.847 122.680  0.00  0.00    +0.277 C 
ENDBRANCH   3  22
BRANCH   8  24
ATOM     24  O   LIG A   1      -8.429   1.021 128.077  0.00  0.00    -0.506 OA
ATOM     25  H   LIG A   1      -8.255   0.439 128.851  0.00  0.00    +0.292 HD
ENDBRANCH   8  24
BRANCH  10  26
ATOM     26  O   LIG A   1      -3.773   1.628 128.793  0.00  0.00    -0.506 OA
ATOM     27  H   LIG A   1      -3.962   2.056 129.646  0.00  0.00    +0.292 HD
ENDBRANCH  10  26
TORSDOF 6
ENDMDL
