MODEL 1
REMARK VINA RESULT:      -5.5      0.000      0.000
REMARK  Name = NuBBE_1032
REMARK  11 active torsions:
REMARK  status: ('A' for Active; 'I' for Inactive)
REMARK    1  A    between atoms: O_1  and  C_2
REMARK    2  A    between atoms: C_2  and  C_3
REMARK    3  A    between atoms: C_3  and  O_4
REMARK    4  A    between atoms: O_4  and  C_5
REMARK    5  A    between atoms: C_5  and  C_6
REMARK    6  A    between atoms: C_6  and  C_7
REMARK    7  A    between atoms: C_7  and  C_8
REMARK    8  A    between atoms: C_10  and  C_12
REMARK    9  A    between atoms: C_12  and  O_13
REMARK   10  A    between atoms: C_14  and  O_16
REMARK   11  A    between atoms: C_17  and  O_19
REMARK                            x       y       z     vdW  Elec       q    Type
REMARK                         _______ _______ _______ _____ _____    ______ ____
ROOT
ATOM      1  C   LIG A   1     -11.864   6.387 130.346  0.00  0.00    +0.221 C 
ATOM      2  O   LIG A   1     -12.667   6.239 129.158  0.00  0.00    -0.336 OA
ATOM      3  C   LIG A   1     -12.366   7.348 128.290  0.00  0.00    +0.178 C 
ATOM      4  C   LIG A   1     -10.898   7.634 128.536  0.00  0.00    +0.179 C 
ATOM      5  C   LIG A   1     -10.821   7.492 130.050  0.00  0.00    +0.207 C 
ENDROOT
BRANCH   1   6
ATOM      6  O   LIG A   1     -12.744   6.834 131.376  0.00  0.00    -0.361 OA
ATOM      7  H   LIG A   1     -12.235   6.673 132.193  0.00  0.00    +0.213 HD
ENDBRANCH   1   6
BRANCH   4   8
ATOM      8  O   LIG A   1     -10.448   8.903 128.091  0.00  0.00    -0.386 OA
ATOM      9  H   LIG A   1      -9.807   8.774 127.365  0.00  0.00    +0.210 HD
ENDBRANCH   4   8
BRANCH   5  10
ATOM     10  O   LIG A   1      -9.482   7.198 130.452  0.00  0.00    -0.384 OA
ATOM     11  H   LIG A   1      -9.530   6.409 131.022  0.00  0.00    +0.210 HD
ENDBRANCH   5  10
BRANCH   1  12
ATOM     12  C   LIG A   1     -11.238   5.036 130.757  0.00  0.00    +0.227 C 
BRANCH  12  13
ATOM     13  O   LIG A   1     -10.337   4.571 129.728  0.00  0.00    -0.374 OA
BRANCH  13  14
ATOM     14  C   LIG A   1      -9.415   3.611 130.253  0.00  0.00    +0.160 C 
BRANCH  14  15
ATOM     15  C   LIG A   1     -10.117   2.675 131.235  0.00  0.00    +0.028 C 
BRANCH  15  16
ATOM     16  C   LIG A   1      -9.207   2.285 132.400  0.00  0.00    -0.001 C 
ATOM     17  C   LIG A   1      -9.202   3.349 133.487  0.00  0.00    +0.004 C 
ENDBRANCH  15  16
ENDBRANCH  14  15
ENDBRANCH  13  14
ENDBRANCH  12  13
ENDBRANCH   1  12
BRANCH   3  18
ATOM     18  C   LIG A   1     -12.692   6.953 126.855  0.00  0.00    +0.190 C 
BRANCH  18  19
ATOM     19  O   LIG A   1     -11.474   6.701 126.149  0.00  0.00    -0.392 OA
ATOM     20  H   LIG A   1     -11.157   5.836 126.471  0.00  0.00    +0.209 HD
ENDBRANCH  18  19
ENDBRANCH   3  18
TORSDOF 10
ENDMDL
MODEL 2
REMARK VINA RESULT:      -5.3      2.195      5.485
REMARK  Name = NuBBE_1032
REMARK  11 active torsions:
REMARK  status: ('A' for Active; 'I' for Inactive)
REMARK    1  A    between atoms: O_1  and  C_2
REMARK    2  A    between atoms: C_2  and  C_3
REMARK    3  A    between atoms: C_3  and  O_4
REMARK    4  A    between atoms: O_4  and  C_5
REMARK    5  A    between atoms: C_5  and  C_6
REMARK    6  A    between atoms: C_6  and  C_7
REMARK    7  A    between atoms: C_7  and  C_8
REMARK    8  A    between atoms: C_10  and  C_12
REMARK    9  A    between atoms: C_12  and  O_13
REMARK   10  A    between atoms: C_14  and  O_16
REMARK   11  A    between atoms: C_17  and  O_19
REMARK                            x       y       z     vdW  Elec       q    Type
REMARK                         _______ _______ _______ _____ _____    ______ ____
ROOT
ATOM      1  C   LIG A   1     -10.796   5.170 130.351  0.00  0.00    +0.221 C 
ATOM      2  O   LIG A   1     -10.320   5.177 131.712  0.00  0.00    -0.336 OA
ATOM      3  C   LIG A   1      -8.882   5.117 131.669  0.00  0.00    +0.178 C 
ATOM      4  C   LIG A   1      -8.508   5.895 130.422  0.00  0.00    +0.179 C 
ATOM      5  C   LIG A   1      -9.566   5.403 129.442  0.00  0.00    +0.207 C 
ENDROOT
BRANCH   1   6
ATOM      6  O   LIG A   1     -11.318   3.864 130.112  0.00  0.00    -0.361 OA
ATOM      7  H   LIG A   1     -10.894   3.322 130.805  0.00  0.00    +0.213 HD
ENDBRANCH   1   6
BRANCH   4   8
ATOM      8  O   LIG A   1      -7.191   5.675 129.947  0.00  0.00    -0.386 OA
ATOM      9  H   LIG A   1      -7.169   5.850 128.985  0.00  0.00    +0.210 HD
ENDBRANCH   4   8
BRANCH   5  10
ATOM     10  O   LIG A   1      -9.747   6.354 128.392  0.00  0.00    -0.384 OA
ATOM     11  H   LIG A   1      -8.965   6.282 127.814  0.00  0.00    +0.210 HD
ENDBRANCH   5  10
BRANCH   1  12
ATOM     12  C   LIG A   1     -11.918   6.214 130.158  0.00  0.00    +0.227 C 
BRANCH  12  13
ATOM     13  O   LIG A   1     -12.531   6.052 128.860  0.00  0.00    -0.374 OA
BRANCH  13  14
ATOM     14  C   LIG A   1     -13.267   7.223 128.494  0.00  0.00    +0.160 C 
BRANCH  14  15
ATOM     15  C   LIG A   1     -12.720   8.449 129.223  0.00  0.00    +0.028 C 
BRANCH  15  16
ATOM     16  C   LIG A   1     -13.412   9.736 128.772  0.00  0.00    -0.001 C 
ATOM     17  C   LIG A   1     -13.436  10.777 129.881  0.00  0.00    +0.004 C 
ENDBRANCH  15  16
ENDBRANCH  14  15
ENDBRANCH  13  14
ENDBRANCH  12  13
ENDBRANCH   1  12
BRANCH   3  18
ATOM     18  C   LIG A   1      -8.325   5.707 132.959  0.00  0.00    +0.190 C 
BRANCH  18  19
ATOM     19  O   LIG A   1      -9.381   6.353 133.674  0.00  0.00    -0.392 OA
ATOM     20  H   LIG A   1     -10.206   5.945 133.353  0.00  0.00    +0.209 HD
ENDBRANCH  18  19
ENDBRANCH   3  18
TORSDOF 10
ENDMDL
MODEL 3
REMARK VINA RESULT:      -5.1      7.812      9.060
REMARK  Name = NuBBE_1032
REMARK  11 active torsions:
REMARK  status: ('A' for Active; 'I' for Inactive)
REMARK    1  A    between atoms: O_1  and  C_2
REMARK    2  A    between atoms: C_2  and  C_3
REMARK    3  A    between atoms: C_3  and  O_4
REMARK    4  A    between atoms: O_4  and  C_5
REMARK    5  A    between atoms: C_5  and  C_6
REMARK    6  A    between atoms: C_6  and  C_7
REMARK    7  A    between atoms: C_7  and  C_8
REMARK    8  A    between atoms: C_10  and  C_12
REMARK    9  A    between atoms: C_12  and  O_13
REMARK   10  A    between atoms: C_14  and  O_16
REMARK   11  A    between atoms: C_17  and  O_19
REMARK                            x       y       z     vdW  Elec       q    Type
REMARK                         _______ _______ _______ _____ _____    ______ ____
ROOT
ATOM      1  C   LIG A   1      -9.093   0.553 123.775  0.00  0.00    +0.221 C 
ATOM      2  O   LIG A   1      -8.203   1.240 122.872  0.00  0.00    -0.336 OA
ATOM      3  C   LIG A   1      -8.299   2.649 123.156  0.00  0.00    +0.178 C 
ATOM      4  C   LIG A   1      -8.535   2.718 124.652  0.00  0.00    +0.179 C 
ATOM      5  C   LIG A   1      -9.532   1.582 124.844  0.00  0.00    +0.207 C 
ENDROOT
BRANCH   1   6
ATOM      6  O   LIG A   1     -10.227   0.161 123.005  0.00  0.00    -0.361 OA
ATOM      7  H   LIG A   1     -10.221   0.789 122.258  0.00  0.00    +0.213 HD
ENDBRANCH   1   6
BRANCH   4   8
ATOM      8  O   LIG A   1      -9.033   3.957 125.127  0.00  0.00    -0.386 OA
ATOM      9  H   LIG A   1      -9.349   4.483 124.367  0.00  0.00    +0.210 HD
ENDBRANCH   4   8
BRANCH   5  10
ATOM     10  O   LIG A   1      -9.499   1.119 126.195  0.00  0.00    -0.384 OA
ATOM     11  H   LIG A   1      -9.123   1.844 126.728  0.00  0.00    +0.210 HD
ENDBRANCH   5  10
BRANCH   1  12
ATOM     12  C   LIG A   1      -8.413  -0.703 124.364  0.00  0.00    +0.227 C 
BRANCH  12  13
ATOM     13  O   LIG A   1      -7.026  -0.753 123.966  0.00  0.00    -0.374 OA
BRANCH  13  14
ATOM     14  C   LIG A   1      -6.722  -1.997 123.329  0.00  0.00    +0.160 C 
BRANCH  14  15
ATOM     15  C   LIG A   1      -5.785  -2.830 124.202  0.00  0.00    +0.028 C 
BRANCH  15  16
ATOM     16  C   LIG A   1      -4.564  -3.319 123.422  0.00  0.00    -0.001 C 
ATOM     17  C   LIG A   1      -4.364  -4.818 123.578  0.00  0.00    +0.004 C 
ENDBRANCH  15  16
ENDBRANCH  14  15
ENDBRANCH  13  14
ENDBRANCH  12  13
ENDBRANCH   1  12
BRANCH   3  18
ATOM     18  C   LIG A   1      -7.017   3.332 122.697  0.00  0.00    +0.190 C 
BRANCH  18  19
ATOM     19  O   LIG A   1      -6.624   4.300 123.672  0.00  0.00    -0.392 OA
ATOM     20  H   LIG A   1      -7.372   4.366 124.295  0.00  0.00    +0.209 HD
ENDBRANCH  18  19
ENDBRANCH   3  18
TORSDOF 10
ENDMDL
MODEL 4
REMARK VINA RESULT:      -5.1      7.027      8.257
REMARK  Name = NuBBE_1032
REMARK  11 active torsions:
REMARK  status: ('A' for Active; 'I' for Inactive)
REMARK    1  A    between atoms: O_1  and  C_2
REMARK    2  A    between atoms: C_2  and  C_3
REMARK    3  A    between atoms: C_3  and  O_4
REMARK    4  A    between atoms: O_4  and  C_5
REMARK    5  A    between atoms: C_5  and  C_6
REMARK    6  A    between atoms: C_6  and  C_7
REMARK    7  A    between atoms: C_7  and  C_8
REMARK    8  A    between atoms: C_10  and  C_12
REMARK    9  A    between atoms: C_12  and  O_13
REMARK   10  A    between atoms: C_14  and  O_16
REMARK   11  A    between atoms: C_17  and  O_19
REMARK                            x       y       z     vdW  Elec       q    Type
REMARK                         _______ _______ _______ _____ _____    ______ ____
ROOT
ATOM      1  C   LIG A   1      -9.188   0.565 123.700  0.00  0.00    +0.221 C 
ATOM      2  O   LIG A   1      -8.311   1.277 122.804  0.00  0.00    -0.336 OA
ATOM      3  C   LIG A   1      -8.387   2.675 123.141  0.00  0.00    +0.178 C 
ATOM      4  C   LIG A   1      -8.591   2.691 124.643  0.00  0.00    +0.179 C 
ATOM      5  C   LIG A   1      -9.595   1.559 124.815  0.00  0.00    +0.207 C 
ENDROOT
BRANCH   1   6
ATOM      6  O   LIG A   1     -10.342   0.212 122.940  0.00  0.00    -0.361 OA
ATOM      7  H   LIG A   1     -10.677   1.073 122.623  0.00  0.00    +0.213 HD
ENDBRANCH   1   6
BRANCH   4   8
ATOM      8  O   LIG A   1      -9.067   3.918 125.173  0.00  0.00    -0.386 OA
ATOM      9  H   LIG A   1      -8.310   4.524 125.293  0.00  0.00    +0.210 HD
ENDBRANCH   4   8
BRANCH   5  10
ATOM     10  O   LIG A   1      -9.539   1.046 126.147  0.00  0.00    -0.384 OA
ATOM     11  H   LIG A   1     -10.321   0.475 126.258  0.00  0.00    +0.210 HD
ENDBRANCH   5  10
BRANCH   1  12
ATOM     12  C   LIG A   1      -8.509  -0.718 124.229  0.00  0.00    +0.227 C 
BRANCH  12  13
ATOM     13  O   LIG A   1      -9.490  -1.587 124.835  0.00  0.00    -0.374 OA
BRANCH  13  14
ATOM     14  C   LIG A   1      -9.246  -2.953 124.487  0.00  0.00    +0.160 C 
BRANCH  14  15
ATOM     15  C   LIG A   1      -8.465  -3.657 125.595  0.00  0.00    +0.028 C 
BRANCH  15  16
ATOM     16  C   LIG A   1      -8.726  -3.026 126.964  0.00  0.00    -0.001 C 
ATOM     17  C   LIG A   1      -8.971  -4.084 128.029  0.00  0.00    +0.004 C 
ENDBRANCH  15  16
ENDBRANCH  14  15
ENDBRANCH  13  14
ENDBRANCH  12  13
ENDBRANCH   1  12
BRANCH   3  18
ATOM     18  C   LIG A   1      -7.108   3.363 122.679  0.00  0.00    +0.190 C 
BRANCH  18  19
ATOM     19  O   LIG A   1      -6.701   4.310 123.669  0.00  0.00    -0.392 OA
ATOM     20  H   LIG A   1      -7.417   4.325 124.331  0.00  0.00    +0.209 HD
ENDBRANCH  18  19
ENDBRANCH   3  18
TORSDOF 10
ENDMDL
MODEL 5
REMARK VINA RESULT:      -5.1      2.099      5.727
REMARK  Name = NuBBE_1032
REMARK  11 active torsions:
REMARK  status: ('A' for Active; 'I' for Inactive)
REMARK    1  A    between atoms: O_1  and  C_2
REMARK    2  A    between atoms: C_2  and  C_3
REMARK    3  A    between atoms: C_3  and  O_4
REMARK    4  A    between atoms: O_4  and  C_5
REMARK    5  A    between atoms: C_5  and  C_6
REMARK    6  A    between atoms: C_6  and  C_7
REMARK    7  A    between atoms: C_7  and  C_8
REMARK    8  A    between atoms: C_10  and  C_12
REMARK    9  A    between atoms: C_12  and  O_13
REMARK   10  A    between atoms: C_14  and  O_16
REMARK   11  A    between atoms: C_17  and  O_19
REMARK                            x       y       z     vdW  Elec       q    Type
REMARK                         _______ _______ _______ _____ _____    ______ ____
ROOT
ATOM      1  C   LIG A   1     -10.531   6.197 130.803  0.00  0.00    +0.221 C 
ATOM      2  O   LIG A   1      -9.793   6.633 131.963  0.00  0.00    -0.336 OA
ATOM      3  C   LIG A   1      -9.685   5.509 132.856  0.00  0.00    +0.178 C 
ATOM      4  C   LIG A   1      -9.584   4.306 131.940  0.00  0.00    +0.179 C 
ATOM      5  C   LIG A   1     -10.624   4.655 130.883  0.00  0.00    +0.207 C 
ENDROOT
BRANCH   1   6
ATOM      6  O   LIG A   1     -11.838   6.755 130.922  0.00  0.00    -0.361 OA
ATOM      7  H   LIG A   1     -11.940   6.887 131.884  0.00  0.00    +0.213 HD
ENDBRANCH   1   6
BRANCH   4   8
ATOM      8  O   LIG A   1      -9.842   3.055 132.557  0.00  0.00    -0.386 OA
ATOM      9  H   LIG A   1     -10.456   2.545 131.992  0.00  0.00    +0.210 HD
ENDBRANCH   4   8
BRANCH   5  10
ATOM     10  O   LIG A   1     -10.346   3.957 129.667  0.00  0.00    -0.384 OA
ATOM     11  H   LIG A   1     -10.392   4.618 128.952  0.00  0.00    +0.210 HD
ENDBRANCH   5  10
BRANCH   1  12
ATOM     12  C   LIG A   1      -9.868   6.713 129.507  0.00  0.00    +0.227 C 
BRANCH  12  13
ATOM     13  O   LIG A   1     -10.638   6.302 128.356  0.00  0.00    -0.374 OA
BRANCH  13  14
ATOM     14  C   LIG A   1     -10.940   7.422 127.518  0.00  0.00    +0.160 C 
BRANCH  14  15
ATOM     15  C   LIG A   1     -12.316   7.254 126.875  0.00  0.00    +0.028 C 
BRANCH  15  16
ATOM     16  C   LIG A   1     -13.442   7.657 127.827  0.00  0.00    -0.001 C 
ATOM     17  C   LIG A   1     -13.134   8.968 128.535  0.00  0.00    +0.004 C 
ENDBRANCH  15  16
ENDBRANCH  14  15
ENDBRANCH  13  14
ENDBRANCH  12  13
ENDBRANCH   1  12
BRANCH   3  18
ATOM     18  C   LIG A   1      -8.471   5.709 133.755  0.00  0.00    +0.190 C 
BRANCH  18  19
ATOM     19  O   LIG A   1      -8.532   4.782 134.842  0.00  0.00    -0.392 OA
ATOM     20  H   LIG A   1      -9.384   4.952 135.286  0.00  0.00    +0.209 HD
ENDBRANCH  18  19
ENDBRANCH   3  18
TORSDOF 10
ENDMDL
MODEL 6
REMARK VINA RESULT:      -5.0      2.597      3.375
REMARK  Name = NuBBE_1032
REMARK  11 active torsions:
REMARK  status: ('A' for Active; 'I' for Inactive)
REMARK    1  A    between atoms: O_1  and  C_2
REMARK    2  A    between atoms: C_2  and  C_3
REMARK    3  A    between atoms: C_3  and  O_4
REMARK    4  A    between atoms: O_4  and  C_5
REMARK    5  A    between atoms: C_5  and  C_6
REMARK    6  A    between atoms: C_6  and  C_7
REMARK    7  A    between atoms: C_7  and  C_8
REMARK    8  A    between atoms: C_10  and  C_12
REMARK    9  A    between atoms: C_12  and  O_13
REMARK   10  A    between atoms: C_14  and  O_16
REMARK   11  A    between atoms: C_17  and  O_19
REMARK                            x       y       z     vdW  Elec       q    Type
REMARK                         _______ _______ _______ _____ _____    ______ ____
ROOT
ATOM      1  C   LIG A   1     -10.940   5.520 130.097  0.00  0.00    +0.221 C 
ATOM      2  O   LIG A   1     -11.586   6.176 128.986  0.00  0.00    -0.336 OA
ATOM      3  C   LIG A   1     -12.717   6.899 129.508  0.00  0.00    +0.178 C 
ATOM      4  C   LIG A   1     -12.271   7.357 130.883  0.00  0.00    +0.179 C 
ATOM      5  C   LIG A   1     -11.553   6.113 131.388  0.00  0.00    +0.207 C 
ENDROOT
BRANCH   1   6
ATOM      6  O   LIG A   1     -11.281   4.138 130.005  0.00  0.00    -0.361 OA
ATOM      7  H   LIG A   1     -10.765   3.730 130.726  0.00  0.00    +0.213 HD
ENDBRANCH   1   6
BRANCH   4   8
ATOM      8  O   LIG A   1     -13.316   7.766 131.750  0.00  0.00    -0.386 OA
ATOM      9  H   LIG A   1     -13.758   6.971 132.107  0.00  0.00    +0.210 HD
ENDBRANCH   4   8
BRANCH   5  10
ATOM     10  O   LIG A   1     -10.618   6.462 132.410  0.00  0.00    -0.384 OA
ATOM     11  H   LIG A   1     -10.766   5.841 133.146  0.00  0.00    +0.210 HD
ENDBRANCH   5  10
BRANCH   1  12
ATOM     12  C   LIG A   1      -9.406   5.677 130.009  0.00  0.00    +0.227 C 
BRANCH  12  13
ATOM     13  O   LIG A   1      -8.757   4.744 130.900  0.00  0.00    -0.374 OA
BRANCH  13  14
ATOM     14  C   LIG A   1      -7.358   5.024 131.002  0.00  0.00    +0.160 C 
BRANCH  14  15
ATOM     15  C   LIG A   1      -7.132   6.430 131.555  0.00  0.00    +0.028 C 
BRANCH  15  16
ATOM     16  C   LIG A   1      -5.916   7.103 130.919  0.00  0.00    -0.001 C 
ATOM     17  C   LIG A   1      -4.639   6.789 131.682  0.00  0.00    +0.004 C 
ENDBRANCH  15  16
ENDBRANCH  14  15
ENDBRANCH  13  14
ENDBRANCH  12  13
ENDBRANCH   1  12
BRANCH   3  18
ATOM     18  C   LIG A   1     -13.056   8.037 128.553  0.00  0.00    +0.190 C 
BRANCH  18  19
ATOM     19  O   LIG A   1     -12.009   9.009 128.589  0.00  0.00    -0.392 OA
ATOM     20  H   LIG A   1     -11.644   8.970 129.492  0.00  0.00    +0.209 HD
ENDBRANCH  18  19
ENDBRANCH   3  18
TORSDOF 10
ENDMDL
MODEL 7
REMARK VINA RESULT:      -4.9      7.580      8.856
REMARK  Name = NuBBE_1032
REMARK  11 active torsions:
REMARK  status: ('A' for Active; 'I' for Inactive)
REMARK    1  A    between atoms: O_1  and  C_2
REMARK    2  A    between atoms: C_2  and  C_3
REMARK    3  A    between atoms: C_3  and  O_4
REMARK    4  A    between atoms: O_4  and  C_5
REMARK    5  A    between atoms: C_5  and  C_6
REMARK    6  A    between atoms: C_6  and  C_7
REMARK    7  A    between atoms: C_7  and  C_8
REMARK    8  A    between atoms: C_10  and  C_12
REMARK    9  A    between atoms: C_12  and  O_13
REMARK   10  A    between atoms: C_14  and  O_16
REMARK   11  A    between atoms: C_17  and  O_19
REMARK                            x       y       z     vdW  Elec       q    Type
REMARK                         _______ _______ _______ _____ _____    ______ ____
ROOT
ATOM      1  C   LIG A   1      -8.147   0.209 124.777  0.00  0.00    +0.221 C 
ATOM      2  O   LIG A   1      -8.540   0.591 123.443  0.00  0.00    -0.336 OA
ATOM      3  C   LIG A   1      -9.168   1.884 123.530  0.00  0.00    +0.178 C 
ATOM      4  C   LIG A   1      -8.428   2.590 124.649  0.00  0.00    +0.179 C 
ATOM      5  C   LIG A   1      -8.295   1.465 125.668  0.00  0.00    +0.207 C 
ENDROOT
BRANCH   1   6
ATOM      6  O   LIG A   1      -9.078  -0.784 125.204  0.00  0.00    -0.361 OA
ATOM      7  H   LIG A   1      -8.788  -0.989 126.113  0.00  0.00    +0.213 HD
ENDBRANCH   1   6
BRANCH   4   8
ATOM      8  O   LIG A   1      -9.085   3.726 125.184  0.00  0.00    -0.386 OA
ATOM      9  H   LIG A   1      -9.052   3.680 126.160  0.00  0.00    +0.210 HD
ENDBRANCH   4   8
BRANCH   5  10
ATOM     10  O   LIG A   1      -7.204   1.725 126.553  0.00  0.00    -0.384 OA
ATOM     11  H   LIG A   1      -6.444   1.966 125.992  0.00  0.00    +0.210 HD
ENDBRANCH   5  10
BRANCH   1  12
ATOM     12  C   LIG A   1      -6.722  -0.389 124.779  0.00  0.00    +0.227 C 
BRANCH  12  13
ATOM     13  O   LIG A   1      -6.556  -1.278 125.905  0.00  0.00    -0.374 OA
BRANCH  13  14
ATOM     14  C   LIG A   1      -5.736  -2.397 125.555  0.00  0.00    +0.160 C 
BRANCH  14  15
ATOM     15  C   LIG A   1      -5.998  -2.822 124.111  0.00  0.00    +0.028 C 
BRANCH  15  16
ATOM     16  C   LIG A   1      -4.711  -3.235 123.397  0.00  0.00    -0.001 C 
ATOM     17  C   LIG A   1      -4.370  -4.694 123.659  0.00  0.00    +0.004 C 
ENDBRANCH  15  16
ENDBRANCH  14  15
ENDBRANCH  13  14
ENDBRANCH  12  13
ENDBRANCH   1  12
BRANCH   3  18
ATOM     18  C   LIG A   1      -9.057   2.577 122.178  0.00  0.00    +0.190 C 
BRANCH  18  19
ATOM     19  O   LIG A   1      -8.313   3.788 122.329  0.00  0.00    -0.392 OA
ATOM     20  H   LIG A   1      -7.381   3.548 122.167  0.00  0.00    +0.209 HD
ENDBRANCH  18  19
ENDBRANCH   3  18
TORSDOF 10
ENDMDL
MODEL 8
REMARK VINA RESULT:      -4.9      1.773      2.634
REMARK  Name = NuBBE_1032
REMARK  11 active torsions:
REMARK  status: ('A' for Active; 'I' for Inactive)
REMARK    1  A    between atoms: O_1  and  C_2
REMARK    2  A    between atoms: C_2  and  C_3
REMARK    3  A    between atoms: C_3  and  O_4
REMARK    4  A    between atoms: O_4  and  C_5
REMARK    5  A    between atoms: C_5  and  C_6
REMARK    6  A    between atoms: C_6  and  C_7
REMARK    7  A    between atoms: C_7  and  C_8
REMARK    8  A    between atoms: C_10  and  C_12
REMARK    9  A    between atoms: C_12  and  O_13
REMARK   10  A    between atoms: C_14  and  O_16
REMARK   11  A    between atoms: C_17  and  O_19
REMARK                            x       y       z     vdW  Elec       q    Type
REMARK                         _______ _______ _______ _____ _____    ______ ____
ROOT
ATOM      1  C   LIG A   1     -10.892   5.259 130.353  0.00  0.00    +0.221 C 
ATOM      2  O   LIG A   1     -11.205   5.850 129.075  0.00  0.00    -0.336 OA
ATOM      3  C   LIG A   1     -12.256   6.811 129.288  0.00  0.00    +0.178 C 
ATOM      4  C   LIG A   1     -11.979   7.377 130.667  0.00  0.00    +0.179 C 
ATOM      5  C   LIG A   1     -11.599   6.115 131.431  0.00  0.00    +0.207 C 
ENDROOT
BRANCH   1   6
ATOM      6  O   LIG A   1     -11.459   3.950 130.343  0.00  0.00    -0.361 OA
ATOM      7  H   LIG A   1     -12.206   4.033 129.719  0.00  0.00    +0.213 HD
ENDBRANCH   1   6
BRANCH   4   8
ATOM      8  O   LIG A   1     -13.065   8.063 131.267  0.00  0.00    -0.386 OA
ATOM      9  H   LIG A   1     -12.915   9.026 131.183  0.00  0.00    +0.210 HD
ENDBRANCH   4   8
BRANCH   5  10
ATOM     10  O   LIG A   1     -10.806   6.447 132.572  0.00  0.00    -0.384 OA
ATOM     11  H   LIG A   1     -10.991   5.767 133.246  0.00  0.00    +0.210 HD
ENDBRANCH   5  10
BRANCH   1  12
ATOM     12  C   LIG A   1      -9.363   5.153 130.548  0.00  0.00    +0.227 C 
BRANCH  12  13
ATOM     13  O   LIG A   1      -9.062   4.288 131.665  0.00  0.00    -0.374 OA
BRANCH  13  14
ATOM     14  C   LIG A   1      -7.654   4.252 131.916  0.00  0.00    +0.160 C 
BRANCH  14  15
ATOM     15  C   LIG A   1      -7.369   3.623 133.279  0.00  0.00    +0.028 C 
BRANCH  15  16
ATOM     16  C   LIG A   1      -8.366   4.091 134.340  0.00  0.00    -0.001 C 
ATOM     17  C   LIG A   1      -7.804   5.234 135.171  0.00  0.00    +0.004 C 
ENDBRANCH  15  16
ENDBRANCH  14  15
ENDBRANCH  13  14
ENDBRANCH  12  13
ENDBRANCH   1  12
BRANCH   3  18
ATOM     18  C   LIG A   1     -12.211   7.845 128.171  0.00  0.00    +0.190 C 
BRANCH  18  19
ATOM     19  O   LIG A   1     -11.932   9.131 128.730  0.00  0.00    -0.392 OA
ATOM     20  H   LIG A   1     -11.143   9.009 129.291  0.00  0.00    +0.209 HD
ENDBRANCH  18  19
ENDBRANCH   3  18
TORSDOF 10
ENDMDL
MODEL 9
REMARK VINA RESULT:      -4.8      6.861      8.111
REMARK  Name = NuBBE_1032
REMARK  11 active torsions:
REMARK  status: ('A' for Active; 'I' for Inactive)
REMARK    1  A    between atoms: O_1  and  C_2
REMARK    2  A    between atoms: C_2  and  C_3
REMARK    3  A    between atoms: C_3  and  O_4
REMARK    4  A    between atoms: O_4  and  C_5
REMARK    5  A    between atoms: C_5  and  C_6
REMARK    6  A    between atoms: C_6  and  C_7
REMARK    7  A    between atoms: C_7  and  C_8
REMARK    8  A    between atoms: C_10  and  C_12
REMARK    9  A    between atoms: C_12  and  O_13
REMARK   10  A    between atoms: C_14  and  O_16
REMARK   11  A    between atoms: C_17  and  O_19
REMARK                            x       y       z     vdW  Elec       q    Type
REMARK                         _______ _______ _______ _____ _____    ______ ____
ROOT
ATOM      1  C   LIG A   1      -8.669   0.714 124.797  0.00  0.00    +0.221 C 
ATOM      2  O   LIG A   1      -8.439   1.125 123.434  0.00  0.00    -0.336 OA
ATOM      3  C   LIG A   1      -8.676   2.543 123.363  0.00  0.00    +0.178 C 
ATOM      4  C   LIG A   1      -8.222   3.071 124.710  0.00  0.00    +0.179 C 
ATOM      5  C   LIG A   1      -8.775   2.004 125.645  0.00  0.00    +0.207 C 
ENDROOT
BRANCH   1   6
ATOM      6  O   LIG A   1      -9.924   0.037 124.809  0.00  0.00    -0.361 OA
ATOM      7  H   LIG A   1     -10.564   0.751 124.997  0.00  0.00    +0.213 HD
ENDBRANCH   1   6
BRANCH   4   8
ATOM      8  O   LIG A   1      -8.689   4.369 125.038  0.00  0.00    -0.386 OA
ATOM      9  H   LIG A   1      -8.133   5.030 124.579  0.00  0.00    +0.210 HD
ENDBRANCH   4   8
BRANCH   5  10
ATOM     10  O   LIG A   1      -8.046   1.996 126.873  0.00  0.00    -0.384 OA
ATOM     11  H   LIG A   1      -8.271   2.825 127.335  0.00  0.00    +0.210 HD
ENDBRANCH   5  10
BRANCH   1  12
ATOM     12  C   LIG A   1      -7.561  -0.252 125.273  0.00  0.00    +0.227 C 
BRANCH  12  13
ATOM     13  O   LIG A   1      -7.969  -0.919 126.487  0.00  0.00    -0.374 OA
BRANCH  13  14
ATOM     14  C   LIG A   1      -7.630  -2.309 126.445  0.00  0.00    +0.160 C 
BRANCH  14  15
ATOM     15  C   LIG A   1      -8.803  -3.130 125.913  0.00  0.00    +0.028 C 
BRANCH  15  16
ATOM     16  C   LIG A   1      -8.499  -3.734 124.542  0.00  0.00    -0.001 C 
ATOM     17  C   LIG A   1      -9.464  -3.228 123.481  0.00  0.00    +0.004 C 
ENDBRANCH  15  16
ENDBRANCH  14  15
ENDBRANCH  13  14
ENDBRANCH  12  13
ENDBRANCH   1  12
BRANCH   3  18
ATOM     18  C   LIG A   1      -7.904   3.113 122.180  0.00  0.00    +0.190 C 
BRANCH  18  19
ATOM     19  O   LIG A   1      -8.774   3.943 121.407  0.00  0.00    -0.392 OA
ATOM     20  H   LIG A   1      -9.121   3.373 120.696  0.00  0.00    +0.209 HD
ENDBRANCH  18  19
ENDBRANCH   3  18
TORSDOF 10
ENDMDL
