MODEL 1
REMARK VINA RESULT:      -5.8      0.000      0.000
REMARK  Name = NuBBE_1680
REMARK  18 active torsions:
REMARK  status: ('A' for Active; 'I' for Inactive)
REMARK    1  A    between atoms: C_1  and  C_2
REMARK    2  A    between atoms: C_2  and  C_3
REMARK    3  A    between atoms: C_3  and  C_4
REMARK    4  A    between atoms: C_4  and  C_5
REMARK    5  A    between atoms: C_5  and  C_6
REMARK    6  A    between atoms: C_6  and  C_7
REMARK    7  A    between atoms: C_7  and  C_8
REMARK    8  A    between atoms: C_8  and  C_9
REMARK    9  A    between atoms: C_9  and  C_10
REMARK   10  A    between atoms: C_10  and  C_11
REMARK   11  A    between atoms: C_11  and  C_12
REMARK   12  A    between atoms: C_12  and  C_13
REMARK   13  A    between atoms: C_13  and  C_14
REMARK   14  A    between atoms: C_14  and  C_15
REMARK   15  A    between atoms: C_15  and  C_16
REMARK   16  A    between atoms: C_18  and  O_19
REMARK   17  A    between atoms: C_20  and  C_21
REMARK   18  A    between atoms: C_22  and  O_23
REMARK                            x       y       z     vdW  Elec       q    Type
REMARK                         _______ _______ _______ _____ _____    ______ ____
ROOT
ATOM      1  C   LIG A   1      -6.114  -0.465 129.032  0.00  0.00    +0.000 C 
ENDROOT
BRANCH   1   2
ATOM      2  C   LIG A   1      -6.878   0.730 128.423  0.00  0.00    +0.005 C 
BRANCH   2   3
ATOM      3  C   LIG A   1      -8.223   0.425 127.711  0.00  0.00    +0.035 C 
BRANCH   3   4
ATOM      4  C   LIG A   1      -8.363   0.866 126.274  0.00  0.00    -0.041 A 
ATOM      5  C   LIG A   1      -7.310   1.371 125.526  0.00  0.00    +0.049 A 
ATOM      6  C   LIG A   1      -7.528   1.885 124.241  0.00  0.00    +0.123 A 
ATOM      7  C   LIG A   1      -8.825   1.950 123.677  0.00  0.00    +0.032 A 
ATOM      8  C   LIG A   1      -9.029   2.575 122.330  0.00  0.00    +0.051 C 
ATOM      9  C   LIG A   1      -9.849   1.371 124.406  0.00  0.00    +0.123 A 
ATOM     10  C   LIG A   1      -9.641   0.806 125.661  0.00  0.00    +0.049 A 
BRANCH   9  11
ATOM     11  O   LIG A   1     -11.149   1.346 123.965  0.00  0.00    -0.506 OA
ATOM     12  H   LIG A   1     -11.173   1.708 123.079  0.00  0.00    +0.292 HD
ENDBRANCH   9  11
BRANCH   6  13
ATOM     13  O   LIG A   1      -6.492   2.353 123.493  0.00  0.00    -0.506 OA
ATOM     14  H   LIG A   1      -5.658   2.061 123.913  0.00  0.00    +0.292 HD
ENDBRANCH   6  13
ENDBRANCH   3   4
ENDBRANCH   2   3
ENDBRANCH   1   2
BRANCH   1  15
ATOM     15  C   LIG A   1      -6.924  -1.233 130.067  0.00  0.00    +0.000 C 
BRANCH  15  16
ATOM     16  C   LIG A   1      -6.432  -2.635 130.386  0.00  0.00    -0.000 C 
BRANCH  16  17
ATOM     17  C   LIG A   1      -7.054  -3.627 129.380  0.00  0.00    -0.000 C 
BRANCH  17  18
ATOM     18  C   LIG A   1      -8.551  -3.401 129.120  0.00  0.00    -0.000 C 
BRANCH  18  19
ATOM     19  C   LIG A   1      -8.897  -3.814 127.682  0.00  0.00    -0.000 C 
BRANCH  19  20
ATOM     20  C   LIG A   1      -8.241  -3.016 126.558  0.00  0.00    -0.000 C 
BRANCH  20  21
ATOM     21  C   LIG A   1      -8.303  -3.741 125.190  0.00  0.00    -0.000 C 
BRANCH  21  22
ATOM     22  C   LIG A   1      -9.321  -3.188 124.170  0.00  0.00    -0.000 C 
BRANCH  22  23
ATOM     23  C   LIG A   1      -8.691  -2.462 122.963  0.00  0.00    -0.000 C 
BRANCH  23  24
ATOM     24  C   LIG A   1      -7.444  -1.629 123.277  0.00  0.00    -0.000 C 
BRANCH  24  26
ATOM     25  C   LIG A   1      -5.214  -2.929 123.324  0.00  0.00    +0.004 C 
ATOM     26  C   LIG A   1      -6.140  -1.994 122.563  0.00  0.00    -0.003 C 
ENDBRANCH  24  26
ENDBRANCH  23  24
ENDBRANCH  22  23
ENDBRANCH  21  22
ENDBRANCH  20  21
ENDBRANCH  19  20
ENDBRANCH  18  19
ENDBRANCH  17  18
ENDBRANCH  16  17
ENDBRANCH  15  16
ENDBRANCH   1  15
TORSDOF 16
ENDMDL
MODEL 2
REMARK VINA RESULT:      -5.7      2.859      6.582
REMARK  Name = NuBBE_1680
REMARK  18 active torsions:
REMARK  status: ('A' for Active; 'I' for Inactive)
REMARK    1  A    between atoms: C_1  and  C_2
REMARK    2  A    between atoms: C_2  and  C_3
REMARK    3  A    between atoms: C_3  and  C_4
REMARK    4  A    between atoms: C_4  and  C_5
REMARK    5  A    between atoms: C_5  and  C_6
REMARK    6  A    between atoms: C_6  and  C_7
REMARK    7  A    between atoms: C_7  and  C_8
REMARK    8  A    between atoms: C_8  and  C_9
REMARK    9  A    between atoms: C_9  and  C_10
REMARK   10  A    between atoms: C_10  and  C_11
REMARK   11  A    between atoms: C_11  and  C_12
REMARK   12  A    between atoms: C_12  and  C_13
REMARK   13  A    between atoms: C_13  and  C_14
REMARK   14  A    between atoms: C_14  and  C_15
REMARK   15  A    between atoms: C_15  and  C_16
REMARK   16  A    between atoms: C_18  and  O_19
REMARK   17  A    between atoms: C_20  and  C_21
REMARK   18  A    between atoms: C_22  and  O_23
REMARK                            x       y       z     vdW  Elec       q    Type
REMARK                         _______ _______ _______ _____ _____    ______ ____
ROOT
ATOM      1  C   LIG A   1      -9.260  -3.253 126.192  0.00  0.00    +0.000 C 
ENDROOT
BRANCH   1   2
ATOM      2  C   LIG A   1      -8.629  -4.030 127.366  0.00  0.00    +0.005 C 
BRANCH   2   3
ATOM      3  C   LIG A   1      -8.921  -3.512 128.799  0.00  0.00    +0.035 C 
BRANCH   3   4
ATOM      4  C   LIG A   1      -7.754  -2.976 129.594  0.00  0.00    -0.041 A 
ATOM      5  C   LIG A   1      -7.770  -1.749 130.240  0.00  0.00    +0.049 A 
ATOM      6  C   LIG A   1      -6.614  -1.248 130.852  0.00  0.00    +0.123 A 
ATOM      7  C   LIG A   1      -5.384  -1.946 130.800  0.00  0.00    +0.032 A 
ATOM      8  C   LIG A   1      -4.151  -1.343 131.402  0.00  0.00    +0.051 C 
ATOM      9  C   LIG A   1      -5.407  -3.202 130.219  0.00  0.00    +0.123 A 
ATOM     10  C   LIG A   1      -6.559  -3.739 129.655  0.00  0.00    +0.049 A 
BRANCH   9  11
ATOM     11  O   LIG A   1      -4.288  -3.994 130.123  0.00  0.00    -0.506 OA
ATOM     12  H   LIG A   1      -3.896  -3.856 129.261  0.00  0.00    +0.292 HD
ENDBRANCH   9  11
BRANCH   6  13
ATOM     13  O   LIG A   1      -6.636  -0.058 131.511  0.00  0.00    -0.506 OA
ATOM     14  H   LIG A   1      -7.133   0.583 130.966  0.00  0.00    +0.292 HD
ENDBRANCH   6  13
ENDBRANCH   3   4
ENDBRANCH   2   3
ENDBRANCH   1   2
BRANCH   1  15
ATOM     15  C   LIG A   1      -8.588  -3.534 124.854  0.00  0.00    +0.000 C 
BRANCH  15  16
ATOM     16  C   LIG A   1      -9.425  -3.243 123.619  0.00  0.00    -0.000 C 
BRANCH  16  17
ATOM     17  C   LIG A   1      -8.860  -1.991 122.914  0.00  0.00    -0.000 C 
BRANCH  17  18
ATOM     18  C   LIG A   1      -7.328  -1.888 122.950  0.00  0.00    -0.000 C 
BRANCH  18  19
ATOM     19  C   LIG A   1      -6.912  -0.461 123.338  0.00  0.00    -0.000 C 
BRANCH  19  20
ATOM     20  C   LIG A   1      -8.024   0.581 123.431  0.00  0.00    -0.000 C 
BRANCH  20  21
ATOM     21  C   LIG A   1      -8.107   1.249 124.827  0.00  0.00    -0.000 C 
BRANCH  21  22
ATOM     22  C   LIG A   1      -8.891   0.475 125.908  0.00  0.00    -0.000 C 
BRANCH  22  23
ATOM     23  C   LIG A   1      -8.027  -0.056 127.072  0.00  0.00    -0.000 C 
BRANCH  23  24
ATOM     24  C   LIG A   1      -6.529   0.248 126.968  0.00  0.00    -0.000 C 
BRANCH  24  26
ATOM     25  C   LIG A   1      -5.638  -2.110 126.410  0.00  0.00    +0.004 C 
ATOM     26  C   LIG A   1      -5.545  -0.877 127.295  0.00  0.00    -0.003 C 
ENDBRANCH  24  26
ENDBRANCH  23  24
ENDBRANCH  22  23
ENDBRANCH  21  22
ENDBRANCH  20  21
ENDBRANCH  19  20
ENDBRANCH  18  19
ENDBRANCH  17  18
ENDBRANCH  16  17
ENDBRANCH  15  16
ENDBRANCH   1  15
TORSDOF 16
ENDMDL
MODEL 3
REMARK VINA RESULT:      -5.7      1.310      4.115
REMARK  Name = NuBBE_1680
REMARK  18 active torsions:
REMARK  status: ('A' for Active; 'I' for Inactive)
REMARK    1  A    between atoms: C_1  and  C_2
REMARK    2  A    between atoms: C_2  and  C_3
REMARK    3  A    between atoms: C_3  and  C_4
REMARK    4  A    between atoms: C_4  and  C_5
REMARK    5  A    between atoms: C_5  and  C_6
REMARK    6  A    between atoms: C_6  and  C_7
REMARK    7  A    between atoms: C_7  and  C_8
REMARK    8  A    between atoms: C_8  and  C_9
REMARK    9  A    between atoms: C_9  and  C_10
REMARK   10  A    between atoms: C_10  and  C_11
REMARK   11  A    between atoms: C_11  and  C_12
REMARK   12  A    between atoms: C_12  and  C_13
REMARK   13  A    between atoms: C_13  and  C_14
REMARK   14  A    between atoms: C_14  and  C_15
REMARK   15  A    between atoms: C_15  and  C_16
REMARK   16  A    between atoms: C_18  and  O_19
REMARK   17  A    between atoms: C_20  and  C_21
REMARK   18  A    between atoms: C_22  and  O_23
REMARK                            x       y       z     vdW  Elec       q    Type
REMARK                         _______ _______ _______ _____ _____    ______ ____
ROOT
ATOM      1  C   LIG A   1      -5.511  -1.067 124.861  0.00  0.00    +0.000 C 
ENDROOT
BRANCH   1   2
ATOM      2  C   LIG A   1      -6.001  -0.508 126.214  0.00  0.00    +0.005 C 
BRANCH   2   3
ATOM      3  C   LIG A   1      -7.205   0.470 126.185  0.00  0.00    +0.035 C 
BRANCH   3   4
ATOM      4  C   LIG A   1      -7.490   1.182 124.884  0.00  0.00    -0.041 A 
ATOM      5  C   LIG A   1      -6.734   2.245 124.416  0.00  0.00    +0.049 A 
ATOM      6  C   LIG A   1      -7.123   2.949 123.269  0.00  0.00    +0.123 A 
ATOM      7  C   LIG A   1      -8.315   2.635 122.573  0.00  0.00    +0.032 A 
ATOM      8  C   LIG A   1      -8.737   3.458 121.394  0.00  0.00    +0.051 C 
ATOM      9  C   LIG A   1      -9.014   1.523 123.010  0.00  0.00    +0.123 A 
ATOM     10  C   LIG A   1      -8.612   0.778 124.114  0.00  0.00    +0.049 A 
BRANCH   9  11
ATOM     11  O   LIG A   1     -10.173   1.095 122.411  0.00  0.00    -0.506 OA
ATOM     12  H   LIG A   1     -10.392   1.707 121.708  0.00  0.00    +0.292 HD
ENDBRANCH   9  11
BRANCH   6  13
ATOM     13  O   LIG A   1      -6.366   3.974 122.791  0.00  0.00    -0.506 OA
ATOM     14  H   LIG A   1      -5.569   3.593 122.371  0.00  0.00    +0.292 HD
ENDBRANCH   6  13
ENDBRANCH   3   4
ENDBRANCH   2   3
ENDBRANCH   1   2
BRANCH   1  15
ATOM     15  C   LIG A   1      -5.384  -2.585 124.848  0.00  0.00    +0.000 C 
BRANCH  15  16
ATOM     16  C   LIG A   1      -6.093  -3.298 123.709  0.00  0.00    -0.000 C 
BRANCH  16  17
ATOM     17  C   LIG A   1      -6.964  -2.279 122.943  0.00  0.00    -0.000 C 
BRANCH  17  18
ATOM     18  C   LIG A   1      -8.475  -2.516 123.081  0.00  0.00    -0.000 C 
BRANCH  18  19
ATOM     19  C   LIG A   1      -8.738  -3.578 124.159  0.00  0.00    -0.000 C 
BRANCH  19  20
ATOM     20  C   LIG A   1      -9.428  -3.108 125.437  0.00  0.00    -0.000 C 
BRANCH  20  21
ATOM     21  C   LIG A   1      -8.479  -3.091 126.662  0.00  0.00    -0.000 C 
BRANCH  21  22
ATOM     22  C   LIG A   1      -9.016  -3.749 127.950  0.00  0.00    -0.000 C 
BRANCH  22  23
ATOM     23  C   LIG A   1      -8.016  -3.770 129.126  0.00  0.00    -0.000 C 
BRANCH  23  24
ATOM     24  C   LIG A   1      -7.601  -2.395 129.658  0.00  0.00    -0.000 C 
BRANCH  24  26
ATOM     25  C   LIG A   1      -5.191  -2.789 128.819  0.00  0.00    +0.004 C 
ATOM     26  C   LIG A   1      -6.106  -2.114 129.829  0.00  0.00    -0.003 C 
ENDBRANCH  24  26
ENDBRANCH  23  24
ENDBRANCH  22  23
ENDBRANCH  21  22
ENDBRANCH  20  21
ENDBRANCH  19  20
ENDBRANCH  18  19
ENDBRANCH  17  18
ENDBRANCH  16  17
ENDBRANCH  15  16
ENDBRANCH   1  15
TORSDOF 16
ENDMDL
MODEL 4
REMARK VINA RESULT:      -5.7      1.897      3.222
REMARK  Name = NuBBE_1680
REMARK  18 active torsions:
REMARK  status: ('A' for Active; 'I' for Inactive)
REMARK    1  A    between atoms: C_1  and  C_2
REMARK    2  A    between atoms: C_2  and  C_3
REMARK    3  A    between atoms: C_3  and  C_4
REMARK    4  A    between atoms: C_4  and  C_5
REMARK    5  A    between atoms: C_5  and  C_6
REMARK    6  A    between atoms: C_6  and  C_7
REMARK    7  A    between atoms: C_7  and  C_8
REMARK    8  A    between atoms: C_8  and  C_9
REMARK    9  A    between atoms: C_9  and  C_10
REMARK   10  A    between atoms: C_10  and  C_11
REMARK   11  A    between atoms: C_11  and  C_12
REMARK   12  A    between atoms: C_12  and  C_13
REMARK   13  A    between atoms: C_13  and  C_14
REMARK   14  A    between atoms: C_14  and  C_15
REMARK   15  A    between atoms: C_15  and  C_16
REMARK   16  A    between atoms: C_18  and  O_19
REMARK   17  A    between atoms: C_20  and  C_21
REMARK   18  A    between atoms: C_22  and  O_23
REMARK                            x       y       z     vdW  Elec       q    Type
REMARK                         _______ _______ _______ _____ _____    ______ ____
ROOT
ATOM      1  C   LIG A   1      -7.538  -0.968 128.564  0.00  0.00    +0.000 C 
ENDROOT
BRANCH   1   2
ATOM      2  C   LIG A   1      -6.350  -1.273 127.630  0.00  0.00    +0.005 C 
BRANCH   2   3
ATOM      3  C   LIG A   1      -5.224  -0.209 127.539  0.00  0.00    +0.035 C 
BRANCH   3   4
ATOM      4  C   LIG A   1      -5.465   0.981 126.641  0.00  0.00    -0.041 A 
ATOM      5  C   LIG A   1      -6.352   0.963 125.575  0.00  0.00    +0.049 A 
ATOM      6  C   LIG A   1      -6.437   2.053 124.698  0.00  0.00    +0.123 A 
ATOM      7  C   LIG A   1      -5.600   3.186 124.838  0.00  0.00    +0.032 A 
ATOM      8  C   LIG A   1      -5.668   4.300 123.837  0.00  0.00    +0.051 C 
ATOM      9  C   LIG A   1      -4.778   3.217 125.952  0.00  0.00    +0.123 A 
ATOM     10  C   LIG A   1      -4.720   2.168 126.863  0.00  0.00    +0.049 A 
BRANCH   9  11
ATOM     11  O   LIG A   1      -3.933   4.267 126.218  0.00  0.00    -0.506 OA
ATOM     12  H   LIG A   1      -3.797   4.756 125.407  0.00  0.00    +0.292 HD
ENDBRANCH   9  11
BRANCH   6  13
ATOM     13  O   LIG A   1      -7.327   2.051 123.669  0.00  0.00    -0.506 OA
ATOM     14  H   LIG A   1      -7.139   2.826 123.103  0.00  0.00    +0.292 HD
ENDBRANCH   6  13
ENDBRANCH   3   4
ENDBRANCH   2   3
ENDBRANCH   1   2
BRANCH   1  15
ATOM     15  C   LIG A   1      -7.953  -2.158 129.420  0.00  0.00    +0.000 C 
BRANCH  15  16
ATOM     16  C   LIG A   1      -7.786  -3.525 128.778  0.00  0.00    -0.000 C 
BRANCH  16  17
ATOM     17  C   LIG A   1      -8.934  -3.750 127.770  0.00  0.00    -0.000 C 
BRANCH  17  18
ATOM     18  C   LIG A   1      -8.481  -3.794 126.303  0.00  0.00    -0.000 C 
BRANCH  18  19
ATOM     19  C   LIG A   1      -9.424  -2.939 125.443  0.00  0.00    -0.000 C 
BRANCH  19  20
ATOM     20  C   LIG A   1      -9.010  -1.490 125.196  0.00  0.00    -0.000 C 
BRANCH  20  21
ATOM     21  C   LIG A   1      -8.843  -1.161 123.692  0.00  0.00    -0.000 C 
BRANCH  21  22
ATOM     22  C   LIG A   1      -7.926  -2.104 122.884  0.00  0.00    -0.000 C 
BRANCH  22  23
ATOM     23  C   LIG A   1      -6.445  -1.673 122.833  0.00  0.00    -0.000 C 
BRANCH  23  24
ATOM     24  C   LIG A   1      -5.551  -2.270 123.925  0.00  0.00    -0.000 C 
BRANCH  24  26
ATOM     25  C   LIG A   1      -4.287  -4.488 123.537  0.00  0.00    +0.004 C 
ATOM     26  C   LIG A   1      -5.526  -3.793 124.077  0.00  0.00    -0.003 C 
ENDBRANCH  24  26
ENDBRANCH  23  24
ENDBRANCH  22  23
ENDBRANCH  21  22
ENDBRANCH  20  21
ENDBRANCH  19  20
ENDBRANCH  18  19
ENDBRANCH  17  18
ENDBRANCH  16  17
ENDBRANCH  15  16
ENDBRANCH   1  15
TORSDOF 16
ENDMDL
MODEL 5
REMARK VINA RESULT:      -5.6      2.893      6.388
REMARK  Name = NuBBE_1680
REMARK  18 active torsions:
REMARK  status: ('A' for Active; 'I' for Inactive)
REMARK    1  A    between atoms: C_1  and  C_2
REMARK    2  A    between atoms: C_2  and  C_3
REMARK    3  A    between atoms: C_3  and  C_4
REMARK    4  A    between atoms: C_4  and  C_5
REMARK    5  A    between atoms: C_5  and  C_6
REMARK    6  A    between atoms: C_6  and  C_7
REMARK    7  A    between atoms: C_7  and  C_8
REMARK    8  A    between atoms: C_8  and  C_9
REMARK    9  A    between atoms: C_9  and  C_10
REMARK   10  A    between atoms: C_10  and  C_11
REMARK   11  A    between atoms: C_11  and  C_12
REMARK   12  A    between atoms: C_12  and  C_13
REMARK   13  A    between atoms: C_13  and  C_14
REMARK   14  A    between atoms: C_14  and  C_15
REMARK   15  A    between atoms: C_15  and  C_16
REMARK   16  A    between atoms: C_18  and  O_19
REMARK   17  A    between atoms: C_20  and  C_21
REMARK   18  A    between atoms: C_22  and  O_23
REMARK                            x       y       z     vdW  Elec       q    Type
REMARK                         _______ _______ _______ _____ _____    ______ ____
ROOT
ATOM      1  C   LIG A   1      -9.444  -3.121 125.718  0.00  0.00    +0.000 C 
ENDROOT
BRANCH   1   2
ATOM      2  C   LIG A   1      -8.379  -3.582 126.733  0.00  0.00    +0.005 C 
BRANCH   2   3
ATOM      3  C   LIG A   1      -8.788  -3.613 128.229  0.00  0.00    +0.035 C 
BRANCH   3   4
ATOM      4  C   LIG A   1      -7.821  -3.019 129.226  0.00  0.00    -0.041 A 
ATOM      5  C   LIG A   1      -7.822  -1.679 129.582  0.00  0.00    +0.049 A 
ATOM      6  C   LIG A   1      -6.820  -1.160 130.412  0.00  0.00    +0.123 A 
ATOM      7  C   LIG A   1      -5.753  -1.963 130.880  0.00  0.00    +0.032 A 
ATOM      8  C   LIG A   1      -4.658  -1.355 131.705  0.00  0.00    +0.051 C 
ATOM      9  C   LIG A   1      -5.812  -3.312 130.577  0.00  0.00    +0.123 A 
ATOM     10  C   LIG A   1      -6.830  -3.856 129.800  0.00  0.00    +0.049 A 
BRANCH   9  11
ATOM     11  O   LIG A   1      -4.853  -4.206 130.988  0.00  0.00    -0.506 OA
ATOM     12  H   LIG A   1      -4.008  -3.921 130.640  0.00  0.00    +0.292 HD
ENDBRANCH   9  11
BRANCH   6  13
ATOM     13  O   LIG A   1      -6.835   0.148 130.788  0.00  0.00    -0.506 OA
ATOM     14  H   LIG A   1      -7.590   0.281 131.395  0.00  0.00    +0.292 HD
ENDBRANCH   6  13
ENDBRANCH   3   4
ENDBRANCH   2   3
ENDBRANCH   1   2
BRANCH   1  15
ATOM     15  C   LIG A   1      -9.083  -3.447 124.274  0.00  0.00    +0.000 C 
BRANCH  15  16
ATOM     16  C   LIG A   1      -9.511  -2.424 123.237  0.00  0.00    -0.000 C 
BRANCH  16  17
ATOM     17  C   LIG A   1      -8.579  -1.196 123.327  0.00  0.00    -0.000 C 
BRANCH  17  18
ATOM     18  C   LIG A   1      -9.312   0.134 123.552  0.00  0.00    -0.000 C 
BRANCH  18  19
ATOM     19  C   LIG A   1      -8.642   0.909 124.697  0.00  0.00    -0.000 C 
BRANCH  19  20
ATOM     20  C   LIG A   1      -8.457   0.167 126.018  0.00  0.00    -0.000 C 
BRANCH  20  21
ATOM     21  C   LIG A   1      -7.031   0.326 126.602  0.00  0.00    -0.000 C 
BRANCH  21  22
ATOM     22  C   LIG A   1      -5.867  -0.112 125.689  0.00  0.00    -0.000 C 
BRANCH  22  23
ATOM     23  C   LIG A   1      -5.589  -1.631 125.686  0.00  0.00    -0.000 C 
BRANCH  23  24
ATOM     24  C   LIG A   1      -5.079  -2.201 124.358  0.00  0.00    -0.000 C 
BRANCH  24  26
ATOM     25  C   LIG A   1      -4.500  -4.637 123.727  0.00  0.00    +0.004 C 
ATOM     26  C   LIG A   1      -5.578  -3.585 123.934  0.00  0.00    -0.003 C 
ENDBRANCH  24  26
ENDBRANCH  23  24
ENDBRANCH  22  23
ENDBRANCH  21  22
ENDBRANCH  20  21
ENDBRANCH  19  20
ENDBRANCH  18  19
ENDBRANCH  17  18
ENDBRANCH  16  17
ENDBRANCH  15  16
ENDBRANCH   1  15
TORSDOF 16
ENDMDL
MODEL 6
REMARK VINA RESULT:      -5.6      1.972      4.227
REMARK  Name = NuBBE_1680
REMARK  18 active torsions:
REMARK  status: ('A' for Active; 'I' for Inactive)
REMARK    1  A    between atoms: C_1  and  C_2
REMARK    2  A    between atoms: C_2  and  C_3
REMARK    3  A    between atoms: C_3  and  C_4
REMARK    4  A    between atoms: C_4  and  C_5
REMARK    5  A    between atoms: C_5  and  C_6
REMARK    6  A    between atoms: C_6  and  C_7
REMARK    7  A    between atoms: C_7  and  C_8
REMARK    8  A    between atoms: C_8  and  C_9
REMARK    9  A    between atoms: C_9  and  C_10
REMARK   10  A    between atoms: C_10  and  C_11
REMARK   11  A    between atoms: C_11  and  C_12
REMARK   12  A    between atoms: C_12  and  C_13
REMARK   13  A    between atoms: C_13  and  C_14
REMARK   14  A    between atoms: C_14  and  C_15
REMARK   15  A    between atoms: C_15  and  C_16
REMARK   16  A    between atoms: C_18  and  O_19
REMARK   17  A    between atoms: C_20  and  C_21
REMARK   18  A    between atoms: C_22  and  O_23
REMARK                            x       y       z     vdW  Elec       q    Type
REMARK                         _______ _______ _______ _____ _____    ______ ____
ROOT
ATOM      1  C   LIG A   1      -4.903   1.475 126.231  0.00  0.00    +0.000 C 
ENDROOT
BRANCH   1   2
ATOM      2  C   LIG A   1      -5.144   2.988 126.416  0.00  0.00    +0.005 C 
BRANCH   2   3
ATOM      3  C   LIG A   1      -5.007   3.889 125.160  0.00  0.00    +0.035 C 
BRANCH   3   4
ATOM      4  C   LIG A   1      -5.959   3.633 124.016  0.00  0.00    -0.041 A 
ATOM      5  C   LIG A   1      -5.623   3.837 122.686  0.00  0.00    +0.049 A 
ATOM      6  C   LIG A   1      -6.587   3.707 121.678  0.00  0.00    +0.123 A 
ATOM      7  C   LIG A   1      -7.938   3.408 121.976  0.00  0.00    +0.032 A 
ATOM      8  C   LIG A   1      -8.956   3.352 120.877  0.00  0.00    +0.051 C 
ATOM      9  C   LIG A   1      -8.236   3.133 123.299  0.00  0.00    +0.123 A 
ATOM     10  C   LIG A   1      -7.279   3.203 124.306  0.00  0.00    +0.049 A 
BRANCH   9  11
ATOM     11  O   LIG A   1      -9.502   2.808 123.721  0.00  0.00    -0.506 OA
ATOM     12  H   LIG A   1     -10.070   3.565 123.577  0.00  0.00    +0.292 HD
ENDBRANCH   9  11
BRANCH   6  13
ATOM     13  O   LIG A   1      -6.253   3.878 120.369  0.00  0.00    -0.506 OA
ATOM     14  H   LIG A   1      -5.278   3.920 120.308  0.00  0.00    +0.292 HD
ENDBRANCH   6  13
ENDBRANCH   3   4
ENDBRANCH   2   3
ENDBRANCH   1   2
BRANCH   1  15
ATOM     15  C   LIG A   1      -5.955   0.609 126.911  0.00  0.00    +0.000 C 
BRANCH  15  16
ATOM     16  C   LIG A   1      -6.923  -0.107 125.984  0.00  0.00    -0.000 C 
BRANCH  16  17
ATOM     17  C   LIG A   1      -6.147  -0.631 124.756  0.00  0.00    -0.000 C 
BRANCH  17  18
ATOM     18  C   LIG A   1      -6.739  -0.199 123.407  0.00  0.00    -0.000 C 
BRANCH  18  19
ATOM     19  C   LIG A   1      -8.117  -0.850 123.213  0.00  0.00    -0.000 C 
BRANCH  19  20
ATOM     20  C   LIG A   1      -8.136  -2.336 122.867  0.00  0.00    -0.000 C 
BRANCH  20  21
ATOM     21  C   LIG A   1      -9.361  -3.077 123.461  0.00  0.00    -0.000 C 
BRANCH  21  22
ATOM     22  C   LIG A   1      -9.567  -2.942 124.984  0.00  0.00    -0.000 C 
BRANCH  22  23
ATOM     23  C   LIG A   1      -8.454  -3.582 125.842  0.00  0.00    -0.000 C 
BRANCH  23  24
ATOM     24  C   LIG A   1      -8.714  -3.591 127.351  0.00  0.00    -0.000 C 
BRANCH  24  26
ATOM     25  C   LIG A   1      -8.026  -2.895 129.741  0.00  0.00    +0.004 C 
ATOM     26  C   LIG A   1      -7.675  -2.933 128.262  0.00  0.00    -0.003 C 
ENDBRANCH  24  26
ENDBRANCH  23  24
ENDBRANCH  22  23
ENDBRANCH  21  22
ENDBRANCH  20  21
ENDBRANCH  19  20
ENDBRANCH  18  19
ENDBRANCH  17  18
ENDBRANCH  16  17
ENDBRANCH  15  16
ENDBRANCH   1  15
TORSDOF 16
ENDMDL
MODEL 7
REMARK VINA RESULT:      -5.6      7.134      9.239
REMARK  Name = NuBBE_1680
REMARK  18 active torsions:
REMARK  status: ('A' for Active; 'I' for Inactive)
REMARK    1  A    between atoms: C_1  and  C_2
REMARK    2  A    between atoms: C_2  and  C_3
REMARK    3  A    between atoms: C_3  and  C_4
REMARK    4  A    between atoms: C_4  and  C_5
REMARK    5  A    between atoms: C_5  and  C_6
REMARK    6  A    between atoms: C_6  and  C_7
REMARK    7  A    between atoms: C_7  and  C_8
REMARK    8  A    between atoms: C_8  and  C_9
REMARK    9  A    between atoms: C_9  and  C_10
REMARK   10  A    between atoms: C_10  and  C_11
REMARK   11  A    between atoms: C_11  and  C_12
REMARK   12  A    between atoms: C_12  and  C_13
REMARK   13  A    between atoms: C_13  and  C_14
REMARK   14  A    between atoms: C_14  and  C_15
REMARK   15  A    between atoms: C_15  and  C_16
REMARK   16  A    between atoms: C_18  and  O_19
REMARK   17  A    between atoms: C_20  and  C_21
REMARK   18  A    between atoms: C_22  and  O_23
REMARK                            x       y       z     vdW  Elec       q    Type
REMARK                         _______ _______ _______ _____ _____    ______ ____
ROOT
ATOM      1  C   LIG A   1      -6.046   6.684 131.385  0.00  0.00    +0.000 C 
ENDROOT
BRANCH   1   2
ATOM      2  C   LIG A   1      -7.236   5.866 130.840  0.00  0.00    +0.005 C 
BRANCH   2   3
ATOM      3  C   LIG A   1      -8.544   5.872 131.674  0.00  0.00    +0.035 C 
BRANCH   3   4
ATOM      4  C   LIG A   1      -9.734   6.598 131.094  0.00  0.00    -0.041 A 
ATOM      5  C   LIG A   1     -11.008   6.531 131.638  0.00  0.00    +0.049 A 
ATOM      6  C   LIG A   1     -12.098   7.119 130.983  0.00  0.00    +0.123 A 
ATOM      7  C   LIG A   1     -11.952   7.762 129.730  0.00  0.00    +0.032 A 
ATOM      8  C   LIG A   1     -13.154   8.314 129.024  0.00  0.00    +0.051 C 
ATOM      9  C   LIG A   1     -10.663   7.885 129.242  0.00  0.00    +0.123 A 
ATOM     10  C   LIG A   1      -9.562   7.355 129.907  0.00  0.00    +0.049 A 
BRANCH   9  11
ATOM     11  O   LIG A   1     -10.380   8.505 128.049  0.00  0.00    -0.506 OA
ATOM     12  H   LIG A   1     -10.131   9.411 128.234  0.00  0.00    +0.292 HD
ENDBRANCH   9  11
BRANCH   6  13
ATOM     13  O   LIG A   1     -13.343   7.080 131.531  0.00  0.00    -0.506 OA
ATOM     14  H   LIG A   1     -13.655   8.001 131.641  0.00  0.00    +0.292 HD
ENDBRANCH   6  13
ENDBRANCH   3   4
ENDBRANCH   2   3
ENDBRANCH   1   2
BRANCH   1  15
ATOM     15  C   LIG A   1      -5.145   5.886 132.318  0.00  0.00    +0.000 C 
BRANCH  15  16
ATOM     16  C   LIG A   1      -3.953   6.636 132.889  0.00  0.00    -0.000 C 
BRANCH  16  17
ATOM     17  C   LIG A   1      -3.097   7.179 131.725  0.00  0.00    -0.000 C 
BRANCH  17  18
ATOM     18  C   LIG A   1      -2.145   6.144 131.109  0.00  0.00    -0.000 C 
BRANCH  18  19
ATOM     19  C   LIG A   1      -1.956   6.436 129.614  0.00  0.00    -0.000 C 
BRANCH  19  20
ATOM     20  C   LIG A   1      -3.122   7.100 128.887  0.00  0.00    -0.000 C 
BRANCH  20  21
ATOM     21  C   LIG A   1      -3.715   6.213 127.764  0.00  0.00    -0.000 C 
BRANCH  21  22
ATOM     22  C   LIG A   1      -4.657   5.077 128.217  0.00  0.00    -0.000 C 
BRANCH  22  23
ATOM     23  C   LIG A   1      -5.333   4.305 127.064  0.00  0.00    -0.000 C 
BRANCH  23  24
ATOM     24  C   LIG A   1      -4.376   3.663 126.055  0.00  0.00    -0.000 C 
BRANCH  24  26
ATOM     25  C   LIG A   1      -1.891   3.214 126.593  0.00  0.00    +0.004 C 
ATOM     26  C   LIG A   1      -3.319   2.692 126.588  0.00  0.00    -0.003 C 
ENDBRANCH  24  26
ENDBRANCH  23  24
ENDBRANCH  22  23
ENDBRANCH  21  22
ENDBRANCH  20  21
ENDBRANCH  19  20
ENDBRANCH  18  19
ENDBRANCH  17  18
ENDBRANCH  16  17
ENDBRANCH  15  16
ENDBRANCH   1  15
TORSDOF 16
ENDMDL
MODEL 8
REMARK VINA RESULT:      -5.6      3.204      7.059
REMARK  Name = NuBBE_1680
REMARK  18 active torsions:
REMARK  status: ('A' for Active; 'I' for Inactive)
REMARK    1  A    between atoms: C_1  and  C_2
REMARK    2  A    between atoms: C_2  and  C_3
REMARK    3  A    between atoms: C_3  and  C_4
REMARK    4  A    between atoms: C_4  and  C_5
REMARK    5  A    between atoms: C_5  and  C_6
REMARK    6  A    between atoms: C_6  and  C_7
REMARK    7  A    between atoms: C_7  and  C_8
REMARK    8  A    between atoms: C_8  and  C_9
REMARK    9  A    between atoms: C_9  and  C_10
REMARK   10  A    between atoms: C_10  and  C_11
REMARK   11  A    between atoms: C_11  and  C_12
REMARK   12  A    between atoms: C_12  and  C_13
REMARK   13  A    between atoms: C_13  and  C_14
REMARK   14  A    between atoms: C_14  and  C_15
REMARK   15  A    between atoms: C_15  and  C_16
REMARK   16  A    between atoms: C_18  and  O_19
REMARK   17  A    between atoms: C_20  and  C_21
REMARK   18  A    between atoms: C_22  and  O_23
REMARK                            x       y       z     vdW  Elec       q    Type
REMARK                         _______ _______ _______ _____ _____    ______ ____
ROOT
ATOM      1  C   LIG A   1      -9.452  -3.054 126.079  0.00  0.00    +0.000 C 
ENDROOT
BRANCH   1   2
ATOM      2  C   LIG A   1      -8.796  -3.633 127.349  0.00  0.00    +0.005 C 
BRANCH   2   3
ATOM      3  C   LIG A   1      -7.546  -2.899 127.902  0.00  0.00    +0.035 C 
BRANCH   3   4
ATOM      4  C   LIG A   1      -7.346  -2.898 129.398  0.00  0.00    -0.041 A 
ATOM      5  C   LIG A   1      -7.865  -1.923 130.236  0.00  0.00    +0.049 A 
ATOM      6  C   LIG A   1      -7.538  -1.902 131.598  0.00  0.00    +0.123 A 
ATOM      7  C   LIG A   1      -6.641  -2.841 132.161  0.00  0.00    +0.032 A 
ATOM      8  C   LIG A   1      -6.257  -2.742 133.607  0.00  0.00    +0.051 C 
ATOM      9  C   LIG A   1      -6.195  -3.851 131.326  0.00  0.00    +0.123 A 
ATOM     10  C   LIG A   1      -6.553  -3.919 129.984  0.00  0.00    +0.049 A 
BRANCH   9  11
ATOM     11  O   LIG A   1      -5.338  -4.838 131.750  0.00  0.00    -0.506 OA
ATOM     12  H   LIG A   1      -4.637  -4.428 132.257  0.00  0.00    +0.292 HD
ENDBRANCH   9  11
BRANCH   6  13
ATOM     13  O   LIG A   1      -8.070  -0.964 132.428  0.00  0.00    -0.506 OA
ATOM     14  H   LIG A   1      -7.471  -0.861 133.194  0.00  0.00    +0.292 HD
ENDBRANCH   6  13
ENDBRANCH   3   4
ENDBRANCH   2   3
ENDBRANCH   1   2
BRANCH   1  15
ATOM     15  C   LIG A   1      -8.749  -3.471 124.794  0.00  0.00    +0.000 C 
BRANCH  15  16
ATOM     16  C   LIG A   1      -9.405  -3.015 123.502  0.00  0.00    -0.000 C 
BRANCH  16  17
ATOM     17  C   LIG A   1      -8.445  -2.060 122.760  0.00  0.00    -0.000 C 
BRANCH  17  18
ATOM     18  C   LIG A   1      -7.000  -2.094 123.280  0.00  0.00    -0.000 C 
BRANCH  18  19
ATOM     19  C   LIG A   1      -6.611  -0.711 123.822  0.00  0.00    -0.000 C 
BRANCH  19  20
ATOM     20  C   LIG A   1      -5.992  -0.665 125.217  0.00  0.00    -0.000 C 
BRANCH  20  21
ATOM     21  C   LIG A   1      -6.423   0.585 126.025  0.00  0.00    -0.000 C 
BRANCH  21  22
ATOM     22  C   LIG A   1      -7.599   0.392 127.005  0.00  0.00    -0.000 C 
BRANCH  22  23
ATOM     23  C   LIG A   1      -8.890   1.145 126.617  0.00  0.00    -0.000 C 
BRANCH  23  24
ATOM     24  C   LIG A   1      -9.705   0.509 125.487  0.00  0.00    -0.000 C 
BRANCH  24  26
ATOM     25  C   LIG A   1      -9.004   2.136 123.608  0.00  0.00    +0.004 C 
ATOM     26  C   LIG A   1     -10.130   1.404 124.319  0.00  0.00    -0.003 C 
ENDBRANCH  24  26
ENDBRANCH  23  24
ENDBRANCH  22  23
ENDBRANCH  21  22
ENDBRANCH  20  21
ENDBRANCH  19  20
ENDBRANCH  18  19
ENDBRANCH  17  18
ENDBRANCH  16  17
ENDBRANCH  15  16
ENDBRANCH   1  15
TORSDOF 16
ENDMDL
MODEL 9
REMARK VINA RESULT:      -5.6      2.434      5.998
REMARK  Name = NuBBE_1680
REMARK  18 active torsions:
REMARK  status: ('A' for Active; 'I' for Inactive)
REMARK    1  A    between atoms: C_1  and  C_2
REMARK    2  A    between atoms: C_2  and  C_3
REMARK    3  A    between atoms: C_3  and  C_4
REMARK    4  A    between atoms: C_4  and  C_5
REMARK    5  A    between atoms: C_5  and  C_6
REMARK    6  A    between atoms: C_6  and  C_7
REMARK    7  A    between atoms: C_7  and  C_8
REMARK    8  A    between atoms: C_8  and  C_9
REMARK    9  A    between atoms: C_9  and  C_10
REMARK   10  A    between atoms: C_10  and  C_11
REMARK   11  A    between atoms: C_11  and  C_12
REMARK   12  A    between atoms: C_12  and  C_13
REMARK   13  A    between atoms: C_13  and  C_14
REMARK   14  A    between atoms: C_14  and  C_15
REMARK   15  A    between atoms: C_15  and  C_16
REMARK   16  A    between atoms: C_18  and  O_19
REMARK   17  A    between atoms: C_20  and  C_21
REMARK   18  A    between atoms: C_22  and  O_23
REMARK                            x       y       z     vdW  Elec       q    Type
REMARK                         _______ _______ _______ _____ _____    ______ ____
ROOT
ATOM      1  C   LIG A   1      -9.392  -2.863 125.940  0.00  0.00    +0.000 C 
ENDROOT
BRANCH   1   2
ATOM      2  C   LIG A   1      -8.467  -3.658 126.886  0.00  0.00    +0.005 C 
BRANCH   2   3
ATOM      3  C   LIG A   1      -8.509  -3.291 128.393  0.00  0.00    +0.035 C 
BRANCH   3   4
ATOM      4  C   LIG A   1      -7.481  -2.308 128.897  0.00  0.00    -0.041 A 
ATOM      5  C   LIG A   1      -7.794  -1.019 129.303  0.00  0.00    +0.049 A 
ATOM      6  C   LIG A   1      -6.782  -0.109 129.637  0.00  0.00    +0.123 A 
ATOM      7  C   LIG A   1      -5.412  -0.451 129.535  0.00  0.00    +0.032 A 
ATOM      8  C   LIG A   1      -4.357   0.572 129.830  0.00  0.00    +0.051 C 
ATOM      9  C   LIG A   1      -5.123  -1.764 129.204  0.00  0.00    +0.123 A 
ATOM     10  C   LIG A   1      -6.116  -2.696 128.922  0.00  0.00    +0.049 A 
BRANCH   9  11
ATOM     11  O   LIG A   1      -3.836  -2.233 129.092  0.00  0.00    -0.506 OA
ATOM     12  H   LIG A   1      -3.385  -1.714 128.426  0.00  0.00    +0.292 HD
ENDBRANCH   9  11
BRANCH   6  13
ATOM     13  O   LIG A   1      -7.087   1.146 130.064  0.00  0.00    -0.506 OA
ATOM     14  H   LIG A   1      -7.355   1.091 131.003  0.00  0.00    +0.292 HD
ENDBRANCH   6  13
ENDBRANCH   3   4
ENDBRANCH   2   3
ENDBRANCH   1   2
BRANCH   1  15
ATOM     15  C   LIG A   1      -9.195  -3.216 124.471  0.00  0.00    +0.000 C 
BRANCH  15  16
ATOM     16  C   LIG A   1      -9.079  -2.038 123.518  0.00  0.00    -0.000 C 
BRANCH  16  17
ATOM     17  C   LIG A   1      -7.700  -2.087 122.826  0.00  0.00    -0.000 C 
BRANCH  17  18
ATOM     18  C   LIG A   1      -6.633  -2.869 123.605  0.00  0.00    -0.000 C 
BRANCH  18  19
ATOM     19  C   LIG A   1      -5.560  -1.904 124.130  0.00  0.00    -0.000 C 
BRANCH  19  20
ATOM     20  C   LIG A   1      -5.629  -1.533 125.609  0.00  0.00    -0.000 C 
BRANCH  20  21
ATOM     21  C   LIG A   1      -6.542  -0.311 125.880  0.00  0.00    -0.000 C 
BRANCH  21  22
ATOM     22  C   LIG A   1      -5.870   1.076 125.796  0.00  0.00    -0.000 C 
BRANCH  22  23
ATOM     23  C   LIG A   1      -6.542   2.058 124.812  0.00  0.00    -0.000 C 
BRANCH  23  24
ATOM     24  C   LIG A   1      -7.413   1.409 123.732  0.00  0.00    -0.000 C 
BRANCH  24  26
ATOM     25  C   LIG A   1      -9.938   1.519 124.259  0.00  0.00    +0.004 C 
ATOM     26  C   LIG A   1      -8.774   2.043 123.433  0.00  0.00    -0.003 C 
ENDBRANCH  24  26
ENDBRANCH  23  24
ENDBRANCH  22  23
ENDBRANCH  21  22
ENDBRANCH  20  21
ENDBRANCH  19  20
ENDBRANCH  18  19
ENDBRANCH  17  18
ENDBRANCH  16  17
ENDBRANCH  15  16
ENDBRANCH   1  15
TORSDOF 16
ENDMDL
