MODEL 1
REMARK VINA RESULT:      -8.0      0.000      0.000
REMARK  Name = NuBBE_2197
REMARK  5 active torsions:
REMARK  status: ('A' for Active; 'I' for Inactive)
REMARK    1  A    between atoms: C_1  and  C_2
REMARK    2  A    between atoms: C_10  and  C_11
REMARK    3  A    between atoms: C_10  and  C_13
REMARK    4  A    between atoms: C_17  and  C_18
REMARK    5  A    between atoms: C_17  and  C_19
REMARK                            x       y       z     vdW  Elec       q    Type
REMARK                         _______ _______ _______ _____ _____    ______ ____
ROOT
ATOM      1  C   LIG A   1      -7.793  -0.347 126.849  0.00  0.00    +0.016 C 
ATOM      2  C   LIG A   1      -7.077  -1.582 126.235  0.00  0.00    -0.003 C 
ATOM      3  C   LIG A   1      -8.011  -2.551 125.416  0.00  0.00    +0.012 C 
ATOM      4  C   LIG A   1      -9.262  -2.891 126.232  0.00  0.00    +0.084 C 
ATOM      5  C   LIG A   1      -8.874  -3.461 127.584  0.00  0.00    +0.160 C 
ATOM      6  C   LIG A   1      -7.473  -3.270 128.083  0.00  0.00    -0.000 C 
ATOM      7  C   LIG A   1      -6.622  -2.416 127.460  0.00  0.00    -0.035 C 
ATOM      8  C   LIG A   1      -5.278  -2.276 128.005  0.00  0.00    +0.001 C 
ATOM      9  C   LIG A   1      -4.957  -2.702 129.237  0.00  0.00    -0.016 C 
ATOM     10  C   LIG A   1      -5.944  -3.400 130.156  0.00  0.00    +0.008 C 
ATOM     11  C   LIG A   1      -6.536  -2.323 131.091  0.00  0.00    +0.020 C 
ATOM     12  C   LIG A   1      -7.091  -4.047 129.323  0.00  0.00    +0.053 C 
ATOM     13  O   LIG A   1      -9.701  -4.063 128.266  0.00  0.00    -0.292 OA
ATOM     14  C   LIG A   1      -8.243  -2.172 123.917  0.00  0.00    -0.031 C 
ATOM     15  C   LIG A   1      -9.086  -3.259 123.206  0.00  0.00    +0.011 C 
ATOM     16  C   LIG A   1      -8.999  -0.844 123.730  0.00  0.00    +0.011 C 
ATOM     17  C   LIG A   1      -6.863  -2.101 123.191  0.00  0.00    +0.007 C 
ATOM     18  C   LIG A   1      -5.658  -1.948 124.124  0.00  0.00    +0.001 C 
ATOM     19  C   LIG A   1      -5.973  -1.021 125.287  0.00  0.00    +0.012 C 
ENDROOT
BRANCH  10  20
ATOM     20  C   LIG A   1      -5.213  -4.514 130.901  0.00  0.00    -0.024 C 
ATOM     21  C   LIG A   1      -5.381  -4.906 132.173  0.00  0.00    +0.005 C 
ENDBRANCH  10  20
TORSDOF 1
ENDMDL
MODEL 2
REMARK VINA RESULT:      -7.6      1.957      6.285
REMARK  Name = NuBBE_2197
REMARK  5 active torsions:
REMARK  status: ('A' for Active; 'I' for Inactive)
REMARK    1  A    between atoms: C_1  and  C_2
REMARK    2  A    between atoms: C_10  and  C_11
REMARK    3  A    between atoms: C_10  and  C_13
REMARK    4  A    between atoms: C_17  and  C_18
REMARK    5  A    between atoms: C_17  and  C_19
REMARK                            x       y       z     vdW  Elec       q    Type
REMARK                         _______ _______ _______ _____ _____    ______ ____
ROOT
ATOM      1  C   LIG A   1      -7.762  -0.811 130.131  0.00  0.00    +0.016 C 
ATOM      2  C   LIG A   1      -6.970  -2.117 129.844  0.00  0.00    -0.003 C 
ATOM      3  C   LIG A   1      -5.403  -1.947 129.805  0.00  0.00    +0.012 C 
ATOM      4  C   LIG A   1      -5.024  -0.770 128.902  0.00  0.00    +0.084 C 
ATOM      5  C   LIG A   1      -5.624  -0.946 127.520  0.00  0.00    +0.160 C 
ATOM      6  C   LIG A   1      -6.738  -1.932 127.327  0.00  0.00    -0.000 C 
ATOM      7  C   LIG A   1      -7.360  -2.497 128.393  0.00  0.00    -0.035 C 
ATOM      8  C   LIG A   1      -8.437  -3.441 128.129  0.00  0.00    +0.001 C 
ATOM      9  C   LIG A   1      -9.029  -3.536 126.928  0.00  0.00    -0.016 C 
ATOM     10  C   LIG A   1      -8.609  -2.704 125.729  0.00  0.00    +0.008 C 
ATOM     11  C   LIG A   1      -9.546  -1.477 125.676  0.00  0.00    +0.020 C 
ATOM     12  C   LIG A   1      -7.137  -2.221 125.898  0.00  0.00    +0.053 C 
ATOM     13  O   LIG A   1      -5.210  -0.282 126.572  0.00  0.00    -0.292 OA
ATOM     14  C   LIG A   1      -4.672  -2.027 131.185  0.00  0.00    -0.031 C 
ATOM     15  C   LIG A   1      -3.138  -1.953 130.993  0.00  0.00    +0.011 C 
ATOM     16  C   LIG A   1      -5.045  -0.882 132.144  0.00  0.00    +0.011 C 
ATOM     17  C   LIG A   1      -4.994  -3.400 131.853  0.00  0.00    +0.007 C 
ATOM     18  C   LIG A   1      -6.234  -4.107 131.294  0.00  0.00    +0.001 C 
ATOM     19  C   LIG A   1      -7.343  -3.115 130.982  0.00  0.00    +0.012 C 
ENDROOT
BRANCH  10  20
ATOM     20  C   LIG A   1      -8.682  -3.577 124.479  0.00  0.00    -0.024 C 
ATOM     21  C   LIG A   1      -9.410  -3.375 123.372  0.00  0.00    +0.005 C 
ENDBRANCH  10  20
TORSDOF 1
ENDMDL
MODEL 3
REMARK VINA RESULT:      -7.6      2.280      3.459
REMARK  Name = NuBBE_2197
REMARK  5 active torsions:
REMARK  status: ('A' for Active; 'I' for Inactive)
REMARK    1  A    between atoms: C_1  and  C_2
REMARK    2  A    between atoms: C_10  and  C_11
REMARK    3  A    between atoms: C_10  and  C_13
REMARK    4  A    between atoms: C_17  and  C_18
REMARK    5  A    between atoms: C_17  and  C_19
REMARK                            x       y       z     vdW  Elec       q    Type
REMARK                         _______ _______ _______ _____ _____    ______ ____
ROOT
ATOM      1  C   LIG A   1      -5.932  -2.211 125.561  0.00  0.00    +0.016 C 
ATOM      2  C   LIG A   1      -7.478  -2.214 125.717  0.00  0.00    -0.003 C 
ATOM      3  C   LIG A   1      -8.234  -1.130 124.858  0.00  0.00    +0.012 C 
ATOM      4  C   LIG A   1      -7.585   0.243 125.054  0.00  0.00    +0.084 C 
ATOM      5  C   LIG A   1      -7.535   0.600 126.528  0.00  0.00    +0.160 C 
ATOM      6  C   LIG A   1      -7.728  -0.481 127.549  0.00  0.00    -0.000 C 
ATOM      7  C   LIG A   1      -7.722  -1.789 127.188  0.00  0.00    -0.035 C 
ATOM      8  C   LIG A   1      -7.909  -2.785 128.235  0.00  0.00    +0.001 C 
ATOM      9  C   LIG A   1      -7.778  -2.489 129.537  0.00  0.00    -0.016 C 
ATOM     10  C   LIG A   1      -7.466  -1.091 130.041  0.00  0.00    +0.008 C 
ATOM     11  C   LIG A   1      -5.938  -1.016 130.256  0.00  0.00    +0.020 C 
ATOM     12  C   LIG A   1      -7.889  -0.029 128.983  0.00  0.00    +0.053 C 
ATOM     13  O   LIG A   1      -7.329   1.760 126.881  0.00  0.00    -0.292 OA
ATOM     14  C   LIG A   1      -8.567  -1.535 123.384  0.00  0.00    -0.031 C 
ATOM     15  C   LIG A   1      -9.399  -0.429 122.691  0.00  0.00    +0.011 C 
ATOM     16  C   LIG A   1      -7.318  -1.752 122.511  0.00  0.00    +0.011 C 
ATOM     17  C   LIG A   1      -9.434  -2.833 123.398  0.00  0.00    +0.007 C 
ATOM     18  C   LIG A   1      -9.366  -3.633 124.703  0.00  0.00    +0.001 C 
ATOM     19  C   LIG A   1      -7.960  -3.632 125.280  0.00  0.00    +0.012 C 
ENDROOT
BRANCH  10  20
ATOM     20  C   LIG A   1      -8.269  -0.839 131.314  0.00  0.00    -0.024 C 
ATOM     21  C   LIG A   1      -9.012   0.233 131.625  0.00  0.00    +0.005 C 
ENDBRANCH  10  20
TORSDOF 1
ENDMDL
MODEL 4
REMARK VINA RESULT:      -7.4      3.363      5.029
REMARK  Name = NuBBE_2197
REMARK  5 active torsions:
REMARK  status: ('A' for Active; 'I' for Inactive)
REMARK    1  A    between atoms: C_1  and  C_2
REMARK    2  A    between atoms: C_10  and  C_11
REMARK    3  A    between atoms: C_10  and  C_13
REMARK    4  A    between atoms: C_17  and  C_18
REMARK    5  A    between atoms: C_17  and  C_19
REMARK                            x       y       z     vdW  Elec       q    Type
REMARK                         _______ _______ _______ _____ _____    ______ ____
ROOT
ATOM      1  C   LIG A   1      -5.825  -0.929 128.607  0.00  0.00    +0.016 C 
ATOM      2  C   LIG A   1      -7.322  -1.318 128.758  0.00  0.00    -0.003 C 
ATOM      3  C   LIG A   1      -8.195  -1.115 127.462  0.00  0.00    +0.012 C 
ATOM      4  C   LIG A   1      -7.964   0.286 126.886  0.00  0.00    +0.084 C 
ATOM      5  C   LIG A   1      -8.233   1.343 127.941  0.00  0.00    +0.160 C 
ATOM      6  C   LIG A   1      -8.289   0.939 129.384  0.00  0.00    -0.000 C 
ATOM      7  C   LIG A   1      -7.887  -0.296 129.777  0.00  0.00    -0.035 C 
ATOM      8  C   LIG A   1      -7.965  -0.616 131.196  0.00  0.00    +0.001 C 
ATOM      9  C   LIG A   1      -8.115   0.330 132.137  0.00  0.00    -0.016 C 
ATOM     10  C   LIG A   1      -8.258   1.806 131.812  0.00  0.00    +0.008 C 
ATOM     11  C   LIG A   1      -6.853   2.437 131.936  0.00  0.00    +0.020 C 
ATOM     12  C   LIG A   1      -8.779   1.990 130.355  0.00  0.00    +0.053 C 
ATOM     13  O   LIG A   1      -8.392   2.519 127.616  0.00  0.00    -0.292 OA
ATOM     14  C   LIG A   1      -8.183  -2.296 126.438  0.00  0.00    -0.031 C 
ATOM     15  C   LIG A   1      -9.160  -2.013 125.270  0.00  0.00    +0.011 C 
ATOM     16  C   LIG A   1      -6.804  -2.542 125.800  0.00  0.00    +0.011 C 
ATOM     17  C   LIG A   1      -8.673  -3.594 127.153  0.00  0.00    +0.007 C 
ATOM     18  C   LIG A   1      -8.598  -3.548 128.683  0.00  0.00    +0.001 C 
ATOM     19  C   LIG A   1      -7.345  -2.826 129.153  0.00  0.00    +0.012 C 
ENDROOT
BRANCH  10  20
ATOM     20  C   LIG A   1      -9.283   2.418 132.763  0.00  0.00    -0.024 C 
ATOM     21  C   LIG A   1      -9.121   3.457 133.596  0.00  0.00    +0.005 C 
ENDBRANCH  10  20
TORSDOF 1
ENDMDL
MODEL 5
REMARK VINA RESULT:      -7.4      3.465      5.684
REMARK  Name = NuBBE_2197
REMARK  5 active torsions:
REMARK  status: ('A' for Active; 'I' for Inactive)
REMARK    1  A    between atoms: C_1  and  C_2
REMARK    2  A    between atoms: C_10  and  C_11
REMARK    3  A    between atoms: C_10  and  C_13
REMARK    4  A    between atoms: C_17  and  C_18
REMARK    5  A    between atoms: C_17  and  C_19
REMARK                            x       y       z     vdW  Elec       q    Type
REMARK                         _______ _______ _______ _____ _____    ______ ____
ROOT
ATOM      1  C   LIG A   1      -7.472   1.305 126.992  0.00  0.00    +0.016 C 
ATOM      2  C   LIG A   1      -6.155   1.332 126.167  0.00  0.00    -0.003 C 
ATOM      3  C   LIG A   1      -6.154   2.337 124.953  0.00  0.00    +0.012 C 
ATOM      4  C   LIG A   1      -7.419   2.147 124.111  0.00  0.00    +0.084 C 
ATOM      5  C   LIG A   1      -7.551   0.701 123.670  0.00  0.00    +0.160 C 
ATOM      6  C   LIG A   1      -6.743  -0.352 124.367  0.00  0.00    -0.000 C 
ATOM      7  C   LIG A   1      -6.077  -0.072 125.515  0.00  0.00    -0.035 C 
ATOM      8  C   LIG A   1      -5.317  -1.147 126.140  0.00  0.00    +0.001 C 
ATOM      9  C   LIG A   1      -5.497  -2.436 125.812  0.00  0.00    -0.016 C 
ATOM     10  C   LIG A   1      -6.471  -2.890 124.739  0.00  0.00    +0.008 C 
ATOM     11  C   LIG A   1      -7.785  -3.277 125.452  0.00  0.00    +0.020 C 
ATOM     12  C   LIG A   1      -6.751  -1.728 123.739  0.00  0.00    +0.053 C 
ATOM     13  O   LIG A   1      -8.319   0.396 122.759  0.00  0.00    -0.292 OA
ATOM     14  C   LIG A   1      -5.757   3.812 125.286  0.00  0.00    -0.031 C 
ATOM     15  C   LIG A   1      -5.691   4.662 123.994  0.00  0.00    +0.011 C 
ATOM     16  C   LIG A   1      -6.754   4.519 126.221  0.00  0.00    +0.011 C 
ATOM     17  C   LIG A   1      -4.333   3.823 125.926  0.00  0.00    +0.007 C 
ATOM     18  C   LIG A   1      -3.876   2.474 126.490  0.00  0.00    +0.001 C 
ATOM     19  C   LIG A   1      -5.024   1.737 127.161  0.00  0.00    +0.012 C 
ENDROOT
BRANCH  10  20
ATOM     20  C   LIG A   1      -5.840  -4.042 123.962  0.00  0.00    -0.024 C 
ATOM     21  C   LIG A   1      -4.538  -4.287 123.758  0.00  0.00    +0.005 C 
ENDBRANCH  10  20
TORSDOF 1
ENDMDL
MODEL 6
REMARK VINA RESULT:      -7.2      2.010      5.720
REMARK  Name = NuBBE_2197
REMARK  5 active torsions:
REMARK  status: ('A' for Active; 'I' for Inactive)
REMARK    1  A    between atoms: C_1  and  C_2
REMARK    2  A    between atoms: C_10  and  C_11
REMARK    3  A    between atoms: C_10  and  C_13
REMARK    4  A    between atoms: C_17  and  C_18
REMARK    5  A    between atoms: C_17  and  C_19
REMARK                            x       y       z     vdW  Elec       q    Type
REMARK                         _______ _______ _______ _____ _____    ______ ____
ROOT
ATOM      1  C   LIG A   1      -5.360  -1.004 128.498  0.00  0.00    +0.016 C 
ATOM      2  C   LIG A   1      -6.748  -0.342 128.274  0.00  0.00    -0.003 C 
ATOM      3  C   LIG A   1      -7.823  -0.665 129.379  0.00  0.00    +0.012 C 
ATOM      4  C   LIG A   1      -7.880  -2.174 129.634  0.00  0.00    +0.084 C 
ATOM      5  C   LIG A   1      -8.136  -2.921 128.339  0.00  0.00    +0.160 C 
ATOM      6  C   LIG A   1      -7.920  -2.215 127.033  0.00  0.00    -0.000 C 
ATOM      7  C   LIG A   1      -7.294  -1.013 126.987  0.00  0.00    -0.035 C 
ATOM      8  C   LIG A   1      -7.113  -0.389 125.682  0.00  0.00    +0.001 C 
ATOM      9  C   LIG A   1      -7.254  -1.073 124.536  0.00  0.00    -0.016 C 
ATOM     10  C   LIG A   1      -7.650  -2.538 124.489  0.00  0.00    +0.008 C 
ATOM     11  C   LIG A   1      -6.345  -3.359 124.381  0.00  0.00    +0.020 C 
ATOM     12  C   LIG A   1      -8.402  -2.936 125.794  0.00  0.00    +0.053 C 
ATOM     13  O   LIG A   1      -8.505  -4.094 128.359  0.00  0.00    -0.292 OA
ATOM     14  C   LIG A   1      -7.798   0.252 130.646  0.00  0.00    -0.031 C 
ATOM     15  C   LIG A   1      -8.968  -0.102 131.597  0.00  0.00    +0.011 C 
ATOM     16  C   LIG A   1      -6.508   0.118 131.475  0.00  0.00    +0.011 C 
ATOM     17  C   LIG A   1      -7.989   1.737 130.203  0.00  0.00    +0.007 C 
ATOM     18  C   LIG A   1      -7.694   2.004 128.723  0.00  0.00    +0.001 C 
ATOM     19  C   LIG A   1      -6.499   1.197 128.242  0.00  0.00    +0.012 C 
ENDROOT
BRANCH  10  20
ATOM     20  C   LIG A   1      -8.598  -2.750 123.311  0.00  0.00    -0.024 C 
ATOM     21  C   LIG A   1      -9.777  -3.388 123.304  0.00  0.00    +0.005 C 
ENDBRANCH  10  20
TORSDOF 1
ENDMDL
MODEL 7
REMARK VINA RESULT:      -6.9      3.042      5.156
REMARK  Name = NuBBE_2197
REMARK  5 active torsions:
REMARK  status: ('A' for Active; 'I' for Inactive)
REMARK    1  A    between atoms: C_1  and  C_2
REMARK    2  A    between atoms: C_10  and  C_11
REMARK    3  A    between atoms: C_10  and  C_13
REMARK    4  A    between atoms: C_17  and  C_18
REMARK    5  A    between atoms: C_17  and  C_19
REMARK                            x       y       z     vdW  Elec       q    Type
REMARK                         _______ _______ _______ _____ _____    ______ ____
ROOT
ATOM      1  C   LIG A   1      -8.909   0.263 126.243  0.00  0.00    +0.016 C 
ATOM      2  C   LIG A   1      -7.859  -0.092 125.153  0.00  0.00    -0.003 C 
ATOM      3  C   LIG A   1      -7.261  -1.546 125.257  0.00  0.00    +0.012 C 
ATOM      4  C   LIG A   1      -6.799  -1.825 126.690  0.00  0.00    +0.084 C 
ATOM      5  C   LIG A   1      -5.820  -0.759 127.148  0.00  0.00    +0.160 C 
ATOM      6  C   LIG A   1      -5.735   0.530 126.388  0.00  0.00    -0.000 C 
ATOM      7  C   LIG A   1      -6.661   0.847 125.448  0.00  0.00    -0.035 C 
ATOM      8  C   LIG A   1      -6.518   2.120 124.754  0.00  0.00    +0.001 C 
ATOM      9  C   LIG A   1      -5.718   3.098 125.208  0.00  0.00    -0.016 C 
ATOM     10  C   LIG A   1      -4.862   2.956 126.454  0.00  0.00    +0.008 C 
ATOM     11  C   LIG A   1      -5.657   3.577 127.624  0.00  0.00    +0.020 C 
ATOM     12  C   LIG A   1      -4.593   1.452 126.755  0.00  0.00    +0.053 C 
ATOM     13  O   LIG A   1      -5.113  -0.947 128.136  0.00  0.00    -0.292 OA
ATOM     14  C   LIG A   1      -8.089  -2.677 124.563  0.00  0.00    -0.031 C 
ATOM     15  C   LIG A   1      -7.339  -4.029 124.647  0.00  0.00    +0.011 C 
ATOM     16  C   LIG A   1      -9.470  -2.906 125.202  0.00  0.00    +0.011 C 
ATOM     17  C   LIG A   1      -8.258  -2.329 123.051  0.00  0.00    +0.007 C 
ATOM     18  C   LIG A   1      -8.023  -0.854 122.705  0.00  0.00    +0.001 C 
ATOM     19  C   LIG A   1      -8.583   0.062 123.781  0.00  0.00    +0.012 C 
ENDROOT
BRANCH  10  20
ATOM     20  C   LIG A   1      -3.520   3.638 126.205  0.00  0.00    -0.024 C 
ATOM     21  C   LIG A   1      -2.293   3.175 126.486  0.00  0.00    +0.005 C 
ENDBRANCH  10  20
TORSDOF 1
ENDMDL
MODEL 8
REMARK VINA RESULT:      -6.9      9.767     11.844
REMARK  Name = NuBBE_2197
REMARK  5 active torsions:
REMARK  status: ('A' for Active; 'I' for Inactive)
REMARK    1  A    between atoms: C_1  and  C_2
REMARK    2  A    between atoms: C_10  and  C_11
REMARK    3  A    between atoms: C_10  and  C_13
REMARK    4  A    between atoms: C_17  and  C_18
REMARK    5  A    between atoms: C_17  and  C_19
REMARK                            x       y       z     vdW  Elec       q    Type
REMARK                         _______ _______ _______ _____ _____    ______ ____
ROOT
ATOM      1  C   LIG A   1      -4.877   4.145 132.231  0.00  0.00    +0.016 C 
ATOM      2  C   LIG A   1      -5.467   5.384 132.960  0.00  0.00    -0.003 C 
ATOM      3  C   LIG A   1      -6.628   6.118 132.186  0.00  0.00    +0.012 C 
ATOM      4  C   LIG A   1      -6.211   6.380 130.736  0.00  0.00    +0.084 C 
ATOM      5  C   LIG A   1      -4.904   7.151 130.692  0.00  0.00    +0.160 C 
ATOM      6  C   LIG A   1      -4.047   7.208 131.921  0.00  0.00    -0.000 C 
ATOM      7  C   LIG A   1      -4.304   6.409 132.987  0.00  0.00    -0.035 C 
ATOM      8  C   LIG A   1      -3.425   6.515 134.144  0.00  0.00    +0.001 C 
ATOM      9  C   LIG A   1      -2.229   7.120 134.082  0.00  0.00    -0.016 C 
ATOM     10  C   LIG A   1      -1.700   7.783 132.822  0.00  0.00    +0.008 C 
ATOM     11  C   LIG A   1      -0.795   6.752 132.112  0.00  0.00    +0.020 C 
ATOM     12  C   LIG A   1      -2.880   8.168 131.880  0.00  0.00    +0.053 C 
ATOM     13  O   LIG A   1      -4.548   7.712 129.657  0.00  0.00    -0.292 OA
ATOM     14  C   LIG A   1      -8.065   5.539 132.401  0.00  0.00    -0.031 C 
ATOM     15  C   LIG A   1      -9.116   6.413 131.675  0.00  0.00    +0.011 C 
ATOM     16  C   LIG A   1      -8.238   4.110 131.857  0.00  0.00    +0.011 C 
ATOM     17  C   LIG A   1      -8.403   5.570 133.924  0.00  0.00    +0.007 C 
ATOM     18  C   LIG A   1      -7.185   5.689 134.846  0.00  0.00    +0.001 C 
ATOM     19  C   LIG A   1      -6.015   4.870 134.326  0.00  0.00    +0.012 C 
ENDROOT
BRANCH  10  20
ATOM     20  C   LIG A   1      -0.968   9.063 133.214  0.00  0.00    -0.024 C 
ATOM     21  C   LIG A   1      -1.448  10.315 133.244  0.00  0.00    +0.005 C 
ENDBRANCH  10  20
TORSDOF 1
ENDMDL
MODEL 9
REMARK VINA RESULT:      -6.9      4.860      6.796
REMARK  Name = NuBBE_2197
REMARK  5 active torsions:
REMARK  status: ('A' for Active; 'I' for Inactive)
REMARK    1  A    between atoms: C_1  and  C_2
REMARK    2  A    between atoms: C_10  and  C_11
REMARK    3  A    between atoms: C_10  and  C_13
REMARK    4  A    between atoms: C_17  and  C_18
REMARK    5  A    between atoms: C_17  and  C_19
REMARK                            x       y       z     vdW  Elec       q    Type
REMARK                         _______ _______ _______ _____ _____    ______ ____
ROOT
ATOM      1  C   LIG A   1      -5.305   0.130 125.398  0.00  0.00    +0.016 C 
ATOM      2  C   LIG A   1      -6.221   1.087 126.210  0.00  0.00    -0.003 C 
ATOM      3  C   LIG A   1      -7.314   1.840 125.360  0.00  0.00    +0.012 C 
ATOM      4  C   LIG A   1      -6.673   2.481 124.126  0.00  0.00    +0.084 C 
ATOM      5  C   LIG A   1      -5.527   3.388 124.534  0.00  0.00    +0.160 C 
ATOM      6  C   LIG A   1      -4.946   3.257 125.910  0.00  0.00    -0.000 C 
ATOM      7  C   LIG A   1      -5.270   2.207 126.706  0.00  0.00    -0.035 C 
ATOM      8  C   LIG A   1      -4.662   2.142 128.028  0.00  0.00    +0.001 C 
ATOM      9  C   LIG A   1      -3.593   2.882 128.362  0.00  0.00    -0.016 C 
ATOM     10  C   LIG A   1      -2.946   3.877 127.416  0.00  0.00    +0.008 C 
ATOM     11  C   LIG A   1      -1.763   3.154 126.734  0.00  0.00    +0.020 C 
ATOM     12  C   LIG A   1      -3.967   4.331 126.330  0.00  0.00    +0.053 C 
ATOM     13  O   LIG A   1      -5.074   4.213 123.743  0.00  0.00    -0.292 OA
ATOM     14  C   LIG A   1      -8.650   1.063 125.122  0.00  0.00    -0.031 C 
ATOM     15  C   LIG A   1      -9.670   1.952 124.371  0.00  0.00    +0.011 C 
ATOM     16  C   LIG A   1      -8.477  -0.211 124.275  0.00  0.00    +0.011 C 
ATOM     17  C   LIG A   1      -9.278   0.697 126.504  0.00  0.00    +0.007 C 
ATOM     18  C   LIG A   1      -8.298   0.739 127.682  0.00  0.00    +0.001 C 
ATOM     19  C   LIG A   1      -6.931   0.208 127.284  0.00  0.00    +0.012 C 
ENDROOT
BRANCH  10  20
ATOM     20  C   LIG A   1      -2.524   5.108 128.214  0.00  0.00    -0.024 C 
ATOM     21  C   LIG A   1      -3.050   6.340 128.173  0.00  0.00    +0.005 C 
ENDBRANCH  10  20
TORSDOF 1
ENDMDL
