MODEL 1
REMARK VINA RESULT:      -7.8      0.000      0.000
REMARK  Name = NuBBE_623
REMARK  5 active torsions:
REMARK  status: ('A' for Active; 'I' for Inactive)
REMARK    1  A    between atoms: C_1  and  C_2
REMARK    2  A    between atoms: C_2  and  C_3
REMARK    3  A    between atoms: C_2  and  C_5
REMARK    4  A    between atoms: C_2  and  C_6
REMARK    5  A    between atoms: C_11  and  O_12
REMARK                            x       y       z     vdW  Elec       q    Type
REMARK                         _______ _______ _______ _____ _____    ______ ____
ROOT
ATOM      1  C   LIG A   1     -11.150   7.353 130.054  0.00  0.00    +0.047 A 
ATOM      2  C   LIG A   1      -9.804   7.299 129.972  0.00  0.00    +0.023 A 
ATOM      3  C   LIG A   1      -8.976   6.777 131.048  0.00  0.00    +0.018 A 
ATOM      4  C   LIG A   1      -7.579   6.773 130.987  0.00  0.00    +0.015 A 
ATOM      5  C   LIG A   1      -6.830   6.232 132.040  0.00  0.00    +0.046 A 
ATOM      6  C   LIG A   1      -7.485   5.691 133.143  0.00  0.00    +0.120 A 
ATOM      7  C   LIG A   1      -8.872   5.692 133.219  0.00  0.00    +0.092 A 
ATOM      8  C   LIG A   1      -9.598   6.246 132.168  0.00  0.00    +0.142 A 
ATOM      9  O   LIG A   1     -10.995   6.268 132.277  0.00  0.00    -0.422 OA
ATOM     10  C   LIG A   1     -11.806   6.855 131.310  0.00  0.00    +0.341 A 
ATOM     11  O   LIG A   1     -13.012   6.934 131.501  0.00  0.00    -0.245 OA
ENDROOT
BRANCH   1  13
ATOM     12  C   LIG A   1     -13.127   6.814 128.552  0.00  0.00    +0.020 C 
ATOM     13  C   LIG A   1     -12.072   7.884 128.924  0.00  0.00    +0.015 C 
ATOM     14  C   LIG A   1     -12.812   9.171 129.359  0.00  0.00    +0.020 C 
BRANCH  13  15
ATOM     15  C   LIG A   1     -11.260   8.306 127.681  0.00  0.00    -0.023 C 
ATOM     16  C   LIG A   1     -11.082   7.638 126.532  0.00  0.00    +0.005 C 
ENDBRANCH  13  15
ENDBRANCH   1  13
BRANCH   6  17
ATOM     17  O   LIG A   1      -6.793   5.146 134.184  0.00  0.00    -0.507 OA
ATOM     18  H   LIG A   1      -5.931   5.587 134.255  0.00  0.00    +0.292 HD
ENDBRANCH   6  17
TORSDOF 3
ENDMDL
MODEL 2
REMARK VINA RESULT:      -7.1      1.840      2.511
REMARK  Name = NuBBE_623
REMARK  5 active torsions:
REMARK  status: ('A' for Active; 'I' for Inactive)
REMARK    1  A    between atoms: C_1  and  C_2
REMARK    2  A    between atoms: C_2  and  C_3
REMARK    3  A    between atoms: C_2  and  C_5
REMARK    4  A    between atoms: C_2  and  C_6
REMARK    5  A    between atoms: C_11  and  O_12
REMARK                            x       y       z     vdW  Elec       q    Type
REMARK                         _______ _______ _______ _____ _____    ______ ____
ROOT
ATOM      1  C   LIG A   1     -10.999   7.236 130.351  0.00  0.00    +0.047 A 
ATOM      2  C   LIG A   1     -10.681   6.575 131.483  0.00  0.00    +0.023 A 
ATOM      3  C   LIG A   1      -9.306   6.312 131.874  0.00  0.00    +0.018 A 
ATOM      4  C   LIG A   1      -8.976   5.578 133.018  0.00  0.00    +0.015 A 
ATOM      5  C   LIG A   1      -7.634   5.379 133.365  0.00  0.00    +0.046 A 
ATOM      6  C   LIG A   1      -6.630   5.923 132.568  0.00  0.00    +0.120 A 
ATOM      7  C   LIG A   1      -6.942   6.650 131.427  0.00  0.00    +0.092 A 
ATOM      8  C   LIG A   1      -8.282   6.826 131.093  0.00  0.00    +0.142 A 
ATOM      9  O   LIG A   1      -8.577   7.535 129.920  0.00  0.00    -0.422 OA
ATOM     10  C   LIG A   1      -9.881   7.711 129.467  0.00  0.00    +0.341 A 
ATOM     11  O   LIG A   1     -10.078   8.252 128.387  0.00  0.00    -0.245 OA
ENDROOT
BRANCH   1  13
ATOM     12  C   LIG A   1     -12.918   6.530 128.842  0.00  0.00    +0.020 C 
ATOM     13  C   LIG A   1     -12.452   7.554 129.905  0.00  0.00    +0.015 C 
ATOM     14  C   LIG A   1     -13.433   7.500 131.100  0.00  0.00    +0.020 C 
BRANCH  13  15
ATOM     15  C   LIG A   1     -12.578   8.996 129.367  0.00  0.00    -0.023 C 
ATOM     16  C   LIG A   1     -13.162  10.056 129.944  0.00  0.00    +0.005 C 
ENDBRANCH  13  15
ENDBRANCH   1  13
BRANCH   6  17
ATOM     17  O   LIG A   1      -5.311   5.759 132.876  0.00  0.00    -0.507 OA
ATOM     18  H   LIG A   1      -5.103   6.292 133.661  0.00  0.00    +0.292 HD
ENDBRANCH   6  17
TORSDOF 3
ENDMDL
MODEL 3
REMARK VINA RESULT:      -6.6      1.889      6.174
REMARK  Name = NuBBE_623
REMARK  5 active torsions:
REMARK  status: ('A' for Active; 'I' for Inactive)
REMARK    1  A    between atoms: C_1  and  C_2
REMARK    2  A    between atoms: C_2  and  C_3
REMARK    3  A    between atoms: C_2  and  C_5
REMARK    4  A    between atoms: C_2  and  C_6
REMARK    5  A    between atoms: C_11  and  O_12
REMARK                            x       y       z     vdW  Elec       q    Type
REMARK                         _______ _______ _______ _____ _____    ______ ____
ROOT
ATOM      1  C   LIG A   1      -8.704   5.692 132.349  0.00  0.00    +0.047 A 
ATOM      2  C   LIG A   1     -10.040   5.790 132.185  0.00  0.00    +0.023 A 
ATOM      3  C   LIG A   1     -10.641   6.615 131.150  0.00  0.00    +0.018 A 
ATOM      4  C   LIG A   1     -12.026   6.763 131.016  0.00  0.00    +0.015 A 
ATOM      5  C   LIG A   1     -12.553   7.547 129.982  0.00  0.00    +0.046 A 
ATOM      6  C   LIG A   1     -11.692   8.173 129.085  0.00  0.00    +0.120 A 
ATOM      7  C   LIG A   1     -10.315   8.039 129.209  0.00  0.00    +0.092 A 
ATOM      8  C   LIG A   1      -9.811   7.265 130.250  0.00  0.00    +0.142 A 
ATOM      9  O   LIG A   1      -8.418   7.169 130.379  0.00  0.00    -0.422 OA
ATOM     10  C   LIG A   1      -7.815   6.472 131.422  0.00  0.00    +0.341 A 
ATOM     11  O   LIG A   1      -6.598   6.501 131.545  0.00  0.00    -0.245 OA
ENDROOT
BRANCH   1  13
ATOM     12  C   LIG A   1      -9.052   3.843 134.056  0.00  0.00    +0.020 C 
ATOM     13  C   LIG A   1      -8.020   4.810 133.428  0.00  0.00    +0.015 C 
ATOM     14  C   LIG A   1      -6.868   3.973 132.823  0.00  0.00    +0.020 C 
BRANCH  13  15
ATOM     15  C   LIG A   1      -7.342   5.668 134.517  0.00  0.00    -0.023 C 
ATOM     16  C   LIG A   1      -7.607   5.715 135.831  0.00  0.00    +0.005 C 
ENDBRANCH  13  15
ENDBRANCH   1  13
BRANCH   6  17
ATOM     17  O   LIG A   1     -12.166   8.937 128.060  0.00  0.00    -0.507 OA
ATOM     18  H   LIG A   1     -12.011   9.873 128.267  0.00  0.00    +0.292 HD
ENDBRANCH   6  17
TORSDOF 3
ENDMDL
MODEL 4
REMARK VINA RESULT:      -6.5      2.660      5.926
REMARK  Name = NuBBE_623
REMARK  5 active torsions:
REMARK  status: ('A' for Active; 'I' for Inactive)
REMARK    1  A    between atoms: C_1  and  C_2
REMARK    2  A    between atoms: C_2  and  C_3
REMARK    3  A    between atoms: C_2  and  C_5
REMARK    4  A    between atoms: C_2  and  C_6
REMARK    5  A    between atoms: C_11  and  O_12
REMARK                            x       y       z     vdW  Elec       q    Type
REMARK                         _______ _______ _______ _____ _____    ______ ____
ROOT
ATOM      1  C   LIG A   1      -9.539   4.803 130.541  0.00  0.00    +0.047 A 
ATOM      2  C   LIG A   1     -10.627   5.377 131.094  0.00  0.00    +0.023 A 
ATOM      3  C   LIG A   1     -11.251   6.567 130.538  0.00  0.00    +0.018 A 
ATOM      4  C   LIG A   1     -12.344   7.196 131.143  0.00  0.00    +0.015 A 
ATOM      5  C   LIG A   1     -12.926   8.323 130.548  0.00  0.00    +0.046 A 
ATOM      6  C   LIG A   1     -12.414   8.809 129.348  0.00  0.00    +0.120 A 
ATOM      7  C   LIG A   1     -11.326   8.197 128.738  0.00  0.00    +0.092 A 
ATOM      8  C   LIG A   1     -10.755   7.086 129.351  0.00  0.00    +0.142 A 
ATOM      9  O   LIG A   1      -9.637   6.502 128.739  0.00  0.00    -0.422 OA
ATOM     10  C   LIG A   1      -8.957   5.428 129.305  0.00  0.00    +0.341 A 
ATOM     11  O   LIG A   1      -7.931   5.018 128.780  0.00  0.00    -0.245 OA
ENDROOT
BRANCH   1  13
ATOM     12  C   LIG A   1      -8.962   2.377 130.058  0.00  0.00    +0.020 C 
ATOM     13  C   LIG A   1      -8.853   3.524 131.091  0.00  0.00    +0.015 C 
ATOM     14  C   LIG A   1      -7.356   3.773 131.392  0.00  0.00    +0.020 C 
BRANCH  13  15
ATOM     15  C   LIG A   1      -9.453   3.096 132.447  0.00  0.00    -0.023 C 
ATOM     16  C   LIG A   1      -9.003   3.361 133.682  0.00  0.00    +0.005 C 
ENDBRANCH  13  15
ENDBRANCH   1  13
BRANCH   6  17
ATOM     17  O   LIG A   1     -12.957   9.898 128.732  0.00  0.00    -0.507 OA
ATOM     18  H   LIG A   1     -13.439   9.606 127.942  0.00  0.00    +0.292 HD
ENDBRANCH   6  17
TORSDOF 3
ENDMDL
MODEL 5
REMARK VINA RESULT:      -6.4      9.645     10.865
REMARK  Name = NuBBE_623
REMARK  5 active torsions:
REMARK  status: ('A' for Active; 'I' for Inactive)
REMARK    1  A    between atoms: C_1  and  C_2
REMARK    2  A    between atoms: C_2  and  C_3
REMARK    3  A    between atoms: C_2  and  C_5
REMARK    4  A    between atoms: C_2  and  C_6
REMARK    5  A    between atoms: C_11  and  O_12
REMARK                            x       y       z     vdW  Elec       q    Type
REMARK                         _______ _______ _______ _____ _____    ______ ____
ROOT
ATOM      1  C   LIG A   1      -8.157  -1.324 124.373  0.00  0.00    +0.047 A 
ATOM      2  C   LIG A   1      -8.490  -0.301 125.188  0.00  0.00    +0.023 A 
ATOM      3  C   LIG A   1      -7.999   1.053 124.983  0.00  0.00    +0.018 A 
ATOM      4  C   LIG A   1      -8.298   2.101 125.859  0.00  0.00    +0.015 A 
ATOM      5  C   LIG A   1      -7.823   3.393 125.599  0.00  0.00    +0.046 A 
ATOM      6  C   LIG A   1      -7.058   3.628 124.459  0.00  0.00    +0.120 A 
ATOM      7  C   LIG A   1      -6.750   2.596 123.582  0.00  0.00    +0.092 A 
ATOM      8  C   LIG A   1      -7.221   1.317 123.866  0.00  0.00    +0.142 A 
ATOM      9  O   LIG A   1      -6.873   0.281 122.988  0.00  0.00    -0.422 OA
ATOM     10  C   LIG A   1      -7.241  -1.042 123.216  0.00  0.00    +0.341 A 
ATOM     11  O   LIG A   1      -6.829  -1.921 122.472  0.00  0.00    -0.245 OA
ENDROOT
BRANCH   1  13
ATOM     12  C   LIG A   1      -9.578  -3.164 123.351  0.00  0.00    +0.020 C 
ATOM     13  C   LIG A   1      -8.672  -2.778 124.544  0.00  0.00    +0.015 C 
ATOM     14  C   LIG A   1      -7.500  -3.786 124.615  0.00  0.00    +0.020 C 
BRANCH  13  15
ATOM     15  C   LIG A   1      -9.420  -2.962 125.881  0.00  0.00    -0.023 C 
ATOM     16  C   LIG A   1      -8.998  -3.569 127.000  0.00  0.00    +0.005 C 
ENDBRANCH  13  15
ENDBRANCH   1  13
BRANCH   6  17
ATOM     17  O   LIG A   1      -6.585   4.873 124.165  0.00  0.00    -0.507 OA
ATOM     18  H   LIG A   1      -6.168   5.247 124.958  0.00  0.00    +0.292 HD
ENDBRANCH   6  17
TORSDOF 3
ENDMDL
MODEL 6
REMARK VINA RESULT:      -6.3      2.176      6.243
REMARK  Name = NuBBE_623
REMARK  5 active torsions:
REMARK  status: ('A' for Active; 'I' for Inactive)
REMARK    1  A    between atoms: C_1  and  C_2
REMARK    2  A    between atoms: C_2  and  C_3
REMARK    3  A    between atoms: C_2  and  C_5
REMARK    4  A    between atoms: C_2  and  C_6
REMARK    5  A    between atoms: C_11  and  O_12
REMARK                            x       y       z     vdW  Elec       q    Type
REMARK                         _______ _______ _______ _____ _____    ______ ____
ROOT
ATOM      1  C   LIG A   1      -5.619   6.499 131.782  0.00  0.00    +0.047 A 
ATOM      2  C   LIG A   1      -6.583   6.997 130.981  0.00  0.00    +0.023 A 
ATOM      3  C   LIG A   1      -7.997   6.742 131.209  0.00  0.00    +0.018 A 
ATOM      4  C   LIG A   1      -8.994   7.211 130.347  0.00  0.00    +0.015 A 
ATOM      5  C   LIG A   1     -10.343   6.961 130.629  0.00  0.00    +0.046 A 
ATOM      6  C   LIG A   1     -10.685   6.249 131.776  0.00  0.00    +0.120 A 
ATOM      7  C   LIG A   1      -9.706   5.773 132.638  0.00  0.00    +0.092 A 
ATOM      8  C   LIG A   1      -8.371   6.022 132.333  0.00  0.00    +0.142 A 
ATOM      9  O   LIG A   1      -7.395   5.506 133.197  0.00  0.00    -0.422 OA
ATOM     10  C   LIG A   1      -6.033   5.646 132.947  0.00  0.00    +0.341 A 
ATOM     11  O   LIG A   1      -5.224   5.093 133.680  0.00  0.00    -0.245 OA
ENDROOT
BRANCH   1  13
ATOM     12  C   LIG A   1      -3.883   7.809 130.469  0.00  0.00    +0.020 C 
ATOM     13  C   LIG A   1      -4.101   6.761 131.587  0.00  0.00    +0.015 C 
ATOM     14  C   LIG A   1      -3.450   7.289 132.887  0.00  0.00    +0.020 C 
BRANCH  13  15
ATOM     15  C   LIG A   1      -3.336   5.458 131.272  0.00  0.00    -0.023 C 
ATOM     16  C   LIG A   1      -3.362   4.722 130.152  0.00  0.00    +0.005 C 
ENDBRANCH  13  15
ENDBRANCH   1  13
BRANCH   6  17
ATOM     17  O   LIG A   1     -11.987   5.992 132.090  0.00  0.00    -0.507 OA
ATOM     18  H   LIG A   1     -12.375   5.432 131.399  0.00  0.00    +0.292 HD
ENDBRANCH   6  17
TORSDOF 3
ENDMDL
MODEL 7
REMARK VINA RESULT:      -6.2      9.795     11.372
REMARK  Name = NuBBE_623
REMARK  5 active torsions:
REMARK  status: ('A' for Active; 'I' for Inactive)
REMARK    1  A    between atoms: C_1  and  C_2
REMARK    2  A    between atoms: C_2  and  C_3
REMARK    3  A    between atoms: C_2  and  C_5
REMARK    4  A    between atoms: C_2  and  C_6
REMARK    5  A    between atoms: C_11  and  O_12
REMARK                            x       y       z     vdW  Elec       q    Type
REMARK                         _______ _______ _______ _____ _____    ______ ____
ROOT
ATOM      1  C   LIG A   1      -7.809  -1.453 124.639  0.00  0.00    +0.047 A 
ATOM      2  C   LIG A   1      -7.070  -0.326 124.575  0.00  0.00    +0.023 A 
ATOM      3  C   LIG A   1      -7.466   0.824 123.777  0.00  0.00    +0.018 A 
ATOM      4  C   LIG A   1      -6.672   1.970 123.665  0.00  0.00    +0.015 A 
ATOM      5  C   LIG A   1      -7.115   3.061 122.907  0.00  0.00    +0.046 A 
ATOM      6  C   LIG A   1      -8.353   3.001 122.272  0.00  0.00    +0.120 A 
ATOM      7  C   LIG A   1      -9.150   1.867 122.371  0.00  0.00    +0.092 A 
ATOM      8  C   LIG A   1      -8.686   0.789 123.119  0.00  0.00    +0.142 A 
ATOM      9  O   LIG A   1      -9.488  -0.359 123.181  0.00  0.00    -0.422 OA
ATOM     10  C   LIG A   1      -9.086  -1.511 123.850  0.00  0.00    +0.341 A 
ATOM     11  O   LIG A   1      -9.779  -2.517 123.791  0.00  0.00    -0.245 OA
ENDROOT
BRANCH   1  13
ATOM     12  C   LIG A   1      -7.126  -3.899 124.568  0.00  0.00    +0.020 C 
ATOM     13  C   LIG A   1      -7.433  -2.695 125.491  0.00  0.00    +0.015 C 
ATOM     14  C   LIG A   1      -6.190  -2.421 126.369  0.00  0.00    +0.020 C 
BRANCH  13  15
ATOM     15  C   LIG A   1      -8.547  -3.049 126.499  0.00  0.00    -0.023 C 
ATOM     16  C   LIG A   1      -8.432  -3.362 127.798  0.00  0.00    +0.005 C 
ENDBRANCH  13  15
ENDBRANCH   1  13
BRANCH   6  17
ATOM     17  O   LIG A   1      -8.824   4.045 121.532  0.00  0.00    -0.507 OA
ATOM     18  H   LIG A   1      -9.677   3.795 121.141  0.00  0.00    +0.292 HD
ENDBRANCH   6  17
TORSDOF 3
ENDMDL
MODEL 8
REMARK VINA RESULT:      -6.1      1.503      5.867
REMARK  Name = NuBBE_623
REMARK  5 active torsions:
REMARK  status: ('A' for Active; 'I' for Inactive)
REMARK    1  A    between atoms: C_1  and  C_2
REMARK    2  A    between atoms: C_2  and  C_3
REMARK    3  A    between atoms: C_2  and  C_5
REMARK    4  A    between atoms: C_2  and  C_6
REMARK    5  A    between atoms: C_11  and  O_12
REMARK                            x       y       z     vdW  Elec       q    Type
REMARK                         _______ _______ _______ _____ _____    ______ ____
ROOT
ATOM      1  C   LIG A   1      -7.057   6.115 131.996  0.00  0.00    +0.047 A 
ATOM      2  C   LIG A   1      -7.713   6.761 131.010  0.00  0.00    +0.023 A 
ATOM      3  C   LIG A   1      -9.165   6.833 130.954  0.00  0.00    +0.018 A 
ATOM      4  C   LIG A   1      -9.846   7.452 129.901  0.00  0.00    +0.015 A 
ATOM      5  C   LIG A   1     -11.245   7.519 129.912  0.00  0.00    +0.046 A 
ATOM      6  C   LIG A   1     -11.952   6.971 130.979  0.00  0.00    +0.120 A 
ATOM      7  C   LIG A   1     -11.289   6.349 132.029  0.00  0.00    +0.092 A 
ATOM      8  C   LIG A   1      -9.899   6.283 131.993  0.00  0.00    +0.142 A 
ATOM      9  O   LIG A   1      -9.248   5.622 133.045  0.00  0.00    -0.422 OA
ATOM     10  C   LIG A   1      -7.867   5.448 133.070  0.00  0.00    +0.341 A 
ATOM     11  O   LIG A   1      -7.360   4.779 133.960  0.00  0.00    -0.245 OA
ENDROOT
BRANCH   1  13
ATOM     12  C   LIG A   1      -5.067   6.268 133.568  0.00  0.00    +0.020 C 
ATOM     13  C   LIG A   1      -5.511   6.030 132.105  0.00  0.00    +0.015 C 
ATOM     14  C   LIG A   1      -4.990   4.644 131.655  0.00  0.00    +0.020 C 
BRANCH  13  15
ATOM     15  C   LIG A   1      -4.819   7.030 131.154  0.00  0.00    -0.023 C 
ATOM     16  C   LIG A   1      -3.549   7.460 131.173  0.00  0.00    +0.005 C 
ENDBRANCH  13  15
ENDBRANCH   1  13
BRANCH   6  17
ATOM     17  O   LIG A   1     -13.314   7.024 131.031  0.00  0.00    -0.507 OA
ATOM     18  H   LIG A   1     -13.608   6.735 131.910  0.00  0.00    +0.292 HD
ENDBRANCH   6  17
TORSDOF 3
ENDMDL
MODEL 9
REMARK VINA RESULT:      -6.1      9.087     10.191
REMARK  Name = NuBBE_623
REMARK  5 active torsions:
REMARK  status: ('A' for Active; 'I' for Inactive)
REMARK    1  A    between atoms: C_1  and  C_2
REMARK    2  A    between atoms: C_2  and  C_3
REMARK    3  A    between atoms: C_2  and  C_5
REMARK    4  A    between atoms: C_2  and  C_6
REMARK    5  A    between atoms: C_11  and  O_12
REMARK                            x       y       z     vdW  Elec       q    Type
REMARK                         _______ _______ _______ _____ _____    ______ ____
ROOT
ATOM      1  C   LIG A   1      -7.820  -0.500 124.368  0.00  0.00    +0.047 A 
ATOM      2  C   LIG A   1      -6.766   0.162 124.888  0.00  0.00    +0.023 A 
ATOM      3  C   LIG A   1      -6.693   1.615 124.917  0.00  0.00    +0.018 A 
ATOM      4  C   LIG A   1      -5.576   2.302 125.403  0.00  0.00    +0.015 A 
ATOM      5  C   LIG A   1      -5.570   3.702 125.435  0.00  0.00    +0.046 A 
ATOM      6  C   LIG A   1      -6.685   4.405 124.987  0.00  0.00    +0.120 A 
ATOM      7  C   LIG A   1      -7.799   3.736 124.497  0.00  0.00    +0.092 A 
ATOM      8  C   LIG A   1      -7.780   2.345 124.463  0.00  0.00    +0.142 A 
ATOM      9  O   LIG A   1      -8.900   1.688 123.934  0.00  0.00    -0.422 OA
ATOM     10  C   LIG A   1      -8.953   0.304 123.798  0.00  0.00    +0.341 A 
ATOM     11  O   LIG A   1      -9.913  -0.212 123.241  0.00  0.00    -0.245 OA
ENDROOT
BRANCH   1  13
ATOM     12  C   LIG A   1      -9.021  -2.514 125.345  0.00  0.00    +0.020 C 
ATOM     13  C   LIG A   1      -7.947  -2.047 124.333  0.00  0.00    +0.015 C 
ATOM     14  C   LIG A   1      -8.349  -2.547 122.926  0.00  0.00    +0.020 C 
BRANCH  13  15
ATOM     15  C   LIG A   1      -6.594  -2.734 124.617  0.00  0.00    -0.023 C 
ATOM     16  C   LIG A   1      -5.627  -3.065 123.749  0.00  0.00    +0.005 C 
ENDBRANCH  13  15
ENDBRANCH   1  13
BRANCH   6  17
ATOM     17  O   LIG A   1      -6.722   5.768 125.010  0.00  0.00    -0.507 OA
ATOM     18  H   LIG A   1      -5.940   6.113 124.549  0.00  0.00    +0.292 HD
ENDBRANCH   6  17
TORSDOF 3
ENDMDL
