MODEL 1
REMARK VINA RESULT:      -6.8      0.000      0.000
REMARK  Name = NuBBE_664
REMARK  9 active torsions:
REMARK  status: ('A' for Active; 'I' for Inactive)
REMARK    1  A    between atoms: C_6  and  C_7
REMARK    2  A    between atoms: C_9  and  O_11
REMARK    3  A    between atoms: O_11  and  C_12
REMARK    4  A    between atoms: C_12  and  C_13
REMARK    5  A    between atoms: C_13  and  C_14
REMARK    6  A    between atoms: C_15  and  C_16
REMARK    7  A    between atoms: C_20  and  O_22
REMARK    8  A    between atoms: C_24  and  C_25
REMARK    9  A    between atoms: C_25  and  O_26
REMARK                            x       y       z     vdW  Elec       q    Type
REMARK                         _______ _______ _______ _____ _____    ______ ____
ROOT
ATOM      1  O   LIG A   1     -11.033   0.475 122.559  0.00  0.00    -0.294 OA
ATOM      2  C   LIG A   1      -9.913   0.843 122.888  0.00  0.00    +0.168 C 
ATOM      3  C   LIG A   1      -9.331   2.185 122.535  0.00  0.00    +0.117 C 
ATOM      4  C   LIG A   1      -8.232   2.190 123.589  0.00  0.00    +0.109 C 
ATOM      5  O   LIG A   1      -7.742   0.836 123.518  0.00  0.00    -0.354 OA
ATOM      6  C   LIG A   1      -8.925   0.027 123.722  0.00  0.00    +0.129 C 
ATOM      7  C   LIG A   1      -8.709  -1.361 123.157  0.00  0.00    +0.050 C 
ATOM      8  C   LIG A   1      -9.287   0.044 125.219  0.00  0.00    +0.087 C 
ATOM      9  C   LIG A   1      -8.683   1.274 125.933  0.00  0.00    +0.189 C 
ATOM     10  C   LIG A   1      -8.816   2.499 125.009  0.00  0.00    +0.099 C 
ATOM     11  C   LIG A   1      -8.086   3.759 125.487  0.00  0.00    +0.147 C 
ATOM     12  C   LIG A   1      -7.033   3.996 124.466  0.00  0.00    +0.009 C 
ATOM     13  C   LIG A   1      -7.098   3.150 123.427  0.00  0.00    -0.014 C 
ENDROOT
BRANCH  11  14
ATOM     14  O   LIG A   1      -8.958   4.879 125.426  0.00  0.00    -0.387 OA
ATOM     15  H   LIG A   1      -9.853   4.549 125.242  0.00  0.00    +0.210 HD
ENDBRANCH  11  14
BRANCH   9  16
ATOM     16  O   LIG A   1      -7.290   1.029 126.222  0.00  0.00    -0.458 OA
BRANCH  16  17
ATOM     17  C   LIG A   1      -6.995   0.108 127.175  0.00  0.00    +0.335 C 
ATOM     18  O   LIG A   1      -7.161   0.262 128.382  0.00  0.00    -0.245 OA
BRANCH  17  19
ATOM     19  C   LIG A   1      -6.455  -1.120 126.521  0.00  0.00    +0.029 C 
ATOM     20  C   LIG A   1      -5.282  -0.930 125.602  0.00  0.00    +0.051 C 
ATOM     21  C   LIG A   1      -6.967  -2.353 126.741  0.00  0.00    -0.020 C 
ATOM     22  C   LIG A   1      -8.148  -2.738 127.572  0.00  0.00    +0.035 C 
ENDBRANCH  17  19
ENDBRANCH  16  17
ENDBRANCH   9  16
BRANCH  13  23
ATOM     23  C   LIG A   1      -6.180   3.162 122.253  0.00  0.00    +0.189 C 
BRANCH  23  24
ATOM     24  O   LIG A   1      -5.935   4.488 121.812  0.00  0.00    -0.391 OA
ATOM     25  H   LIG A   1      -6.615   5.061 122.216  0.00  0.00    +0.210 HD
ENDBRANCH  23  24
ENDBRANCH  13  23
TORSDOF 6
ENDMDL
MODEL 2
REMARK VINA RESULT:      -6.7      2.501      5.156
REMARK  Name = NuBBE_664
REMARK  9 active torsions:
REMARK  status: ('A' for Active; 'I' for Inactive)
REMARK    1  A    between atoms: C_6  and  C_7
REMARK    2  A    between atoms: C_9  and  O_11
REMARK    3  A    between atoms: O_11  and  C_12
REMARK    4  A    between atoms: C_12  and  C_13
REMARK    5  A    between atoms: C_13  and  C_14
REMARK    6  A    between atoms: C_15  and  C_16
REMARK    7  A    between atoms: C_20  and  O_22
REMARK    8  A    between atoms: C_24  and  C_25
REMARK    9  A    between atoms: C_25  and  O_26
REMARK                            x       y       z     vdW  Elec       q    Type
REMARK                         _______ _______ _______ _____ _____    ______ ____
ROOT
ATOM      1  O   LIG A   1      -7.245   1.902 124.195  0.00  0.00    -0.294 OA
ATOM      2  C   LIG A   1      -7.454   0.743 124.530  0.00  0.00    +0.168 C 
ATOM      3  C   LIG A   1      -7.602  -0.399 123.562  0.00  0.00    +0.117 C 
ATOM      4  C   LIG A   1      -7.347  -1.520 124.560  0.00  0.00    +0.109 C 
ATOM      5  O   LIG A   1      -8.099  -1.076 125.708  0.00  0.00    -0.354 OA
ATOM      6  C   LIG A   1      -7.579   0.249 125.972  0.00  0.00    +0.129 C 
ATOM      7  C   LIG A   1      -8.588   1.052 126.766  0.00  0.00    +0.050 C 
ATOM      8  C   LIG A   1      -6.205   0.118 126.655  0.00  0.00    +0.087 C 
ATOM      9  C   LIG A   1      -5.561  -1.257 126.371  0.00  0.00    +0.189 C 
ATOM     10  C   LIG A   1      -5.822  -1.633 124.901  0.00  0.00    +0.099 C 
ATOM     11  C   LIG A   1      -5.421  -3.059 124.510  0.00  0.00    +0.147 C 
ATOM     12  C   LIG A   1      -6.700  -3.732 124.166  0.00  0.00    +0.009 C 
ATOM     13  C   LIG A   1      -7.758  -2.908 124.189  0.00  0.00    -0.014 C 
ENDROOT
BRANCH  11  14
ATOM     14  O   LIG A   1      -4.648  -3.039 123.317  0.00  0.00    -0.387 OA
ATOM     15  H   LIG A   1      -5.135  -2.517 122.658  0.00  0.00    +0.210 HD
ENDBRANCH  11  14
BRANCH   9  16
ATOM     16  O   LIG A   1      -6.143  -2.252 127.241  0.00  0.00    -0.458 OA
BRANCH  16  17
ATOM     17  C   LIG A   1      -6.030  -2.064 128.580  0.00  0.00    +0.335 C 
ATOM     18  O   LIG A   1      -4.974  -1.889 129.182  0.00  0.00    -0.245 OA
BRANCH  17  19
ATOM     19  C   LIG A   1      -7.389  -2.089 129.196  0.00  0.00    +0.029 C 
ATOM     20  C   LIG A   1      -8.206  -3.328 128.969  0.00  0.00    +0.051 C 
ATOM     21  C   LIG A   1      -7.875  -1.068 129.939  0.00  0.00    -0.020 C 
ATOM     22  C   LIG A   1      -7.242   0.253 130.237  0.00  0.00    +0.035 C 
ENDBRANCH  17  19
ENDBRANCH  16  17
ENDBRANCH   9  16
BRANCH  13  23
ATOM     23  C   LIG A   1      -9.161  -3.304 123.875  0.00  0.00    +0.189 C 
BRANCH  23  24
ATOM     24  O   LIG A   1     -10.026  -3.011 124.960  0.00  0.00    -0.391 OA
ATOM     25  H   LIG A   1     -10.884  -2.733 124.584  0.00  0.00    +0.210 HD
ENDBRANCH  23  24
ENDBRANCH  13  23
TORSDOF 6
ENDMDL
MODEL 3
REMARK VINA RESULT:      -6.6      2.928      4.097
REMARK  Name = NuBBE_664
REMARK  9 active torsions:
REMARK  status: ('A' for Active; 'I' for Inactive)
REMARK    1  A    between atoms: C_6  and  C_7
REMARK    2  A    between atoms: C_9  and  O_11
REMARK    3  A    between atoms: O_11  and  C_12
REMARK    4  A    between atoms: C_12  and  C_13
REMARK    5  A    between atoms: C_13  and  C_14
REMARK    6  A    between atoms: C_15  and  C_16
REMARK    7  A    between atoms: C_20  and  O_22
REMARK    8  A    between atoms: C_24  and  C_25
REMARK    9  A    between atoms: C_25  and  O_26
REMARK                            x       y       z     vdW  Elec       q    Type
REMARK                         _______ _______ _______ _____ _____    ______ ____
ROOT
ATOM      1  O   LIG A   1      -6.647  -2.167 121.896  0.00  0.00    -0.294 OA
ATOM      2  C   LIG A   1      -6.522  -1.710 123.026  0.00  0.00    +0.168 C 
ATOM      3  C   LIG A   1      -6.847  -0.289 123.400  0.00  0.00    +0.117 C 
ATOM      4  C   LIG A   1      -6.953  -0.516 124.901  0.00  0.00    +0.109 C 
ATOM      5  O   LIG A   1      -5.832  -1.386 125.154  0.00  0.00    -0.354 OA
ATOM      6  C   LIG A   1      -6.042  -2.494 124.247  0.00  0.00    +0.129 C 
ATOM      7  C   LIG A   1      -4.732  -3.209 123.989  0.00  0.00    +0.050 C 
ATOM      8  C   LIG A   1      -7.148  -3.402 124.818  0.00  0.00    +0.087 C 
ATOM      9  C   LIG A   1      -8.046  -2.638 125.817  0.00  0.00    +0.189 C 
ATOM     10  C   LIG A   1      -8.302  -1.221 125.270  0.00  0.00    +0.099 C 
ATOM     11  C   LIG A   1      -9.012  -0.267 126.237  0.00  0.00    +0.147 C 
ATOM     12  C   LIG A   1      -8.013   0.795 126.522  0.00  0.00    +0.009 C 
ATOM     13  C   LIG A   1      -6.886   0.674 125.804  0.00  0.00    -0.014 C 
ENDROOT
BRANCH  11  14
ATOM     14  O   LIG A   1     -10.097   0.373 125.580  0.00  0.00    -0.387 OA
ATOM     15  H   LIG A   1     -10.624   0.832 126.256  0.00  0.00    +0.210 HD
ENDBRANCH  11  14
BRANCH   9  16
ATOM     16  O   LIG A   1      -7.383  -2.556 127.097  0.00  0.00    -0.458 OA
BRANCH  16  17
ATOM     17  C   LIG A   1      -8.032  -3.061 128.177  0.00  0.00    +0.335 C 
ATOM     18  O   LIG A   1      -8.909  -3.920 128.137  0.00  0.00    -0.245 OA
BRANCH  17  19
ATOM     19  C   LIG A   1      -7.500  -2.418 129.414  0.00  0.00    +0.029 C 
ATOM     20  C   LIG A   1      -7.937  -1.005 129.678  0.00  0.00    +0.051 C 
ATOM     21  C   LIG A   1      -6.678  -3.059 130.277  0.00  0.00    -0.020 C 
ATOM     22  C   LIG A   1      -6.098  -4.432 130.168  0.00  0.00    +0.035 C 
ENDBRANCH  17  19
ENDBRANCH  16  17
ENDBRANCH   9  16
BRANCH  13  23
ATOM     23  C   LIG A   1      -5.721   1.601 125.874  0.00  0.00    +0.189 C 
BRANCH  23  24
ATOM     24  O   LIG A   1      -4.552   0.916 126.292  0.00  0.00    -0.391 OA
ATOM     25  H   LIG A   1      -4.396   0.188 125.661  0.00  0.00    +0.210 HD
ENDBRANCH  23  24
ENDBRANCH  13  23
TORSDOF 6
ENDMDL
MODEL 4
REMARK VINA RESULT:      -6.6      1.934      5.623
REMARK  Name = NuBBE_664
REMARK  9 active torsions:
REMARK  status: ('A' for Active; 'I' for Inactive)
REMARK    1  A    between atoms: C_6  and  C_7
REMARK    2  A    between atoms: C_9  and  O_11
REMARK    3  A    between atoms: O_11  and  C_12
REMARK    4  A    between atoms: C_12  and  C_13
REMARK    5  A    between atoms: C_13  and  C_14
REMARK    6  A    between atoms: C_15  and  C_16
REMARK    7  A    between atoms: C_20  and  O_22
REMARK    8  A    between atoms: C_24  and  C_25
REMARK    9  A    between atoms: C_25  and  O_26
REMARK                            x       y       z     vdW  Elec       q    Type
REMARK                         _______ _______ _______ _____ _____    ______ ____
ROOT
ATOM      1  O   LIG A   1      -7.380  -0.690 128.175  0.00  0.00    -0.294 OA
ATOM      2  C   LIG A   1      -7.009  -0.697 127.009  0.00  0.00    +0.168 C 
ATOM      3  C   LIG A   1      -7.063  -1.908 126.116  0.00  0.00    +0.117 C 
ATOM      4  C   LIG A   1      -6.954  -1.163 124.792  0.00  0.00    +0.109 C 
ATOM      5  O   LIG A   1      -5.941  -0.179 125.084  0.00  0.00    -0.354 OA
ATOM      6  C   LIG A   1      -6.452   0.509 126.251  0.00  0.00    +0.129 C 
ATOM      7  C   LIG A   1      -5.317   1.178 126.997  0.00  0.00    +0.050 C 
ATOM      8  C   LIG A   1      -7.568   1.475 125.812  0.00  0.00    +0.087 C 
ATOM      9  C   LIG A   1      -8.174   1.058 124.452  0.00  0.00    +0.189 C 
ATOM     10  C   LIG A   1      -8.311  -0.475 124.420  0.00  0.00    +0.099 C 
ATOM     11  C   LIG A   1      -8.711  -1.066 123.064  0.00  0.00    +0.147 C 
ATOM     12  C   LIG A   1      -7.538  -1.875 122.643  0.00  0.00    +0.009 C 
ATOM     13  C   LIG A   1      -6.572  -1.937 123.572  0.00  0.00    -0.014 C 
ENDROOT
BRANCH  11  14
ATOM     14  O   LIG A   1      -9.786  -1.981 123.229  0.00  0.00    -0.387 OA
ATOM     15  H   LIG A   1     -10.471  -1.540 123.760  0.00  0.00    +0.210 HD
ENDBRANCH  11  14
BRANCH   9  16
ATOM     16  O   LIG A   1      -7.306   1.494 123.383  0.00  0.00    -0.458 OA
BRANCH  16  17
ATOM     17  C   LIG A   1      -7.558   2.703 122.819  0.00  0.00    +0.335 C 
ATOM     18  O   LIG A   1      -8.674   3.187 122.653  0.00  0.00    -0.245 OA
BRANCH  17  19
ATOM     19  C   LIG A   1      -6.264   3.351 122.451  0.00  0.00    +0.029 C 
ATOM     20  C   LIG A   1      -5.707   3.017 121.097  0.00  0.00    +0.051 C 
ATOM     21  C   LIG A   1      -5.617   4.211 123.271  0.00  0.00    -0.020 C 
ATOM     22  C   LIG A   1      -5.979   4.628 124.660  0.00  0.00    +0.035 C 
ENDBRANCH  17  19
ENDBRANCH  16  17
ENDBRANCH   9  16
BRANCH  13  23
ATOM     23  C   LIG A   1      -5.292  -2.687 123.429  0.00  0.00    +0.189 C 
BRANCH  23  24
ATOM     24  O   LIG A   1      -5.423  -4.013 123.913  0.00  0.00    -0.391 OA
ATOM     25  H   LIG A   1      -5.114  -4.615 123.210  0.00  0.00    +0.210 HD
ENDBRANCH  23  24
ENDBRANCH  13  23
TORSDOF 6
ENDMDL
MODEL 5
REMARK VINA RESULT:      -6.5      1.736      4.239
REMARK  Name = NuBBE_664
REMARK  9 active torsions:
REMARK  status: ('A' for Active; 'I' for Inactive)
REMARK    1  A    between atoms: C_6  and  C_7
REMARK    2  A    between atoms: C_9  and  O_11
REMARK    3  A    between atoms: O_11  and  C_12
REMARK    4  A    between atoms: C_12  and  C_13
REMARK    5  A    between atoms: C_13  and  C_14
REMARK    6  A    between atoms: C_15  and  C_16
REMARK    7  A    between atoms: C_20  and  O_22
REMARK    8  A    between atoms: C_24  and  C_25
REMARK    9  A    between atoms: C_25  and  O_26
REMARK                            x       y       z     vdW  Elec       q    Type
REMARK                         _______ _______ _______ _____ _____    ______ ____
ROOT
ATOM      1  O   LIG A   1      -5.627   3.481 124.160  0.00  0.00    -0.294 OA
ATOM      2  C   LIG A   1      -6.473   2.603 124.272  0.00  0.00    +0.168 C 
ATOM      3  C   LIG A   1      -7.160   1.944 123.106  0.00  0.00    +0.117 C 
ATOM      4  C   LIG A   1      -7.651   0.714 123.857  0.00  0.00    +0.109 C 
ATOM      5  O   LIG A   1      -8.112   1.284 125.099  0.00  0.00    -0.354 OA
ATOM      6  C   LIG A   1      -6.962   2.011 125.593  0.00  0.00    +0.129 C 
ATOM      7  C   LIG A   1      -7.405   3.080 126.570  0.00  0.00    +0.050 C 
ATOM      8  C   LIG A   1      -5.952   1.007 126.180  0.00  0.00    +0.087 C 
ATOM      9  C   LIG A   1      -6.169  -0.412 125.608  0.00  0.00    +0.189 C 
ATOM     10  C   LIG A   1      -6.482  -0.298 124.105  0.00  0.00    +0.099 C 
ATOM     11  C   LIG A   1      -6.919  -1.602 123.428  0.00  0.00    +0.147 C 
ATOM     12  C   LIG A   1      -8.325  -1.360 123.013  0.00  0.00    +0.009 C 
ATOM     13  C   LIG A   1      -8.739  -0.105 123.240  0.00  0.00    -0.014 C 
ENDROOT
BRANCH  11  14
ATOM     14  O   LIG A   1      -6.179  -1.801 122.231  0.00  0.00    -0.387 OA
ATOM     15  H   LIG A   1      -5.242  -1.638 122.431  0.00  0.00    +0.210 HD
ENDBRANCH  11  14
BRANCH   9  16
ATOM     16  O   LIG A   1      -7.272  -1.046 126.291  0.00  0.00    -0.458 OA
BRANCH  16  17
ATOM     17  C   LIG A   1      -6.997  -2.125 127.069  0.00  0.00    +0.335 C 
ATOM     18  O   LIG A   1      -5.886  -2.423 127.496  0.00  0.00    -0.245 OA
BRANCH  17  19
ATOM     19  C   LIG A   1      -8.261  -2.875 127.329  0.00  0.00    +0.029 C 
ATOM     20  C   LIG A   1      -9.174  -3.081 126.155  0.00  0.00    +0.051 C 
ATOM     21  C   LIG A   1      -8.581  -3.368 128.548  0.00  0.00    -0.020 C 
ATOM     22  C   LIG A   1      -7.836  -3.228 129.836  0.00  0.00    +0.035 C 
ENDBRANCH  17  19
ENDBRANCH  16  17
ENDBRANCH   9  16
BRANCH  13  23
ATOM     23  C   LIG A   1     -10.095   0.423 122.913  0.00  0.00    +0.189 C 
BRANCH  23  24
ATOM     24  O   LIG A   1     -10.707   0.993 124.058  0.00  0.00    -0.391 OA
ATOM     25  H   LIG A   1     -11.131   0.268 124.556  0.00  0.00    +0.210 HD
ENDBRANCH  23  24
ENDBRANCH  13  23
TORSDOF 6
ENDMDL
MODEL 6
REMARK VINA RESULT:      -6.4      1.362      2.265
REMARK  Name = NuBBE_664
REMARK  9 active torsions:
REMARK  status: ('A' for Active; 'I' for Inactive)
REMARK    1  A    between atoms: C_6  and  C_7
REMARK    2  A    between atoms: C_9  and  O_11
REMARK    3  A    between atoms: O_11  and  C_12
REMARK    4  A    between atoms: C_12  and  C_13
REMARK    5  A    between atoms: C_13  and  C_14
REMARK    6  A    between atoms: C_15  and  C_16
REMARK    7  A    between atoms: C_20  and  O_22
REMARK    8  A    between atoms: C_24  and  C_25
REMARK    9  A    between atoms: C_25  and  O_26
REMARK                            x       y       z     vdW  Elec       q    Type
REMARK                         _______ _______ _______ _____ _____    ______ ____
ROOT
ATOM      1  O   LIG A   1     -10.903   0.471 122.579  0.00  0.00    -0.294 OA
ATOM      2  C   LIG A   1      -9.779   0.870 122.857  0.00  0.00    +0.168 C 
ATOM      3  C   LIG A   1      -9.260   2.237 122.501  0.00  0.00    +0.117 C 
ATOM      4  C   LIG A   1      -8.108   2.260 123.496  0.00  0.00    +0.109 C 
ATOM      5  O   LIG A   1      -7.578   0.925 123.372  0.00  0.00    -0.354 OA
ATOM      6  C   LIG A   1      -8.722   0.073 123.622  0.00  0.00    +0.129 C 
ATOM      7  C   LIG A   1      -8.491  -1.296 123.019  0.00  0.00    +0.050 C 
ATOM      8  C   LIG A   1      -9.005   0.051 125.135  0.00  0.00    +0.087 C 
ATOM      9  C   LIG A   1      -8.404   1.288 125.841  0.00  0.00    +0.189 C 
ATOM     10  C   LIG A   1      -8.626   2.523 124.950  0.00  0.00    +0.099 C 
ATOM     11  C   LIG A   1      -7.913   3.799 125.413  0.00  0.00    +0.147 C 
ATOM     12  C   LIG A   1      -6.924   4.089 124.344  0.00  0.00    +0.009 C 
ATOM     13  C   LIG A   1      -7.016   3.260 123.293  0.00  0.00    -0.014 C 
ENDROOT
BRANCH  11  14
ATOM     14  O   LIG A   1      -8.824   4.890 125.421  0.00  0.00    -0.387 OA
ATOM     15  H   LIG A   1      -8.872   5.242 124.516  0.00  0.00    +0.210 HD
ENDBRANCH  11  14
BRANCH   9  16
ATOM     16  O   LIG A   1      -6.990   1.084 126.052  0.00  0.00    -0.458 OA
BRANCH  16  17
ATOM     17  C   LIG A   1      -6.571   0.827 127.318  0.00  0.00    +0.335 C 
ATOM     18  O   LIG A   1      -6.548  -0.282 127.843  0.00  0.00    -0.245 OA
BRANCH  17  19
ATOM     19  C   LIG A   1      -6.131   2.103 127.956  0.00  0.00    +0.029 C 
ATOM     20  C   LIG A   1      -7.012   2.647 129.045  0.00  0.00    +0.051 C 
ATOM     21  C   LIG A   1      -4.994   2.744 127.603  0.00  0.00    -0.020 C 
ATOM     22  C   LIG A   1      -4.021   2.393 126.524  0.00  0.00    +0.035 C 
ENDBRANCH  17  19
ENDBRANCH  16  17
ENDBRANCH   9  16
BRANCH  13  23
ATOM     23  C   LIG A   1      -6.162   3.324 122.073  0.00  0.00    +0.189 C 
BRANCH  23  24
ATOM     24  O   LIG A   1      -5.427   4.537 122.030  0.00  0.00    -0.391 OA
ATOM     25  H   LIG A   1      -6.066   5.270 122.116  0.00  0.00    +0.210 HD
ENDBRANCH  23  24
ENDBRANCH  13  23
TORSDOF 6
ENDMDL
MODEL 7
REMARK VINA RESULT:      -6.2      2.040      5.073
REMARK  Name = NuBBE_664
REMARK  9 active torsions:
REMARK  status: ('A' for Active; 'I' for Inactive)
REMARK    1  A    between atoms: C_6  and  C_7
REMARK    2  A    between atoms: C_9  and  O_11
REMARK    3  A    between atoms: O_11  and  C_12
REMARK    4  A    between atoms: C_12  and  C_13
REMARK    5  A    between atoms: C_13  and  C_14
REMARK    6  A    between atoms: C_15  and  C_16
REMARK    7  A    between atoms: C_20  and  O_22
REMARK    8  A    between atoms: C_24  and  C_25
REMARK    9  A    between atoms: C_25  and  O_26
REMARK                            x       y       z     vdW  Elec       q    Type
REMARK                         _______ _______ _______ _____ _____    ______ ____
ROOT
ATOM      1  O   LIG A   1      -8.813  -3.634 127.627  0.00  0.00    -0.294 OA
ATOM      2  C   LIG A   1      -8.171  -2.986 126.811  0.00  0.00    +0.168 C 
ATOM      3  C   LIG A   1      -8.108  -3.310 125.342  0.00  0.00    +0.117 C 
ATOM      4  C   LIG A   1      -7.617  -1.947 124.876  0.00  0.00    +0.109 C 
ATOM      5  O   LIG A   1      -6.626  -1.627 125.874  0.00  0.00    -0.354 OA
ATOM      6  C   LIG A   1      -7.346  -1.738 127.125  0.00  0.00    +0.129 C 
ATOM      7  C   LIG A   1      -6.375  -1.966 128.264  0.00  0.00    +0.050 C 
ATOM      8  C   LIG A   1      -8.235  -0.493 127.300  0.00  0.00    +0.087 C 
ATOM      9  C   LIG A   1      -8.524   0.191 125.944  0.00  0.00    +0.189 C 
ATOM     10  C   LIG A   1      -8.778  -0.897 124.885  0.00  0.00    +0.099 C 
ATOM     11  C   LIG A   1      -8.884  -0.391 123.442  0.00  0.00    +0.147 C 
ATOM     12  C   LIG A   1      -7.716  -0.989 122.745  0.00  0.00    +0.009 C 
ATOM     13  C   LIG A   1      -7.016  -1.838 123.511  0.00  0.00    -0.014 C 
ENDROOT
BRANCH  11  14
ATOM     14  O   LIG A   1     -10.041  -0.933 122.819  0.00  0.00    -0.387 OA
ATOM     15  H   LIG A   1      -9.908  -1.891 122.730  0.00  0.00    +0.210 HD
ENDBRANCH  11  14
BRANCH   9  16
ATOM     16  O   LIG A   1      -7.388   0.995 125.557  0.00  0.00    -0.458 OA
BRANCH  16  17
ATOM     17  C   LIG A   1      -7.576   2.333 125.429  0.00  0.00    +0.335 C 
ATOM     18  O   LIG A   1      -8.537   2.957 125.869  0.00  0.00    -0.245 OA
BRANCH  17  19
ATOM     19  C   LIG A   1      -6.423   2.921 124.685  0.00  0.00    +0.029 C 
ATOM     20  C   LIG A   1      -5.181   3.199 125.482  0.00  0.00    +0.051 C 
ATOM     21  C   LIG A   1      -6.465   3.183 123.359  0.00  0.00    -0.020 C 
ATOM     22  C   LIG A   1      -7.611   3.025 122.412  0.00  0.00    +0.035 C 
ENDBRANCH  17  19
ENDBRANCH  16  17
ENDBRANCH   9  16
BRANCH  13  23
ATOM     23  C   LIG A   1      -5.807  -2.592 123.072  0.00  0.00    +0.189 C 
BRANCH  23  24
ATOM     24  O   LIG A   1      -4.852  -2.675 124.118  0.00  0.00    -0.391 OA
ATOM     25  H   LIG A   1      -5.008  -3.514 124.592  0.00  0.00    +0.210 HD
ENDBRANCH  23  24
ENDBRANCH  13  23
TORSDOF 6
ENDMDL
MODEL 8
REMARK VINA RESULT:      -6.1      2.094      3.922
REMARK  Name = NuBBE_664
REMARK  9 active torsions:
REMARK  status: ('A' for Active; 'I' for Inactive)
REMARK    1  A    between atoms: C_6  and  C_7
REMARK    2  A    between atoms: C_9  and  O_11
REMARK    3  A    between atoms: O_11  and  C_12
REMARK    4  A    between atoms: C_12  and  C_13
REMARK    5  A    between atoms: C_13  and  C_14
REMARK    6  A    between atoms: C_15  and  C_16
REMARK    7  A    between atoms: C_20  and  O_22
REMARK    8  A    between atoms: C_24  and  C_25
REMARK    9  A    between atoms: C_25  and  O_26
REMARK                            x       y       z     vdW  Elec       q    Type
REMARK                         _______ _______ _______ _____ _____    ______ ____
ROOT
ATOM      1  O   LIG A   1      -8.957   3.463 124.805  0.00  0.00    -0.294 OA
ATOM      2  C   LIG A   1      -8.116   2.746 125.333  0.00  0.00    +0.168 C 
ATOM      3  C   LIG A   1      -7.425   3.073 126.629  0.00  0.00    +0.117 C 
ATOM      4  C   LIG A   1      -6.944   1.663 126.940  0.00  0.00    +0.109 C 
ATOM      5  O   LIG A   1      -6.489   1.209 125.649  0.00  0.00    -0.354 OA
ATOM      6  C   LIG A   1      -7.638   1.399 124.790  0.00  0.00    +0.129 C 
ATOM      7  C   LIG A   1      -7.196   1.489 123.345  0.00  0.00    +0.050 C 
ATOM      8  C   LIG A   1      -8.656   0.276 125.064  0.00  0.00    +0.087 C 
ATOM      9  C   LIG A   1      -8.444  -0.352 126.460  0.00  0.00    +0.189 C 
ATOM     10  C   LIG A   1      -8.120   0.770 127.464  0.00  0.00    +0.099 C 
ATOM     11  C   LIG A   1      -7.685   0.296 128.855  0.00  0.00    +0.147 C 
ATOM     12  C   LIG A   1      -6.276   0.747 128.985  0.00  0.00    +0.009 C 
ATOM     13  C   LIG A   1      -5.856   1.491 127.951  0.00  0.00    -0.014 C 
ENDROOT
BRANCH  11  14
ATOM     14  O   LIG A   1      -8.419   0.988 129.856  0.00  0.00    -0.387 OA
ATOM     15  H   LIG A   1      -8.247   1.938 129.747  0.00  0.00    +0.210 HD
ENDBRANCH  11  14
BRANCH   9  16
ATOM     16  O   LIG A   1      -7.348  -1.290 126.406  0.00  0.00    -0.458 OA
BRANCH  16  17
ATOM     17  C   LIG A   1      -7.643  -2.590 126.148  0.00  0.00    +0.335 C 
ATOM     18  O   LIG A   1      -8.235  -3.345 126.914  0.00  0.00    -0.245 OA
BRANCH  17  19
ATOM     19  C   LIG A   1      -7.145  -2.945 124.786  0.00  0.00    +0.029 C 
ATOM     20  C   LIG A   1      -5.655  -2.976 124.602  0.00  0.00    +0.051 C 
ATOM     21  C   LIG A   1      -7.974  -3.245 123.760  0.00  0.00    -0.020 C 
ATOM     22  C   LIG A   1      -9.468  -3.223 123.730  0.00  0.00    +0.035 C 
ENDBRANCH  17  19
ENDBRANCH  16  17
ENDBRANCH   9  16
BRANCH  13  23
ATOM     23  C   LIG A   1      -4.496   2.087 127.819  0.00  0.00    +0.189 C 
BRANCH  23  24
ATOM     24  O   LIG A   1      -3.922   1.768 126.562  0.00  0.00    -0.391 OA
ATOM     25  H   LIG A   1      -4.119   2.505 125.953  0.00  0.00    +0.210 HD
ENDBRANCH  23  24
ENDBRANCH  13  23
TORSDOF 6
ENDMDL
MODEL 9
REMARK VINA RESULT:      -6.1      2.047      4.024
REMARK  Name = NuBBE_664
REMARK  9 active torsions:
REMARK  status: ('A' for Active; 'I' for Inactive)
REMARK    1  A    between atoms: C_6  and  C_7
REMARK    2  A    between atoms: C_9  and  O_11
REMARK    3  A    between atoms: O_11  and  C_12
REMARK    4  A    between atoms: C_12  and  C_13
REMARK    5  A    between atoms: C_13  and  C_14
REMARK    6  A    between atoms: C_15  and  C_16
REMARK    7  A    between atoms: C_20  and  O_22
REMARK    8  A    between atoms: C_24  and  C_25
REMARK    9  A    between atoms: C_25  and  O_26
REMARK                            x       y       z     vdW  Elec       q    Type
REMARK                         _______ _______ _______ _____ _____    ______ ____
ROOT
ATOM      1  O   LIG A   1      -8.967   4.033 125.119  0.00  0.00    -0.294 OA
ATOM      2  C   LIG A   1      -8.011   3.268 125.107  0.00  0.00    +0.168 C 
ATOM      3  C   LIG A   1      -7.167   2.956 126.313  0.00  0.00    +0.117 C 
ATOM      4  C   LIG A   1      -6.549   1.673 125.775  0.00  0.00    +0.109 C 
ATOM      5  O   LIG A   1      -6.251   2.032 124.411  0.00  0.00    -0.354 OA
ATOM      6  C   LIG A   1      -7.522   2.487 123.887  0.00  0.00    +0.129 C 
ATOM      7  C   LIG A   1      -7.297   3.382 122.687  0.00  0.00    +0.050 C 
ATOM      8  C   LIG A   1      -8.409   1.262 123.597  0.00  0.00    +0.087 C 
ATOM      9  C   LIG A   1      -7.955   0.030 124.413  0.00  0.00    +0.189 C 
ATOM     10  C   LIG A   1      -7.572   0.489 125.831  0.00  0.00    +0.099 C 
ATOM     11  C   LIG A   1      -6.911  -0.582 126.707  0.00  0.00    +0.147 C 
ATOM     12  C   LIG A   1      -5.533  -0.080 126.943  0.00  0.00    +0.009 C 
ATOM     13  C   LIG A   1      -5.319   1.146 126.441  0.00  0.00    -0.014 C 
ENDROOT
BRANCH  11  14
ATOM     14  O   LIG A   1      -7.542  -0.626 127.980  0.00  0.00    -0.387 OA
ATOM     15  H   LIG A   1      -7.684  -1.560 128.208  0.00  0.00    +0.210 HD
ENDBRANCH  11  14
BRANCH   9  16
ATOM     16  O   LIG A   1      -6.815  -0.581 123.771  0.00  0.00    -0.458 OA
BRANCH  16  17
ATOM     17  C   LIG A   1      -7.017  -1.742 123.096  0.00  0.00    +0.335 C 
ATOM     18  O   LIG A   1      -7.628  -1.845 122.036  0.00  0.00    -0.245 OA
BRANCH  17  19
ATOM     19  C   LIG A   1      -6.367  -2.861 123.839  0.00  0.00    +0.029 C 
ATOM     20  C   LIG A   1      -4.888  -3.029 123.642  0.00  0.00    +0.051 C 
ATOM     21  C   LIG A   1      -7.051  -3.684 124.667  0.00  0.00    -0.020 C 
ATOM     22  C   LIG A   1      -8.518  -3.710 124.955  0.00  0.00    +0.035 C 
ENDBRANCH  17  19
ENDBRANCH  16  17
ENDBRANCH   9  16
BRANCH  13  23
ATOM     23  C   LIG A   1      -4.037   1.900 126.539  0.00  0.00    +0.189 C 
BRANCH  23  24
ATOM     24  O   LIG A   1      -4.128   3.145 125.864  0.00  0.00    -0.391 OA
ATOM     25  H   LIG A   1      -4.747   3.707 126.367  0.00  0.00    +0.210 HD
ENDBRANCH  23  24
ENDBRANCH  13  23
TORSDOF 6
ENDMDL
