MODEL 1
REMARK VINA RESULT:      -5.5      0.000      0.000
REMARK  Name = NuBBE_2027
REMARK  2 active torsions:
REMARK  status: ('A' for Active; 'I' for Inactive)
REMARK    1  A    between atoms: C_1  and  C_2
REMARK    2  A    between atoms: C_2  and  C_3
REMARK                            x       y       z     vdW  Elec       q    Type
REMARK                         _______ _______ _______ _____ _____    ______ ____
ROOT
ATOM      1  C   LIG A   1     -11.741   5.318 129.898  0.00  0.00    +0.016 C 
ATOM      2  C   LIG A   1     -11.346   6.795 129.763  0.00  0.00    -0.011 C 
ATOM      3  C   LIG A   1     -10.006   7.011 130.490  0.00  0.00    +0.016 C 
ATOM      4  C   LIG A   1     -12.433   7.739 130.274  0.00  0.00    -0.068 C 
ATOM      5  C   LIG A   1     -12.831   8.639 129.119  0.00  0.00    +0.015 C 
ATOM      6  C   LIG A   1     -13.618   7.788 128.107  0.00  0.00    +0.008 C 
ATOM      7  C   LIG A   1     -12.524   6.912 127.468  0.00  0.00    +0.005 C 
ATOM      8  C   LIG A   1     -11.263   7.286 128.279  0.00  0.00    -0.001 C 
ATOM      9  C   LIG A   1     -11.485   8.802 128.418  0.00  0.00    +0.012 C 
ATOM     10  C   LIG A   1     -12.923   7.815 131.517  0.00  0.00    +0.008 C 
ENDROOT
TORSDOF 0
ENDMDL
MODEL 2
REMARK VINA RESULT:      -5.2      0.980      2.956
REMARK  Name = NuBBE_2027
REMARK  2 active torsions:
REMARK  status: ('A' for Active; 'I' for Inactive)
REMARK    1  A    between atoms: C_1  and  C_2
REMARK    2  A    between atoms: C_2  and  C_3
REMARK                            x       y       z     vdW  Elec       q    Type
REMARK                         _______ _______ _______ _____ _____    ______ ____
ROOT
ATOM      1  C   LIG A   1     -10.239   8.778 128.501  0.00  0.00    +0.016 C 
ATOM      2  C   LIG A   1     -11.390   7.779 128.319  0.00  0.00    -0.011 C 
ATOM      3  C   LIG A   1     -11.520   7.452 126.820  0.00  0.00    +0.016 C 
ATOM      4  C   LIG A   1     -12.703   8.287 128.910  0.00  0.00    -0.068 C 
ATOM      5  C   LIG A   1     -13.149   7.281 129.955  0.00  0.00    +0.015 C 
ATOM      6  C   LIG A   1     -12.204   7.404 131.163  0.00  0.00    +0.008 C 
ATOM      7  C   LIG A   1     -10.899   6.771 130.644  0.00  0.00    +0.005 C 
ATOM      8  C   LIG A   1     -11.222   6.472 129.163  0.00  0.00    -0.001 C 
ATOM      9  C   LIG A   1     -12.673   5.982 129.310  0.00  0.00    +0.012 C 
ATOM     10  C   LIG A   1     -13.383   9.384 128.555  0.00  0.00    +0.008 C 
ENDROOT
TORSDOF 0
ENDMDL
MODEL 3
REMARK VINA RESULT:      -5.1     10.787     12.352
REMARK  Name = NuBBE_2027
REMARK  2 active torsions:
REMARK  status: ('A' for Active; 'I' for Inactive)
REMARK    1  A    between atoms: C_1  and  C_2
REMARK    2  A    between atoms: C_2  and  C_3
REMARK                            x       y       z     vdW  Elec       q    Type
REMARK                         _______ _______ _______ _____ _____    ______ ____
ROOT
ATOM      1  C   LIG A   1      -8.169  -4.167 124.778  0.00  0.00    +0.016 C 
ATOM      2  C   LIG A   1      -7.731  -2.701 124.910  0.00  0.00    -0.011 C 
ATOM      3  C   LIG A   1      -8.618  -2.020 125.968  0.00  0.00    +0.016 C 
ATOM      4  C   LIG A   1      -7.760  -1.960 123.576  0.00  0.00    -0.068 C 
ATOM      5  C   LIG A   1      -6.356  -1.449 123.310  0.00  0.00    +0.015 C 
ATOM      6  C   LIG A   1      -5.470  -2.659 122.967  0.00  0.00    +0.008 C 
ATOM      7  C   LIG A   1      -5.304  -3.361 124.328  0.00  0.00    +0.005 C 
ATOM      8  C   LIG A   1      -6.215  -2.532 125.260  0.00  0.00    -0.001 C 
ATOM      9  C   LIG A   1      -5.908  -1.120 124.732  0.00  0.00    +0.012 C 
ATOM     10  C   LIG A   1      -8.823  -1.741 122.791  0.00  0.00    +0.008 C 
ENDROOT
TORSDOF 0
ENDMDL
MODEL 4
REMARK VINA RESULT:      -5.1     10.814     12.214
REMARK  Name = NuBBE_2027
REMARK  2 active torsions:
REMARK  status: ('A' for Active; 'I' for Inactive)
REMARK    1  A    between atoms: C_1  and  C_2
REMARK    2  A    between atoms: C_2  and  C_3
REMARK                            x       y       z     vdW  Elec       q    Type
REMARK                         _______ _______ _______ _____ _____    ______ ____
ROOT
ATOM      1  C   LIG A   1      -5.443  -3.714 123.983  0.00  0.00    +0.016 C 
ATOM      2  C   LIG A   1      -6.470  -2.586 123.807  0.00  0.00    -0.011 C 
ATOM      3  C   LIG A   1      -6.147  -1.830 122.505  0.00  0.00    +0.016 C 
ATOM      4  C   LIG A   1      -6.524  -1.652 125.014  0.00  0.00    -0.068 C 
ATOM      5  C   LIG A   1      -7.943  -1.683 125.550  0.00  0.00    +0.015 C 
ATOM      6  C   LIG A   1      -8.167  -3.053 126.214  0.00  0.00    +0.008 C 
ATOM      7  C   LIG A   1      -8.256  -4.010 125.011  0.00  0.00    +0.005 C 
ATOM      8  C   LIG A   1      -7.953  -3.086 123.810  0.00  0.00    -0.001 C 
ATOM      9  C   LIG A   1      -8.727  -1.831 124.247  0.00  0.00    +0.012 C 
ATOM     10  C   LIG A   1      -5.532  -0.894 125.498  0.00  0.00    +0.008 C 
ENDROOT
TORSDOF 0
ENDMDL
MODEL 5
REMARK VINA RESULT:      -5.0     10.621     11.987
REMARK  Name = NuBBE_2027
REMARK  2 active torsions:
REMARK  status: ('A' for Active; 'I' for Inactive)
REMARK    1  A    between atoms: C_1  and  C_2
REMARK    2  A    between atoms: C_2  and  C_3
REMARK                            x       y       z     vdW  Elec       q    Type
REMARK                         _______ _______ _______ _____ _____    ______ ____
ROOT
ATOM      1  C   LIG A   1      -6.964  -0.364 124.485  0.00  0.00    +0.016 C 
ATOM      2  C   LIG A   1      -7.218  -1.787 123.969  0.00  0.00    -0.011 C 
ATOM      3  C   LIG A   1      -6.258  -2.059 122.796  0.00  0.00    +0.016 C 
ATOM      4  C   LIG A   1      -8.677  -2.016 123.581  0.00  0.00    -0.068 C 
ATOM      5  C   LIG A   1      -9.197  -3.163 124.427  0.00  0.00    +0.015 C 
ATOM      6  C   LIG A   1      -9.342  -2.656 125.872  0.00  0.00    +0.008 C 
ATOM      7  C   LIG A   1      -7.881  -2.544 126.347  0.00  0.00    +0.005 C 
ATOM      8  C   LIG A   1      -7.075  -2.887 125.074  0.00  0.00    -0.001 C 
ATOM      9  C   LIG A   1      -7.943  -4.030 124.519  0.00  0.00    +0.012 C 
ATOM     10  C   LIG A   1      -9.376  -1.374 122.636  0.00  0.00    +0.008 C 
ENDROOT
TORSDOF 0
ENDMDL
MODEL 6
REMARK VINA RESULT:      -5.0     10.616     12.217
REMARK  Name = NuBBE_2027
REMARK  2 active torsions:
REMARK  status: ('A' for Active; 'I' for Inactive)
REMARK    1  A    between atoms: C_1  and  C_2
REMARK    2  A    between atoms: C_2  and  C_3
REMARK                            x       y       z     vdW  Elec       q    Type
REMARK                         _______ _______ _______ _____ _____    ______ ____
ROOT
ATOM      1  C   LIG A   1      -6.369  -1.955 122.675  0.00  0.00    +0.016 C 
ATOM      2  C   LIG A   1      -5.967  -2.514 124.047  0.00  0.00    -0.011 C 
ATOM      3  C   LIG A   1      -4.927  -3.629 123.834  0.00  0.00    +0.016 C 
ATOM      4  C   LIG A   1      -7.168  -2.999 124.856  0.00  0.00    -0.068 C 
ATOM      5  C   LIG A   1      -7.191  -2.211 126.152  0.00  0.00    +0.015 C 
ATOM      6  C   LIG A   1      -7.609  -0.768 125.820  0.00  0.00    +0.008 C 
ATOM      7  C   LIG A   1      -6.361  -0.199 125.121  0.00  0.00    +0.005 C 
ATOM      8  C   LIG A   1      -5.424  -1.425 125.032  0.00  0.00    -0.001 C 
ATOM      9  C   LIG A   1      -5.694  -2.056 126.408  0.00  0.00    +0.012 C 
ATOM     10  C   LIG A   1      -8.027  -3.973 124.528  0.00  0.00    +0.008 C 
ENDROOT
TORSDOF 0
ENDMDL
MODEL 7
REMARK VINA RESULT:      -5.0     10.672     12.222
REMARK  Name = NuBBE_2027
REMARK  2 active torsions:
REMARK  status: ('A' for Active; 'I' for Inactive)
REMARK    1  A    between atoms: C_1  and  C_2
REMARK    2  A    between atoms: C_2  and  C_3
REMARK                            x       y       z     vdW  Elec       q    Type
REMARK                         _______ _______ _______ _____ _____    ______ ____
ROOT
ATOM      1  C   LIG A   1      -7.080  -2.397 126.201  0.00  0.00    +0.016 C 
ATOM      2  C   LIG A   1      -7.497  -2.805 124.780  0.00  0.00    -0.011 C 
ATOM      3  C   LIG A   1      -8.079  -4.229 124.832  0.00  0.00    +0.016 C 
ATOM      4  C   LIG A   1      -6.350  -2.691 123.779  0.00  0.00    -0.068 C 
ATOM      5  C   LIG A   1      -6.787  -1.724 122.695  0.00  0.00    +0.015 C 
ATOM      6  C   LIG A   1      -6.805  -0.310 123.302  0.00  0.00    +0.008 C 
ATOM      7  C   LIG A   1      -8.040  -0.343 124.220  0.00  0.00    +0.005 C 
ATOM      8  C   LIG A   1      -8.509  -1.812 124.117  0.00  0.00    -0.001 C 
ATOM      9  C   LIG A   1      -8.276  -2.053 122.616  0.00  0.00    +0.012 C 
ATOM     10  C   LIG A   1      -5.184  -3.349 123.802  0.00  0.00    +0.008 C 
ENDROOT
TORSDOF 0
ENDMDL
MODEL 8
REMARK VINA RESULT:      -5.0     10.256     11.706
REMARK  Name = NuBBE_2027
REMARK  2 active torsions:
REMARK  status: ('A' for Active; 'I' for Inactive)
REMARK    1  A    between atoms: C_1  and  C_2
REMARK    2  A    between atoms: C_2  and  C_3
REMARK                            x       y       z     vdW  Elec       q    Type
REMARK                         _______ _______ _______ _____ _____    ______ ____
ROOT
ATOM      1  C   LIG A   1      -9.265  -2.988 123.350  0.00  0.00    +0.016 C 
ATOM      2  C   LIG A   1      -8.161  -2.777 124.396  0.00  0.00    -0.011 C 
ATOM      3  C   LIG A   1      -8.321  -3.842 125.496  0.00  0.00    +0.016 C 
ATOM      4  C   LIG A   1      -8.160  -1.360 124.966  0.00  0.00    -0.068 C 
ATOM      5  C   LIG A   1      -6.798  -0.756 124.677  0.00  0.00    +0.015 C 
ATOM      6  C   LIG A   1      -6.716  -0.477 123.166  0.00  0.00    +0.008 C 
ATOM      7  C   LIG A   1      -6.577  -1.886 122.562  0.00  0.00    +0.005 C 
ATOM      8  C   LIG A   1      -6.717  -2.808 123.794  0.00  0.00    -0.001 C 
ATOM      9  C   LIG A   1      -5.912  -1.991 124.820  0.00  0.00    +0.012 C 
ATOM     10  C   LIG A   1      -9.144  -0.757 125.645  0.00  0.00    +0.008 C 
ENDROOT
TORSDOF 0
ENDMDL
MODEL 9
REMARK VINA RESULT:      -5.0     10.882     12.221
REMARK  Name = NuBBE_2027
REMARK  2 active torsions:
REMARK  status: ('A' for Active; 'I' for Inactive)
REMARK    1  A    between atoms: C_1  and  C_2
REMARK    2  A    between atoms: C_2  and  C_3
REMARK                            x       y       z     vdW  Elec       q    Type
REMARK                         _______ _______ _______ _____ _____    ______ ____
ROOT
ATOM      1  C   LIG A   1      -6.205  -0.677 124.721  0.00  0.00    +0.016 C 
ATOM      2  C   LIG A   1      -6.632  -1.977 125.418  0.00  0.00    -0.011 C 
ATOM      3  C   LIG A   1      -5.828  -2.118 126.724  0.00  0.00    +0.016 C 
ATOM      4  C   LIG A   1      -6.479  -3.201 124.516  0.00  0.00    -0.068 C 
ATOM      5  C   LIG A   1      -7.847  -3.842 124.386  0.00  0.00    +0.015 C 
ATOM      6  C   LIG A   1      -8.718  -2.925 123.510  0.00  0.00    +0.008 C 
ATOM      7  C   LIG A   1      -9.010  -1.734 124.441  0.00  0.00    +0.005 C 
ATOM      8  C   LIG A   1      -8.170  -2.061 125.697  0.00  0.00    -0.001 C 
ATOM      9  C   LIG A   1      -8.411  -3.578 125.780  0.00  0.00    +0.012 C 
ATOM     10  C   LIG A   1      -5.350  -3.671 123.972  0.00  0.00    +0.008 C 
ENDROOT
TORSDOF 0
ENDMDL
