MODEL 1
REMARK VINA RESULT:      -7.0      0.000      0.000
REMARK  Name = NuBBE_617
REMARK  6 active torsions:
REMARK  status: ('A' for Active; 'I' for Inactive)
REMARK    1  A    between atoms: C_3  and  C_4
REMARK    2  A    between atoms: C_4  and  C_5
REMARK    3  A    between atoms: C_5  and  O_6
REMARK    4  A    between atoms: C_11  and  C_12
REMARK    5  A    between atoms: C_13  and  C_15
REMARK    6  A    between atoms: C_16  and  O_18
REMARK                            x       y       z     vdW  Elec       q    Type
REMARK                         _______ _______ _______ _____ _____    ______ ____
ROOT
ATOM      1  O   LIG A   1     -13.498   7.125 131.508  0.00  0.00    -0.289 OA
ATOM      2  C   LIG A   1     -12.356   6.815 131.193  0.00  0.00    +0.194 C 
ATOM      3  C   LIG A   1     -11.902   6.735 129.777  0.00  0.00    +0.181 C 
ATOM      4  O   LIG A   1     -11.581   5.381 129.377  0.00  0.00    -0.351 OA
ATOM      5  C   LIG A   1     -10.490   6.305 129.450  0.00  0.00    +0.174 C 
ATOM      6  C   LIG A   1      -9.471   6.078 130.561  0.00  0.00    +0.024 C 
ATOM      7  C   LIG A   1      -8.418   7.208 130.416  0.00  0.00    +0.019 C 
ATOM      8  C   LIG A   1      -8.828   4.652 130.397  0.00  0.00    +0.027 C 
ATOM      9  C   LIG A   1      -8.114   4.455 129.048  0.00  0.00    +0.011 C 
ATOM     10  C   LIG A   1      -7.873   4.301 131.565  0.00  0.00    +0.119 C 
ATOM     11  C   LIG A   1      -8.557   4.448 132.923  0.00  0.00    +0.036 C 
ATOM     12  C   LIG A   1      -9.146   5.836 133.118  0.00  0.00    +0.034 C 
ATOM     13  C   LIG A   1     -10.073   6.183 131.975  0.00  0.00    -0.057 C 
ATOM     14  C   LIG A   1     -11.350   6.512 132.237  0.00  0.00    +0.049 C 
ENDROOT
BRANCH   3  15
ATOM     15  C   LIG A   1     -12.502   7.735 128.858  0.00  0.00    -0.010 C 
ATOM     16  C   LIG A   1     -12.292   9.061 128.963  0.00  0.00    +0.013 C 
BRANCH  15  17
ATOM     17  C   LIG A   1     -13.368   7.183 127.755  0.00  0.00    +0.189 C 
BRANCH  17  18
ATOM     18  O   LIG A   1     -12.518   6.681 126.732  0.00  0.00    -0.391 OA
ATOM     19  H   LIG A   1     -11.763   6.266 127.182  0.00  0.00    +0.210 HD
ENDBRANCH  17  18
ENDBRANCH  15  17
ENDBRANCH   3  15
BRANCH  10  20
ATOM     20  O   LIG A   1      -7.426   2.949 131.472  0.00  0.00    -0.392 OA
ATOM     21  H   LIG A   1      -7.847   2.546 130.694  0.00  0.00    +0.210 HD
ENDBRANCH  10  20
TORSDOF 4
ENDMDL
MODEL 2
REMARK VINA RESULT:      -6.8      2.014      5.168
REMARK  Name = NuBBE_617
REMARK  6 active torsions:
REMARK  status: ('A' for Active; 'I' for Inactive)
REMARK    1  A    between atoms: C_3  and  C_4
REMARK    2  A    between atoms: C_4  and  C_5
REMARK    3  A    between atoms: C_5  and  O_6
REMARK    4  A    between atoms: C_11  and  C_12
REMARK    5  A    between atoms: C_13  and  C_15
REMARK    6  A    between atoms: C_16  and  O_18
REMARK                            x       y       z     vdW  Elec       q    Type
REMARK                         _______ _______ _______ _____ _____    ______ ____
ROOT
ATOM      1  O   LIG A   1      -9.057   5.358 132.978  0.00  0.00    -0.289 OA
ATOM      2  C   LIG A   1      -9.690   5.777 132.018  0.00  0.00    +0.194 C 
ATOM      3  C   LIG A   1      -9.219   5.634 130.613  0.00  0.00    +0.181 C 
ATOM      4  O   LIG A   1      -8.897   6.908 130.006  0.00  0.00    -0.351 OA
ATOM      5  C   LIG A   1     -10.026   6.210 129.472  0.00  0.00    +0.174 C 
ATOM      6  C   LIG A   1     -11.397   6.827 129.726  0.00  0.00    +0.024 C 
ATOM      7  C   LIG A   1     -12.426   5.879 129.056  0.00  0.00    +0.019 C 
ATOM      8  C   LIG A   1     -11.442   8.273 129.108  0.00  0.00    +0.027 C 
ATOM      9  C   LIG A   1     -11.182   8.298 127.592  0.00  0.00    +0.011 C 
ATOM     10  C   LIG A   1     -12.764   9.011 129.438  0.00  0.00    +0.119 C 
ATOM     11  C   LIG A   1     -13.040   9.041 130.940  0.00  0.00    +0.036 C 
ATOM     12  C   LIG A   1     -13.045   7.648 131.547  0.00  0.00    +0.034 C 
ATOM     13  C   LIG A   1     -11.759   6.923 131.221  0.00  0.00    -0.057 C 
ATOM     14  C   LIG A   1     -10.994   6.452 132.221  0.00  0.00    +0.049 C 
ENDROOT
BRANCH   3  15
ATOM     15  C   LIG A   1      -8.483   4.379 130.314  0.00  0.00    -0.010 C 
ATOM     16  C   LIG A   1      -9.087   3.197 130.093  0.00  0.00    +0.013 C 
BRANCH  15  17
ATOM     17  C   LIG A   1      -6.982   4.495 130.246  0.00  0.00    +0.189 C 
BRANCH  17  18
ATOM     18  O   LIG A   1      -6.638   5.107 129.009  0.00  0.00    -0.391 OA
ATOM     19  H   LIG A   1      -7.254   5.850 128.891  0.00  0.00    +0.210 HD
ENDBRANCH  17  18
ENDBRANCH  15  17
ENDBRANCH   3  15
BRANCH  10  20
ATOM     20  O   LIG A   1     -12.714  10.368 129.000  0.00  0.00    -0.392 OA
ATOM     21  H   LIG A   1     -13.227  10.439 128.178  0.00  0.00    +0.210 HD
ENDBRANCH  10  20
TORSDOF 4
ENDMDL
MODEL 3
REMARK VINA RESULT:      -6.5      6.852      9.059
REMARK  Name = NuBBE_617
REMARK  6 active torsions:
REMARK  status: ('A' for Active; 'I' for Inactive)
REMARK    1  A    between atoms: C_3  and  C_4
REMARK    2  A    between atoms: C_4  and  C_5
REMARK    3  A    between atoms: C_5  and  O_6
REMARK    4  A    between atoms: C_11  and  C_12
REMARK    5  A    between atoms: C_13  and  C_15
REMARK    6  A    between atoms: C_16  and  O_18
REMARK                            x       y       z     vdW  Elec       q    Type
REMARK                         _______ _______ _______ _____ _____    ______ ____
ROOT
ATOM      1  O   LIG A   1      -8.302   2.500 127.259  0.00  0.00    -0.289 OA
ATOM      2  C   LIG A   1      -8.097   1.543 126.523  0.00  0.00    +0.194 C 
ATOM      3  C   LIG A   1      -7.498   1.680 125.167  0.00  0.00    +0.181 C 
ATOM      4  O   LIG A   1      -8.432   1.335 124.116  0.00  0.00    -0.351 OA
ATOM      5  C   LIG A   1      -7.309   0.465 124.288  0.00  0.00    +0.174 C 
ATOM      6  C   LIG A   1      -7.599  -0.932 124.823  0.00  0.00    +0.024 C 
ATOM      7  C   LIG A   1      -6.228  -1.651 124.919  0.00  0.00    +0.019 C 
ATOM      8  C   LIG A   1      -8.583  -1.674 123.844  0.00  0.00    +0.027 C 
ATOM      9  C   LIG A   1      -8.029  -1.816 122.416  0.00  0.00    +0.011 C 
ATOM     10  C   LIG A   1      -9.023  -3.055 124.389  0.00  0.00    +0.119 C 
ATOM     11  C   LIG A   1      -9.613  -2.951 125.794  0.00  0.00    +0.036 C 
ATOM     12  C   LIG A   1      -8.659  -2.277 126.765  0.00  0.00    +0.034 C 
ATOM     13  C   LIG A   1      -8.223  -0.932 126.233  0.00  0.00    -0.057 C 
ATOM     14  C   LIG A   1      -8.433   0.172 126.971  0.00  0.00    +0.049 C 
ENDROOT
BRANCH   3  15
ATOM     15  C   LIG A   1      -6.472   2.744 125.029  0.00  0.00    -0.010 C 
ATOM     16  C   LIG A   1      -5.244   2.668 125.575  0.00  0.00    +0.013 C 
BRANCH  15  17
ATOM     17  C   LIG A   1      -6.869   3.943 124.207  0.00  0.00    +0.189 C 
BRANCH  17  18
ATOM     18  O   LIG A   1      -8.206   4.291 124.545  0.00  0.00    -0.391 OA
ATOM     19  H   LIG A   1      -8.394   3.863 125.397  0.00  0.00    +0.210 HD
ENDBRANCH  17  18
ENDBRANCH  15  17
ENDBRANCH   3  15
BRANCH  10  20
ATOM     20  O   LIG A   1     -10.029  -3.634 123.559  0.00  0.00    -0.392 OA
ATOM     21  H   LIG A   1     -10.120  -4.570 123.804  0.00  0.00    +0.210 HD
ENDBRANCH  10  20
TORSDOF 4
ENDMDL
MODEL 4
REMARK VINA RESULT:      -6.2      7.576      9.751
REMARK  Name = NuBBE_617
REMARK  6 active torsions:
REMARK  status: ('A' for Active; 'I' for Inactive)
REMARK    1  A    between atoms: C_3  and  C_4
REMARK    2  A    between atoms: C_4  and  C_5
REMARK    3  A    between atoms: C_5  and  O_6
REMARK    4  A    between atoms: C_11  and  C_12
REMARK    5  A    between atoms: C_13  and  C_15
REMARK    6  A    between atoms: C_16  and  O_18
REMARK                            x       y       z     vdW  Elec       q    Type
REMARK                         _______ _______ _______ _____ _____    ______ ____
ROOT
ATOM      1  O   LIG A   1      -5.721  -2.267 125.670  0.00  0.00    -0.289 OA
ATOM      2  C   LIG A   1      -6.243  -1.197 125.381  0.00  0.00    +0.194 C 
ATOM      3  C   LIG A   1      -7.464  -1.096 124.535  0.00  0.00    +0.181 C 
ATOM      4  O   LIG A   1      -7.202  -0.459 123.262  0.00  0.00    -0.351 OA
ATOM      5  C   LIG A   1      -8.037   0.256 124.178  0.00  0.00    +0.174 C 
ATOM      6  C   LIG A   1      -7.459   1.529 124.785  0.00  0.00    +0.024 C 
ATOM      7  C   LIG A   1      -8.553   2.090 125.730  0.00  0.00    +0.019 C 
ATOM      8  C   LIG A   1      -7.101   2.541 123.635  0.00  0.00    +0.027 C 
ATOM      9  C   LIG A   1      -8.311   2.933 122.769  0.00  0.00    +0.011 C 
ATOM     10  C   LIG A   1      -6.391   3.810 124.170  0.00  0.00    +0.119 C 
ATOM     11  C   LIG A   1      -5.160   3.463 125.005  0.00  0.00    +0.036 C 
ATOM     12  C   LIG A   1      -5.495   2.520 126.149  0.00  0.00    +0.034 C 
ATOM     13  C   LIG A   1      -6.194   1.285 125.631  0.00  0.00    -0.057 C 
ATOM     14  C   LIG A   1      -5.672   0.072 125.886  0.00  0.00    +0.049 C 
ENDROOT
BRANCH   3  15
ATOM     15  C   LIG A   1      -8.452  -2.191 124.710  0.00  0.00    -0.010 C 
ATOM     16  C   LIG A   1      -9.103  -2.428 125.864  0.00  0.00    +0.013 C 
BRANCH  15  17
ATOM     17  C   LIG A   1      -8.717  -3.042 123.495  0.00  0.00    +0.189 C 
BRANCH  17  18
ATOM     18  O   LIG A   1     -10.119  -3.263 123.404  0.00  0.00    -0.391 OA
ATOM     19  H   LIG A   1     -10.545  -2.490 123.812  0.00  0.00    +0.210 HD
ENDBRANCH  17  18
ENDBRANCH  15  17
ENDBRANCH   3  15
BRANCH  10  20
ATOM     20  O   LIG A   1      -5.942   4.635 123.095  0.00  0.00    -0.392 OA
ATOM     21  H   LIG A   1      -5.801   5.531 123.442  0.00  0.00    +0.210 HD
ENDBRANCH  10  20
TORSDOF 4
ENDMDL
MODEL 5
REMARK VINA RESULT:      -6.1      8.204     10.650
REMARK  Name = NuBBE_617
REMARK  6 active torsions:
REMARK  status: ('A' for Active; 'I' for Inactive)
REMARK    1  A    between atoms: C_3  and  C_4
REMARK    2  A    between atoms: C_4  and  C_5
REMARK    3  A    between atoms: C_5  and  O_6
REMARK    4  A    between atoms: C_11  and  C_12
REMARK    5  A    between atoms: C_13  and  C_15
REMARK    6  A    between atoms: C_16  and  O_18
REMARK                            x       y       z     vdW  Elec       q    Type
REMARK                         _______ _______ _______ _____ _____    ______ ____
ROOT
ATOM      1  O   LIG A   1      -8.428  -3.604 129.069  0.00  0.00    -0.289 OA
ATOM      2  C   LIG A   1      -8.146  -3.079 127.999  0.00  0.00    +0.194 C 
ATOM      3  C   LIG A   1      -7.300  -1.858 127.895  0.00  0.00    +0.181 C 
ATOM      4  O   LIG A   1      -8.041  -0.714 127.409  0.00  0.00    -0.351 OA
ATOM      5  C   LIG A   1      -7.022  -1.232 126.549  0.00  0.00    +0.174 C 
ATOM      6  C   LIG A   1      -7.486  -1.913 125.266  0.00  0.00    +0.024 C 
ATOM      7  C   LIG A   1      -6.199  -2.380 124.536  0.00  0.00    +0.019 C 
ATOM      8  C   LIG A   1      -8.312  -0.891 124.401  0.00  0.00    +0.027 C 
ATOM      9  C   LIG A   1      -7.513   0.365 124.012  0.00  0.00    +0.011 C 
ATOM     10  C   LIG A   1      -8.924  -1.550 123.139  0.00  0.00    +0.119 C 
ATOM     11  C   LIG A   1      -9.757  -2.782 123.488  0.00  0.00    +0.036 C 
ATOM     12  C   LIG A   1      -8.962  -3.801 124.286  0.00  0.00    +0.034 C 
ATOM     13  C   LIG A   1      -8.358  -3.159 125.514  0.00  0.00    -0.057 C 
ATOM     14  C   LIG A   1      -8.637  -3.662 126.729  0.00  0.00    +0.049 C 
ENDROOT
BRANCH   3  15
ATOM     15  C   LIG A   1      -6.207  -1.756 128.895  0.00  0.00    -0.010 C 
ATOM     16  C   LIG A   1      -5.067  -2.470 128.826  0.00  0.00    +0.013 C 
BRANCH  15  17
ATOM     17  C   LIG A   1      -6.425  -0.770 130.014  0.00  0.00    +0.189 C 
BRANCH  17  18
ATOM     18  O   LIG A   1      -7.793  -0.827 130.397  0.00  0.00    -0.391 OA
ATOM     19  H   LIG A   1      -7.930  -1.702 130.796  0.00  0.00    +0.210 HD
ENDBRANCH  17  18
ENDBRANCH  15  17
ENDBRANCH   3  15
BRANCH  10  20
ATOM     20  O   LIG A   1      -9.791  -0.643 122.459  0.00  0.00    -0.392 OA
ATOM     21  H   LIG A   1      -9.813  -0.894 121.521  0.00  0.00    +0.210 HD
ENDBRANCH  10  20
TORSDOF 4
ENDMDL
MODEL 6
REMARK VINA RESULT:      -5.9      6.814      8.557
REMARK  Name = NuBBE_617
REMARK  6 active torsions:
REMARK  status: ('A' for Active; 'I' for Inactive)
REMARK    1  A    between atoms: C_3  and  C_4
REMARK    2  A    between atoms: C_4  and  C_5
REMARK    3  A    between atoms: C_5  and  O_6
REMARK    4  A    between atoms: C_11  and  C_12
REMARK    5  A    between atoms: C_13  and  C_15
REMARK    6  A    between atoms: C_16  and  O_18
REMARK                            x       y       z     vdW  Elec       q    Type
REMARK                         _______ _______ _______ _____ _____    ______ ____
ROOT
ATOM      1  O   LIG A   1      -8.690   2.798 126.313  0.00  0.00    -0.289 OA
ATOM      2  C   LIG A   1      -8.446   1.600 126.231  0.00  0.00    +0.194 C 
ATOM      3  C   LIG A   1      -8.582   0.833 124.962  0.00  0.00    +0.181 C 
ATOM      4  O   LIG A   1      -9.644  -0.149 125.023  0.00  0.00    -0.351 OA
ATOM      5  C   LIG A   1      -8.308  -0.653 124.933  0.00  0.00    +0.174 C 
ATOM      6  C   LIG A   1      -7.758  -1.364 126.164  0.00  0.00    +0.024 C 
ATOM      7  C   LIG A   1      -6.312  -1.795 125.802  0.00  0.00    +0.019 C 
ATOM      8  C   LIG A   1      -8.670  -2.599 126.505  0.00  0.00    +0.027 C 
ATOM      9  C   LIG A   1      -8.761  -3.625 125.363  0.00  0.00    +0.011 C 
ATOM     10  C   LIG A   1      -8.244  -3.298 127.821  0.00  0.00    +0.119 C 
ATOM     11  C   LIG A   1      -8.179  -2.317 128.990  0.00  0.00    +0.036 C 
ATOM     12  C   LIG A   1      -7.266  -1.138 128.696  0.00  0.00    +0.034 C 
ATOM     13  C   LIG A   1      -7.675  -0.460 127.409  0.00  0.00    -0.057 C 
ATOM     14  C   LIG A   1      -7.981   0.850 127.420  0.00  0.00    +0.049 C 
ENDROOT
BRANCH   3  15
ATOM     15  C   LIG A   1      -8.233   1.580 123.727  0.00  0.00    -0.010 C 
ATOM     16  C   LIG A   1      -6.967   1.834 123.345  0.00  0.00    +0.013 C 
BRANCH  15  17
ATOM     17  C   LIG A   1      -9.392   2.037 122.880  0.00  0.00    +0.189 C 
BRANCH  17  18
ATOM     18  O   LIG A   1     -10.068   0.885 122.392  0.00  0.00    -0.391 OA
ATOM     19  H   LIG A   1      -9.486   0.128 122.574  0.00  0.00    +0.210 HD
ENDBRANCH  17  18
ENDBRANCH  15  17
ENDBRANCH   3  15
BRANCH  10  20
ATOM     20  O   LIG A   1      -9.178  -4.313 128.186  0.00  0.00    -0.392 OA
ATOM     21  H   LIG A   1      -9.768  -4.465 127.429  0.00  0.00    +0.210 HD
ENDBRANCH  10  20
TORSDOF 4
ENDMDL
MODEL 7
REMARK VINA RESULT:      -5.8      2.756      4.440
REMARK  Name = NuBBE_617
REMARK  6 active torsions:
REMARK  status: ('A' for Active; 'I' for Inactive)
REMARK    1  A    between atoms: C_3  and  C_4
REMARK    2  A    between atoms: C_4  and  C_5
REMARK    3  A    between atoms: C_5  and  O_6
REMARK    4  A    between atoms: C_11  and  C_12
REMARK    5  A    between atoms: C_13  and  C_15
REMARK    6  A    between atoms: C_16  and  O_18
REMARK                            x       y       z     vdW  Elec       q    Type
REMARK                         _______ _______ _______ _____ _____    ______ ____
ROOT
ATOM      1  O   LIG A   1      -9.123   7.634 129.785  0.00  0.00    -0.289 OA
ATOM      2  C   LIG A   1      -8.612   6.929 130.647  0.00  0.00    +0.194 C 
ATOM      3  C   LIG A   1      -9.402   6.023 131.524  0.00  0.00    +0.181 C 
ATOM      4  O   LIG A   1      -9.379   6.439 132.910  0.00  0.00    -0.351 OA
ATOM      5  C   LIG A   1      -8.718   5.209 132.598  0.00  0.00    +0.174 C 
ATOM      6  C   LIG A   1      -7.198   5.198 132.713  0.00  0.00    +0.024 C 
ATOM      7  C   LIG A   1      -6.747   3.767 132.318  0.00  0.00    +0.019 C 
ATOM      8  C   LIG A   1      -6.782   5.558 134.187  0.00  0.00    +0.027 C 
ATOM      9  C   LIG A   1      -7.347   4.584 135.236  0.00  0.00    +0.011 C 
ATOM     10  C   LIG A   1      -5.247   5.689 134.348  0.00  0.00    +0.119 C 
ATOM     11  C   LIG A   1      -4.653   6.678 133.348  0.00  0.00    +0.036 C 
ATOM     12  C   LIG A   1      -5.007   6.321 131.914  0.00  0.00    +0.034 C 
ATOM     13  C   LIG A   1      -6.504   6.186 131.755  0.00  0.00    -0.057 C 
ATOM     14  C   LIG A   1      -7.144   6.941 130.846  0.00  0.00    +0.049 C 
ENDROOT
BRANCH   3  15
ATOM     15  C   LIG A   1     -10.582   5.387 130.884  0.00  0.00    -0.010 C 
ATOM     16  C   LIG A   1     -10.558   4.157 130.338  0.00  0.00    +0.013 C 
BRANCH  15  17
ATOM     17  C   LIG A   1     -11.854   6.196 130.891  0.00  0.00    +0.189 C 
BRANCH  17  18
ATOM     18  O   LIG A   1     -12.286   6.335 132.239  0.00  0.00    -0.391 OA
ATOM     19  H   LIG A   1     -13.156   6.765 132.204  0.00  0.00    +0.210 HD
ENDBRANCH  17  18
ENDBRANCH  15  17
ENDBRANCH   3  15
BRANCH  10  20
ATOM     20  O   LIG A   1      -4.910   6.166 135.651  0.00  0.00    -0.392 OA
ATOM     21  H   LIG A   1      -5.157   5.482 136.295  0.00  0.00    +0.210 HD
ENDBRANCH  10  20
TORSDOF 4
ENDMDL
MODEL 8
REMARK VINA RESULT:      -5.6      6.821      9.231
REMARK  Name = NuBBE_617
REMARK  6 active torsions:
REMARK  status: ('A' for Active; 'I' for Inactive)
REMARK    1  A    between atoms: C_3  and  C_4
REMARK    2  A    between atoms: C_4  and  C_5
REMARK    3  A    between atoms: C_5  and  O_6
REMARK    4  A    between atoms: C_11  and  C_12
REMARK    5  A    between atoms: C_13  and  C_15
REMARK    6  A    between atoms: C_16  and  O_18
REMARK                            x       y       z     vdW  Elec       q    Type
REMARK                         _______ _______ _______ _____ _____    ______ ____
ROOT
ATOM      1  O   LIG A   1      -8.638   3.480 122.408  0.00  0.00    -0.289 OA
ATOM      2  C   LIG A   1      -8.309   2.542 123.123  0.00  0.00    +0.194 C 
ATOM      3  C   LIG A   1      -7.319   2.675 124.227  0.00  0.00    +0.181 C 
ATOM      4  O   LIG A   1      -6.103   1.933 123.970  0.00  0.00    -0.351 OA
ATOM      5  C   LIG A   1      -6.922   1.471 125.048  0.00  0.00    +0.174 C 
ATOM      6  C   LIG A   1      -7.625   0.132 124.853  0.00  0.00    +0.024 C 
ATOM      7  C   LIG A   1      -8.437  -0.121 126.150  0.00  0.00    +0.019 C 
ATOM      8  C   LIG A   1      -6.552  -0.991 124.605  0.00  0.00    +0.027 C 
ATOM      9  C   LIG A   1      -5.549  -1.144 125.761  0.00  0.00    +0.011 C 
ATOM     10  C   LIG A   1      -7.199  -2.358 124.272  0.00  0.00    +0.119 C 
ATOM     11  C   LIG A   1      -8.175  -2.256 123.101  0.00  0.00    +0.036 C 
ATOM     12  C   LIG A   1      -9.247  -1.206 123.343  0.00  0.00    +0.034 C 
ATOM     13  C   LIG A   1      -8.618   0.128 123.674  0.00  0.00    -0.057 C 
ATOM     14  C   LIG A   1      -8.910   1.203 122.922  0.00  0.00    +0.049 C 
ENDROOT
BRANCH   3  15
ATOM     15  C   LIG A   1      -7.344   3.972 124.950  0.00  0.00    -0.010 C 
ATOM     16  C   LIG A   1      -8.315   4.322 125.815  0.00  0.00    +0.013 C 
BRANCH  15  17
ATOM     17  C   LIG A   1      -6.187   4.900 124.683  0.00  0.00    +0.189 C 
BRANCH  17  18
ATOM     18  O   LIG A   1      -5.822   4.773 123.314  0.00  0.00    -0.391 OA
ATOM     19  H   LIG A   1      -6.593   4.398 122.859  0.00  0.00    +0.210 HD
ENDBRANCH  17  18
ENDBRANCH  15  17
ENDBRANCH   3  15
BRANCH  10  20
ATOM     20  O   LIG A   1      -6.208  -3.316 123.900  0.00  0.00    -0.392 OA
ATOM     21  H   LIG A   1      -6.658  -4.154 123.704  0.00  0.00    +0.210 HD
ENDBRANCH  10  20
TORSDOF 4
ENDMDL
MODEL 9
REMARK VINA RESULT:      -5.6      3.755      5.735
REMARK  Name = NuBBE_617
REMARK  6 active torsions:
REMARK  status: ('A' for Active; 'I' for Inactive)
REMARK    1  A    between atoms: C_3  and  C_4
REMARK    2  A    between atoms: C_4  and  C_5
REMARK    3  A    between atoms: C_5  and  O_6
REMARK    4  A    between atoms: C_11  and  C_12
REMARK    5  A    between atoms: C_13  and  C_15
REMARK    6  A    between atoms: C_16  and  O_18
REMARK                            x       y       z     vdW  Elec       q    Type
REMARK                         _______ _______ _______ _____ _____    ______ ____
ROOT
ATOM      1  O   LIG A   1      -9.209   6.520 132.052  0.00  0.00    -0.289 OA
ATOM      2  C   LIG A   1      -8.087   6.083 131.825  0.00  0.00    +0.194 C 
ATOM      3  C   LIG A   1      -7.695   4.675 132.108  0.00  0.00    +0.181 C 
ATOM      4  O   LIG A   1      -6.706   4.579 133.161  0.00  0.00    -0.351 OA
ATOM      5  C   LIG A   1      -6.283   4.206 131.846  0.00  0.00    +0.174 C 
ATOM      6  C   LIG A   1      -5.275   5.124 131.163  0.00  0.00    +0.024 C 
ATOM      7  C   LIG A   1      -4.999   4.500 129.770  0.00  0.00    +0.019 C 
ATOM      8  C   LIG A   1      -3.970   5.210 132.037  0.00  0.00    +0.027 C 
ATOM      9  C   LIG A   1      -3.295   3.845 132.262  0.00  0.00    +0.011 C 
ATOM     10  C   LIG A   1      -2.948   6.226 131.468  0.00  0.00    +0.119 C 
ATOM     11  C   LIG A   1      -3.571   7.606 131.265  0.00  0.00    +0.036 C 
ATOM     12  C   LIG A   1      -4.809   7.550 130.386  0.00  0.00    +0.034 C 
ATOM     13  C   LIG A   1      -5.804   6.554 130.936  0.00  0.00    -0.057 C 
ATOM     14  C   LIG A   1      -7.051   6.960 131.232  0.00  0.00    +0.049 C 
ENDROOT
BRANCH   3  15
ATOM     15  C   LIG A   1      -8.762   3.663 131.897  0.00  0.00    -0.010 C 
ATOM     16  C   LIG A   1      -9.219   3.308 130.682  0.00  0.00    +0.013 C 
BRANCH  15  17
ATOM     17  C   LIG A   1      -9.313   3.015 133.141  0.00  0.00    +0.189 C 
BRANCH  17  18
ATOM     18  O   LIG A   1      -9.724   4.044 134.033  0.00  0.00    -0.391 OA
ATOM     19  H   LIG A   1     -10.696   4.020 134.050  0.00  0.00    +0.210 HD
ENDBRANCH  17  18
ENDBRANCH  15  17
ENDBRANCH   3  15
BRANCH  10  20
ATOM     20  O   LIG A   1      -1.847   6.396 132.360  0.00  0.00    -0.392 OA
ATOM     21  H   LIG A   1      -2.151   6.184 133.258  0.00  0.00    +0.210 HD
ENDBRANCH  10  20
TORSDOF 4
ENDMDL
