MODEL 1
REMARK VINA RESULT:      -6.6      0.000      0.000
REMARK  Name = NuBBE_1501
REMARK  7 active torsions:
REMARK  status: ('A' for Active; 'I' for Inactive)
REMARK    1  A    between atoms: C_2  and  C_3
REMARK    2  A    between atoms: C_2  and  C_11
REMARK    3  A    between atoms: C_7  and  C_8
REMARK    4  A    between atoms: C_11  and  C_12
REMARK    5  A    between atoms: C_12  and  C_13
REMARK    6  A    between atoms: C_14  and  C_15
REMARK    7  A    between atoms: C_14  and  C_16
REMARK                            x       y       z     vdW  Elec       q    Type
REMARK                         _______ _______ _______ _____ _____    ______ ____
ROOT
ATOM      1  C   LIG A   1      -9.244  -2.864 123.496  0.00  0.00    +0.008 C 
ATOM      2  C   LIG A   1      -8.655  -2.157 124.464  0.00  0.00    -0.073 C 
ENDROOT
BRANCH   2   3
ATOM      3  C   LIG A   1      -7.539  -1.110 124.222  0.00  0.00    +0.018 C 
ATOM      4  C   LIG A   1      -6.928  -1.166 122.798  0.00  0.00    +0.012 C 
ATOM      5  C   LIG A   1      -5.996  -2.365 122.548  0.00  0.00    +0.030 C 
ATOM      6  C   LIG A   1      -5.248  -2.831 123.776  0.00  0.00    -0.076 C 
ATOM      7  C   LIG A   1      -4.389  -4.050 123.605  0.00  0.00    +0.038 C 
ATOM      8  C   LIG A   1      -5.379  -2.225 124.973  0.00  0.00    -0.027 C 
ATOM      9  C   LIG A   1      -6.375  -1.132 125.238  0.00  0.00    +0.035 C 
ENDBRANCH   2   3
BRANCH   2  10
ATOM     10  C   LIG A   1      -9.147  -2.480 125.869  0.00  0.00    +0.034 C 
BRANCH  10  11
ATOM     11  C   LIG A   1      -8.632  -3.711 126.630  0.00  0.00    +0.031 C 
BRANCH  11  12
ATOM     12  C   LIG A   1      -8.633  -3.622 128.134  0.00  0.00    -0.028 C 
ATOM     13  C   LIG A   1      -7.676  -3.109 128.932  0.00  0.00    -0.080 C 
ATOM     14  C   LIG A   1      -6.300  -2.671 128.503  0.00  0.00    +0.038 C 
ATOM     15  C   LIG A   1      -7.955  -2.856 130.392  0.00  0.00    +0.038 C 
ENDBRANCH  11  12
ENDBRANCH  10  11
ENDBRANCH   2  10
TORSDOF 4
ENDMDL
MODEL 2
REMARK VINA RESULT:      -6.4      1.251      2.955
REMARK  Name = NuBBE_1501
REMARK  7 active torsions:
REMARK  status: ('A' for Active; 'I' for Inactive)
REMARK    1  A    between atoms: C_2  and  C_3
REMARK    2  A    between atoms: C_2  and  C_11
REMARK    3  A    between atoms: C_7  and  C_8
REMARK    4  A    between atoms: C_11  and  C_12
REMARK    5  A    between atoms: C_12  and  C_13
REMARK    6  A    between atoms: C_14  and  C_15
REMARK    7  A    between atoms: C_14  and  C_16
REMARK                            x       y       z     vdW  Elec       q    Type
REMARK                         _______ _______ _______ _____ _____    ______ ____
ROOT
ATOM      1  C   LIG A   1      -6.529   0.280 125.007  0.00  0.00    +0.008 C 
ATOM      2  C   LIG A   1      -5.874  -0.873 125.160  0.00  0.00    -0.073 C 
ENDROOT
BRANCH   2   3
ATOM      3  C   LIG A   1      -5.577  -1.865 124.007  0.00  0.00    +0.018 C 
ATOM      4  C   LIG A   1      -6.363  -1.563 122.705  0.00  0.00    +0.012 C 
ATOM      5  C   LIG A   1      -7.859  -1.919 122.761  0.00  0.00    +0.030 C 
ATOM      6  C   LIG A   1      -8.178  -3.100 123.651  0.00  0.00    -0.076 C 
ATOM      7  C   LIG A   1      -9.632  -3.437 123.807  0.00  0.00    +0.038 C 
ATOM      8  C   LIG A   1      -7.222  -3.783 124.313  0.00  0.00    -0.027 C 
ATOM      9  C   LIG A   1      -5.781  -3.359 124.345  0.00  0.00    +0.035 C 
ENDBRANCH   2   3
BRANCH   2  10
ATOM     10  C   LIG A   1      -5.450  -1.174 126.591  0.00  0.00    +0.034 C 
BRANCH  10  11
ATOM     11  C   LIG A   1      -6.490  -1.382 127.703  0.00  0.00    +0.031 C 
BRANCH  11  12
ATOM     12  C   LIG A   1      -7.493  -2.487 127.489  0.00  0.00    -0.028 C 
ATOM     13  C   LIG A   1      -8.131  -3.215 128.427  0.00  0.00    -0.080 C 
ATOM     14  C   LIG A   1      -7.844  -3.211 129.905  0.00  0.00    +0.038 C 
ATOM     15  C   LIG A   1      -9.297  -4.092 128.048  0.00  0.00    +0.038 C 
ENDBRANCH  11  12
ENDBRANCH  10  11
ENDBRANCH   2  10
TORSDOF 4
ENDMDL
MODEL 3
REMARK VINA RESULT:      -6.4      1.075      2.418
REMARK  Name = NuBBE_1501
REMARK  7 active torsions:
REMARK  status: ('A' for Active; 'I' for Inactive)
REMARK    1  A    between atoms: C_2  and  C_3
REMARK    2  A    between atoms: C_2  and  C_11
REMARK    3  A    between atoms: C_7  and  C_8
REMARK    4  A    between atoms: C_11  and  C_12
REMARK    5  A    between atoms: C_12  and  C_13
REMARK    6  A    between atoms: C_14  and  C_15
REMARK    7  A    between atoms: C_14  and  C_16
REMARK                            x       y       z     vdW  Elec       q    Type
REMARK                         _______ _______ _______ _____ _____    ______ ____
ROOT
ATOM      1  C   LIG A   1      -9.373  -3.110 123.402  0.00  0.00    +0.008 C 
ATOM      2  C   LIG A   1      -8.221  -3.269 124.060  0.00  0.00    -0.073 C 
ENDROOT
BRANCH   2   3
ATOM      3  C   LIG A   1      -6.836  -2.856 123.502  0.00  0.00    +0.018 C 
ATOM      4  C   LIG A   1      -5.734  -2.741 124.587  0.00  0.00    +0.012 C 
ATOM      5  C   LIG A   1      -5.851  -1.502 125.491  0.00  0.00    +0.030 C 
ATOM      6  C   LIG A   1      -6.450  -0.294 124.806  0.00  0.00    -0.076 C 
ATOM      7  C   LIG A   1      -6.664   0.917 125.666  0.00  0.00    +0.038 C 
ATOM      8  C   LIG A   1      -6.824  -0.312 123.510  0.00  0.00    -0.027 C 
ATOM      9  C   LIG A   1      -6.815  -1.556 122.668  0.00  0.00    +0.035 C 
ENDBRANCH   2   3
BRANCH   2  10
ATOM     10  C   LIG A   1      -8.360  -3.931 125.424  0.00  0.00    +0.034 C 
BRANCH  10  11
ATOM     11  C   LIG A   1      -8.988  -3.186 126.612  0.00  0.00    +0.031 C 
BRANCH  11  12
ATOM     12  C   LIG A   1      -8.452  -3.524 127.979  0.00  0.00    -0.028 C 
ATOM     13  C   LIG A   1      -7.926  -2.683 128.891  0.00  0.00    -0.080 C 
ATOM     14  C   LIG A   1      -7.585  -1.232 128.671  0.00  0.00    +0.038 C 
ATOM     15  C   LIG A   1      -7.687  -3.144 130.306  0.00  0.00    +0.038 C 
ENDBRANCH  11  12
ENDBRANCH  10  11
ENDBRANCH   2  10
TORSDOF 4
ENDMDL
MODEL 4
REMARK VINA RESULT:      -6.3      1.382      2.981
REMARK  Name = NuBBE_1501
REMARK  7 active torsions:
REMARK  status: ('A' for Active; 'I' for Inactive)
REMARK    1  A    between atoms: C_2  and  C_3
REMARK    2  A    between atoms: C_2  and  C_11
REMARK    3  A    between atoms: C_7  and  C_8
REMARK    4  A    between atoms: C_11  and  C_12
REMARK    5  A    between atoms: C_12  and  C_13
REMARK    6  A    between atoms: C_14  and  C_15
REMARK    7  A    between atoms: C_14  and  C_16
REMARK                            x       y       z     vdW  Elec       q    Type
REMARK                         _______ _______ _______ _____ _____    ______ ____
ROOT
ATOM      1  C   LIG A   1      -6.065  -1.680 126.523  0.00  0.00    +0.008 C 
ATOM      2  C   LIG A   1      -7.051  -2.457 126.065  0.00  0.00    -0.073 C 
ENDROOT
BRANCH   2   3
ATOM      3  C   LIG A   1      -6.983  -3.261 124.743  0.00  0.00    +0.018 C 
ATOM      4  C   LIG A   1      -6.364  -2.470 123.561  0.00  0.00    +0.012 C 
ATOM      5  C   LIG A   1      -7.279  -1.384 122.969  0.00  0.00    +0.030 C 
ATOM      6  C   LIG A   1      -8.754  -1.706 123.052  0.00  0.00    -0.076 C 
ATOM      7  C   LIG A   1      -9.692  -0.642 122.564  0.00  0.00    +0.038 C 
ATOM      8  C   LIG A   1      -9.210  -2.860 123.580  0.00  0.00    -0.027 C 
ATOM      9  C   LIG A   1      -8.322  -3.863 124.260  0.00  0.00    +0.035 C 
ENDBRANCH   2   3
BRANCH   2  10
ATOM     10  C   LIG A   1      -8.298  -2.475 126.939  0.00  0.00    +0.034 C 
BRANCH  10  11
ATOM     11  C   LIG A   1      -8.529  -3.587 127.974  0.00  0.00    +0.031 C 
BRANCH  11  12
ATOM     12  C   LIG A   1      -8.430  -3.188 129.424  0.00  0.00    -0.028 C 
ATOM     13  C   LIG A   1      -7.344  -3.234 130.221  0.00  0.00    -0.080 C 
ATOM     14  C   LIG A   1      -6.021  -3.870 129.886  0.00  0.00    +0.038 C 
ATOM     15  C   LIG A   1      -7.355  -2.548 131.564  0.00  0.00    +0.038 C 
ENDBRANCH  11  12
ENDBRANCH  10  11
ENDBRANCH   2  10
TORSDOF 4
ENDMDL
MODEL 5
REMARK VINA RESULT:      -6.1      1.942      4.534
REMARK  Name = NuBBE_1501
REMARK  7 active torsions:
REMARK  status: ('A' for Active; 'I' for Inactive)
REMARK    1  A    between atoms: C_2  and  C_3
REMARK    2  A    between atoms: C_2  and  C_11
REMARK    3  A    between atoms: C_7  and  C_8
REMARK    4  A    between atoms: C_11  and  C_12
REMARK    5  A    between atoms: C_12  and  C_13
REMARK    6  A    between atoms: C_14  and  C_15
REMARK    7  A    between atoms: C_14  and  C_16
REMARK                            x       y       z     vdW  Elec       q    Type
REMARK                         _______ _______ _______ _____ _____    ______ ____
ROOT
ATOM      1  C   LIG A   1      -7.191  -2.266 127.009  0.00  0.00    +0.008 C 
ATOM      2  C   LIG A   1      -6.428  -2.116 125.923  0.00  0.00    -0.073 C 
ENDROOT
BRANCH   2   3
ATOM      3  C   LIG A   1      -6.434  -3.086 124.715  0.00  0.00    +0.018 C 
ATOM      4  C   LIG A   1      -6.025  -2.419 123.376  0.00  0.00    +0.012 C 
ATOM      5  C   LIG A   1      -7.094  -1.495 122.768  0.00  0.00    +0.030 C 
ATOM      6  C   LIG A   1      -8.515  -1.914 123.070  0.00  0.00    -0.076 C 
ATOM      7  C   LIG A   1      -9.594  -0.999 122.570  0.00  0.00    +0.038 C 
ATOM      8  C   LIG A   1      -8.804  -3.016 123.791  0.00  0.00    -0.027 C 
ATOM      9  C   LIG A   1      -7.758  -3.847 124.479  0.00  0.00    +0.035 C 
ENDBRANCH   2   3
BRANCH   2  10
ATOM     10  C   LIG A   1      -5.500  -0.910 125.966  0.00  0.00    +0.034 C 
BRANCH  10  11
ATOM     11  C   LIG A   1      -6.031   0.493 126.295  0.00  0.00    +0.031 C 
BRANCH  11  12
ATOM     12  C   LIG A   1      -6.818   1.187 125.213  0.00  0.00    -0.028 C 
ATOM     13  C   LIG A   1      -8.157   1.297 125.108  0.00  0.00    -0.080 C 
ATOM     14  C   LIG A   1      -9.178   0.587 125.958  0.00  0.00    +0.038 C 
ATOM     15  C   LIG A   1      -8.768   2.250 124.112  0.00  0.00    +0.038 C 
ENDBRANCH  11  12
ENDBRANCH  10  11
ENDBRANCH   2  10
TORSDOF 4
ENDMDL
MODEL 6
REMARK VINA RESULT:      -6.1      1.394      5.267
REMARK  Name = NuBBE_1501
REMARK  7 active torsions:
REMARK  status: ('A' for Active; 'I' for Inactive)
REMARK    1  A    between atoms: C_2  and  C_3
REMARK    2  A    between atoms: C_2  and  C_11
REMARK    3  A    between atoms: C_7  and  C_8
REMARK    4  A    between atoms: C_11  and  C_12
REMARK    5  A    between atoms: C_12  and  C_13
REMARK    6  A    between atoms: C_14  and  C_15
REMARK    7  A    between atoms: C_14  and  C_16
REMARK                            x       y       z     vdW  Elec       q    Type
REMARK                         _______ _______ _______ _____ _____    ______ ____
ROOT
ATOM      1  C   LIG A   1      -8.897  -3.980 127.833  0.00  0.00    +0.008 C 
ATOM      2  C   LIG A   1      -8.355  -2.819 127.459  0.00  0.00    -0.073 C 
ENDROOT
BRANCH   2   3
ATOM      3  C   LIG A   1      -7.655  -1.832 128.428  0.00  0.00    +0.018 C 
ATOM      4  C   LIG A   1      -6.109  -1.826 128.304  0.00  0.00    +0.012 C 
ATOM      5  C   LIG A   1      -5.414  -3.062 128.901  0.00  0.00    +0.030 C 
ATOM      6  C   LIG A   1      -6.135  -3.664 130.086  0.00  0.00    -0.076 C 
ATOM      7  C   LIG A   1      -5.543  -4.920 130.653  0.00  0.00    +0.038 C 
ATOM      8  C   LIG A   1      -7.275  -3.138 130.579  0.00  0.00    -0.027 C 
ATOM      9  C   LIG A   1      -8.009  -2.003 129.922  0.00  0.00    +0.035 C 
ENDBRANCH   2   3
BRANCH   2  10
ATOM     10  C   LIG A   1      -8.501  -2.503 125.976  0.00  0.00    +0.034 C 
BRANCH  10  11
ATOM     11  C   LIG A   1      -8.272  -3.580 124.906  0.00  0.00    +0.031 C 
BRANCH  11  12
ATOM     12  C   LIG A   1      -6.849  -3.798 124.462  0.00  0.00    -0.028 C 
ATOM     13  C   LIG A   1      -6.105  -3.012 123.658  0.00  0.00    -0.080 C 
ATOM     14  C   LIG A   1      -6.596  -1.826 122.871  0.00  0.00    +0.038 C 
ATOM     15  C   LIG A   1      -4.620  -3.238 123.533  0.00  0.00    +0.038 C 
ENDBRANCH  11  12
ENDBRANCH  10  11
ENDBRANCH   2  10
TORSDOF 4
ENDMDL
MODEL 7
REMARK VINA RESULT:      -6.1      1.540      5.386
REMARK  Name = NuBBE_1501
REMARK  7 active torsions:
REMARK  status: ('A' for Active; 'I' for Inactive)
REMARK    1  A    between atoms: C_2  and  C_3
REMARK    2  A    between atoms: C_2  and  C_11
REMARK    3  A    between atoms: C_7  and  C_8
REMARK    4  A    between atoms: C_11  and  C_12
REMARK    5  A    between atoms: C_12  and  C_13
REMARK    6  A    between atoms: C_14  and  C_15
REMARK    7  A    between atoms: C_14  and  C_16
REMARK                            x       y       z     vdW  Elec       q    Type
REMARK                         _______ _______ _______ _____ _____    ______ ____
ROOT
ATOM      1  C   LIG A   1      -9.038  -4.098 127.977  0.00  0.00    +0.008 C 
ATOM      2  C   LIG A   1      -8.412  -3.115 127.324  0.00  0.00    -0.073 C 
ENDROOT
BRANCH   2   3
ATOM      3  C   LIG A   1      -7.040  -2.528 127.743  0.00  0.00    +0.018 C 
ATOM      4  C   LIG A   1      -6.576  -2.969 129.155  0.00  0.00    +0.012 C 
ATOM      5  C   LIG A   1      -7.330  -2.297 130.316  0.00  0.00    +0.030 C 
ATOM      6  C   LIG A   1      -7.802  -0.893 130.014  0.00  0.00    -0.076 C 
ATOM      7  C   LIG A   1      -8.616  -0.224 131.082  0.00  0.00    +0.038 C 
ATOM      8  C   LIG A   1      -7.556  -0.288 128.834  0.00  0.00    -0.027 C 
ATOM      9  C   LIG A   1      -6.923  -0.989 127.666  0.00  0.00    +0.035 C 
ENDBRANCH   2   3
BRANCH   2  10
ATOM     10  C   LIG A   1      -9.173  -2.570 126.123  0.00  0.00    +0.034 C 
BRANCH  10  11
ATOM     11  C   LIG A   1      -8.974  -3.161 124.719  0.00  0.00    +0.031 C 
BRANCH  11  12
ATOM     12  C   LIG A   1      -7.607  -3.715 124.408  0.00  0.00    -0.028 C 
ATOM     13  C   LIG A   1      -6.496  -3.029 124.073  0.00  0.00    -0.080 C 
ATOM     14  C   LIG A   1      -6.418  -1.560 123.755  0.00  0.00    +0.038 C 
ATOM     15  C   LIG A   1      -5.153  -3.715 124.059  0.00  0.00    +0.038 C 
ENDBRANCH  11  12
ENDBRANCH  10  11
ENDBRANCH   2  10
TORSDOF 4
ENDMDL
MODEL 8
REMARK VINA RESULT:      -5.9     10.197     11.681
REMARK  Name = NuBBE_1501
REMARK  7 active torsions:
REMARK  status: ('A' for Active; 'I' for Inactive)
REMARK    1  A    between atoms: C_2  and  C_3
REMARK    2  A    between atoms: C_2  and  C_11
REMARK    3  A    between atoms: C_7  and  C_8
REMARK    4  A    between atoms: C_11  and  C_12
REMARK    5  A    between atoms: C_12  and  C_13
REMARK    6  A    between atoms: C_14  and  C_15
REMARK    7  A    between atoms: C_14  and  C_16
REMARK                            x       y       z     vdW  Elec       q    Type
REMARK                         _______ _______ _______ _____ _____    ______ ____
ROOT
ATOM      1  C   LIG A   1     -10.132   6.764 127.993  0.00  0.00    +0.008 C 
ATOM      2  C   LIG A   1     -10.614   6.830 129.237  0.00  0.00    -0.073 C 
ENDROOT
BRANCH   2   3
ATOM      3  C   LIG A   1     -12.085   6.528 129.618  0.00  0.00    +0.018 C 
ATOM      4  C   LIG A   1     -13.109   6.934 128.526  0.00  0.00    +0.012 C 
ATOM      5  C   LIG A   1     -13.346   8.449 128.402  0.00  0.00    +0.030 C 
ATOM      6  C   LIG A   1     -13.198   9.206 129.703  0.00  0.00    -0.076 C 
ATOM      7  C   LIG A   1     -13.337  10.697 129.621  0.00  0.00    +0.038 C 
ATOM      8  C   LIG A   1     -12.906   8.588 130.866  0.00  0.00    -0.027 C 
ATOM      9  C   LIG A   1     -12.561   7.129 130.959  0.00  0.00    +0.035 C 
ENDBRANCH   2   3
BRANCH   2  10
ATOM     10  C   LIG A   1      -9.598   7.264 130.285  0.00  0.00    +0.034 C 
BRANCH  10  11
ATOM     11  C   LIG A   1      -8.806   6.232 131.102  0.00  0.00    +0.031 C 
BRANCH  11  12
ATOM     12  C   LIG A   1      -9.521   4.950 131.443  0.00  0.00    -0.028 C 
ATOM     13  C   LIG A   1      -9.408   3.754 130.831  0.00  0.00    -0.080 C 
ATOM     14  C   LIG A   1      -8.673   3.478 129.546  0.00  0.00    +0.038 C 
ATOM     15  C   LIG A   1      -9.989   2.516 131.465  0.00  0.00    +0.038 C 
ENDBRANCH  11  12
ENDBRANCH  10  11
ENDBRANCH   2  10
TORSDOF 4
ENDMDL
MODEL 9
REMARK VINA RESULT:      -5.9      1.337      2.520
REMARK  Name = NuBBE_1501
REMARK  7 active torsions:
REMARK  status: ('A' for Active; 'I' for Inactive)
REMARK    1  A    between atoms: C_2  and  C_3
REMARK    2  A    between atoms: C_2  and  C_11
REMARK    3  A    between atoms: C_7  and  C_8
REMARK    4  A    between atoms: C_11  and  C_12
REMARK    5  A    between atoms: C_12  and  C_13
REMARK    6  A    between atoms: C_14  and  C_15
REMARK    7  A    between atoms: C_14  and  C_16
REMARK                            x       y       z     vdW  Elec       q    Type
REMARK                         _______ _______ _______ _____ _____    ______ ____
ROOT
ATOM      1  C   LIG A   1      -8.723  -0.666 126.257  0.00  0.00    +0.008 C 
ATOM      2  C   LIG A   1      -8.805  -1.978 126.021  0.00  0.00    -0.073 C 
ENDROOT
BRANCH   2   3
ATOM      3  C   LIG A   1      -9.001  -2.599 124.615  0.00  0.00    +0.018 C 
ATOM      4  C   LIG A   1      -8.401  -4.021 124.471  0.00  0.00    +0.012 C 
ATOM      5  C   LIG A   1      -6.866  -4.064 124.386  0.00  0.00    +0.030 C 
ATOM      6  C   LIG A   1      -6.250  -2.849 123.728  0.00  0.00    -0.076 C 
ATOM      7  C   LIG A   1      -4.751  -2.803 123.695  0.00  0.00    +0.038 C 
ATOM      8  C   LIG A   1      -6.997  -1.836 123.244  0.00  0.00    -0.027 C 
ATOM      9  C   LIG A   1      -8.484  -1.746 123.434  0.00  0.00    +0.035 C 
ENDBRANCH   2   3
BRANCH   2  10
ATOM     10  C   LIG A   1      -8.722  -2.850 127.267  0.00  0.00    +0.034 C 
BRANCH  10  11
ATOM     11  C   LIG A   1      -8.032  -2.350 128.545  0.00  0.00    +0.031 C 
BRANCH  11  12
ATOM     12  C   LIG A   1      -6.667  -2.916 128.840  0.00  0.00    -0.028 C 
ATOM     13  C   LIG A   1      -5.484  -2.534 128.319  0.00  0.00    -0.080 C 
ATOM     14  C   LIG A   1      -5.284  -1.569 127.180  0.00  0.00    +0.038 C 
ATOM     15  C   LIG A   1      -4.192  -3.024 128.922  0.00  0.00    +0.038 C 
ENDBRANCH  11  12
ENDBRANCH  10  11
ENDBRANCH   2  10
TORSDOF 4
ENDMDL
