MODEL 1
REMARK VINA RESULT:      -5.7      0.000      0.000
REMARK  Name = NuBBE_1988
REMARK  4 active torsions:
REMARK  status: ('A' for Active; 'I' for Inactive)
REMARK    1  A    between atoms: C_1  and  C_4
REMARK    2  A    between atoms: C_2  and  C_3
REMARK    3  A    between atoms: C_7  and  O_10
REMARK    4  A    between atoms: O_10  and  C_11
REMARK                            x       y       z     vdW  Elec       q    Type
REMARK                         _______ _______ _______ _____ _____    ______ ____
ROOT
ATOM      1  C   LIG A   1     -12.463   8.636 129.473  0.00  0.00    -0.025 A 
ATOM      2  C   LIG A   1     -11.529   8.226 128.516  0.00  0.00    +0.011 A 
ATOM      3  C   LIG A   1     -10.880   6.994 128.639  0.00  0.00    +0.046 A 
ATOM      4  C   LIG A   1     -11.143   6.154 129.724  0.00  0.00    +0.120 A 
ATOM      5  C   LIG A   1     -12.055   6.566 130.692  0.00  0.00    +0.046 A 
ATOM      6  C   LIG A   1     -12.705   7.801 130.569  0.00  0.00    +0.011 A 
ENDROOT
BRANCH   1   7
ATOM      7  C   LIG A   1     -13.109   9.950 129.328  0.00  0.00    +0.003 C 
ATOM      8  C   LIG A   1     -13.231  10.845 130.320  0.00  0.00    -0.030 C 
ATOM      9  C   LIG A   1     -13.887  12.179 130.161  0.00  0.00    +0.035 C 
ENDBRANCH   1   7
BRANCH   4  10
ATOM     10  O   LIG A   1     -10.445   4.978 129.723  0.00  0.00    -0.495 OA
ATOM     11  C   LIG A   1     -11.063   3.868 130.363  0.00  0.00    +0.277 C 
ENDBRANCH   4  10
TORSDOF 2
ENDMDL
MODEL 2
REMARK VINA RESULT:      -5.4      9.818     13.158
REMARK  Name = NuBBE_1988
REMARK  4 active torsions:
REMARK  status: ('A' for Active; 'I' for Inactive)
REMARK    1  A    between atoms: C_1  and  C_4
REMARK    2  A    between atoms: C_2  and  C_3
REMARK    3  A    between atoms: C_7  and  O_10
REMARK    4  A    between atoms: O_10  and  C_11
REMARK                            x       y       z     vdW  Elec       q    Type
REMARK                         _______ _______ _______ _____ _____    ______ ____
ROOT
ATOM      1  C   LIG A   1      -6.761  -1.920 123.148  0.00  0.00    -0.025 A 
ATOM      2  C   LIG A   1      -6.698  -0.546 123.406  0.00  0.00    +0.011 A 
ATOM      3  C   LIG A   1      -7.868   0.215 123.488  0.00  0.00    +0.046 A 
ATOM      4  C   LIG A   1      -9.120  -0.377 123.303  0.00  0.00    +0.120 A 
ATOM      5  C   LIG A   1      -9.189  -1.740 123.024  0.00  0.00    +0.046 A 
ATOM      6  C   LIG A   1      -8.017  -2.503 122.942  0.00  0.00    +0.011 A 
ENDROOT
BRANCH   1   7
ATOM      7  C   LIG A   1      -5.511  -2.687 123.043  0.00  0.00    +0.003 C 
ATOM      8  C   LIG A   1      -5.236  -3.787 123.761  0.00  0.00    -0.030 C 
ATOM      9  C   LIG A   1      -3.963  -4.561 123.645  0.00  0.00    +0.035 C 
ENDBRANCH   1   7
BRANCH   4  10
ATOM     10  O   LIG A   1     -10.182   0.477 123.413  0.00  0.00    -0.495 OA
ATOM     11  C   LIG A   1     -10.036   1.567 124.314  0.00  0.00    +0.277 C 
ENDBRANCH   4  10
TORSDOF 2
ENDMDL
MODEL 3
REMARK VINA RESULT:      -5.2      2.586      4.926
REMARK  Name = NuBBE_1988
REMARK  4 active torsions:
REMARK  status: ('A' for Active; 'I' for Inactive)
REMARK    1  A    between atoms: C_1  and  C_4
REMARK    2  A    between atoms: C_2  and  C_3
REMARK    3  A    between atoms: C_7  and  O_10
REMARK    4  A    between atoms: O_10  and  C_11
REMARK                            x       y       z     vdW  Elec       q    Type
REMARK                         _______ _______ _______ _____ _____    ______ ____
ROOT
ATOM      1  C   LIG A   1     -10.395   7.222 130.127  0.00  0.00    -0.025 A 
ATOM      2  C   LIG A   1     -10.270   7.908 128.914  0.00  0.00    +0.011 A 
ATOM      3  C   LIG A   1     -11.354   8.612 128.381  0.00  0.00    +0.046 A 
ATOM      4  C   LIG A   1     -12.584   8.635 129.042  0.00  0.00    +0.120 A 
ATOM      5  C   LIG A   1     -12.723   7.935 130.239  0.00  0.00    +0.046 A 
ATOM      6  C   LIG A   1     -11.637   7.230 130.773  0.00  0.00    +0.011 A 
ENDROOT
BRANCH   1   7
ATOM      7  C   LIG A   1      -9.243   6.469 130.647  0.00  0.00    +0.003 C 
ATOM      8  C   LIG A   1      -8.058   7.019 130.954  0.00  0.00    -0.030 C 
ATOM      9  C   LIG A   1      -6.894   6.246 131.484  0.00  0.00    +0.035 C 
ENDBRANCH   1   7
BRANCH   4  10
ATOM     10  O   LIG A   1     -13.560   9.362 128.417  0.00  0.00    -0.495 OA
ATOM     11  C   LIG A   1     -13.840  10.648 128.953  0.00  0.00    +0.277 C 
ENDBRANCH   4  10
TORSDOF 2
ENDMDL
MODEL 4
REMARK VINA RESULT:      -5.2      2.956      4.882
REMARK  Name = NuBBE_1988
REMARK  4 active torsions:
REMARK  status: ('A' for Active; 'I' for Inactive)
REMARK    1  A    between atoms: C_1  and  C_4
REMARK    2  A    between atoms: C_2  and  C_3
REMARK    3  A    between atoms: C_7  and  O_10
REMARK    4  A    between atoms: O_10  and  C_11
REMARK                            x       y       z     vdW  Elec       q    Type
REMARK                         _______ _______ _______ _____ _____    ______ ____
ROOT
ATOM      1  C   LIG A   1      -9.593   6.652 131.146  0.00  0.00    -0.025 A 
ATOM      2  C   LIG A   1      -9.784   7.267 129.904  0.00  0.00    +0.011 A 
ATOM      3  C   LIG A   1     -11.075   7.499 129.418  0.00  0.00    +0.046 A 
ATOM      4  C   LIG A   1     -12.196   7.112 130.156  0.00  0.00    +0.120 A 
ATOM      5  C   LIG A   1     -12.012   6.479 131.383  0.00  0.00    +0.046 A 
ATOM      6  C   LIG A   1     -10.719   6.246 131.870  0.00  0.00    +0.011 A 
ENDROOT
BRANCH   1   7
ATOM      7  C   LIG A   1      -8.222   6.398 131.616  0.00  0.00    +0.003 C 
ATOM      8  C   LIG A   1      -7.121   6.915 131.049  0.00  0.00    -0.030 C 
ATOM      9  C   LIG A   1      -5.732   6.653 131.536  0.00  0.00    +0.035 C 
ENDBRANCH   1   7
BRANCH   4  10
ATOM     10  O   LIG A   1     -13.398   7.400 129.571  0.00  0.00    -0.495 OA
ATOM     11  C   LIG A   1     -13.530   7.077 128.192  0.00  0.00    +0.277 C 
ENDBRANCH   4  10
TORSDOF 2
ENDMDL
MODEL 5
REMARK VINA RESULT:      -5.1     10.952     12.558
REMARK  Name = NuBBE_1988
REMARK  4 active torsions:
REMARK  status: ('A' for Active; 'I' for Inactive)
REMARK    1  A    between atoms: C_1  and  C_4
REMARK    2  A    between atoms: C_2  and  C_3
REMARK    3  A    between atoms: C_7  and  O_10
REMARK    4  A    between atoms: O_10  and  C_11
REMARK                            x       y       z     vdW  Elec       q    Type
REMARK                         _______ _______ _______ _____ _____    ______ ____
ROOT
ATOM      1  C   LIG A   1      -7.863  -2.977 128.637  0.00  0.00    -0.025 A 
ATOM      2  C   LIG A   1      -8.729  -3.869 127.996  0.00  0.00    +0.011 A 
ATOM      3  C   LIG A   1      -9.263  -3.562 126.741  0.00  0.00    +0.046 A 
ATOM      4  C   LIG A   1      -8.953  -2.356 126.109  0.00  0.00    +0.120 A 
ATOM      5  C   LIG A   1      -8.109  -1.453 126.752  0.00  0.00    +0.046 A 
ATOM      6  C   LIG A   1      -7.574  -1.760 128.009  0.00  0.00    +0.011 A 
ENDROOT
BRANCH   1   7
ATOM      7  C   LIG A   1      -7.339  -3.319 129.968  0.00  0.00    +0.003 C 
ATOM      8  C   LIG A   1      -6.267  -4.098 130.181  0.00  0.00    -0.030 C 
ATOM      9  C   LIG A   1      -5.741  -4.438 131.539  0.00  0.00    +0.035 C 
ENDBRANCH   1   7
BRANCH   4  10
ATOM     10  O   LIG A   1      -9.538  -2.180 124.885  0.00  0.00    -0.495 OA
ATOM     11  C   LIG A   1      -9.350  -3.219 123.932  0.00  0.00    +0.277 C 
ENDBRANCH   4  10
TORSDOF 2
ENDMDL
MODEL 6
REMARK VINA RESULT:      -5.1      2.448      5.372
REMARK  Name = NuBBE_1988
REMARK  4 active torsions:
REMARK  status: ('A' for Active; 'I' for Inactive)
REMARK    1  A    between atoms: C_1  and  C_4
REMARK    2  A    between atoms: C_2  and  C_3
REMARK    3  A    between atoms: C_7  and  O_10
REMARK    4  A    between atoms: O_10  and  C_11
REMARK                            x       y       z     vdW  Elec       q    Type
REMARK                         _______ _______ _______ _____ _____    ______ ____
ROOT
ATOM      1  C   LIG A   1     -10.339   6.465 131.588  0.00  0.00    -0.025 A 
ATOM      2  C   LIG A   1     -11.721   6.679 131.544  0.00  0.00    +0.011 A 
ATOM      3  C   LIG A   1     -12.302   7.351 130.464  0.00  0.00    +0.046 A 
ATOM      4  C   LIG A   1     -11.514   7.832 129.415  0.00  0.00    +0.120 A 
ATOM      5  C   LIG A   1     -10.134   7.643 129.464  0.00  0.00    +0.046 A 
ATOM      6  C   LIG A   1      -9.553   6.969 130.546  0.00  0.00    +0.011 A 
ENDROOT
BRANCH   1   7
ATOM      7  C   LIG A   1      -9.757   5.778 132.750  0.00  0.00    +0.003 C 
ATOM      8  C   LIG A   1      -9.407   4.482 132.765  0.00  0.00    -0.030 C 
ATOM      9  C   LIG A   1      -8.815   3.792 133.951  0.00  0.00    +0.035 C 
ENDBRANCH   1   7
BRANCH   4  10
ATOM     10  O   LIG A   1     -12.205   8.467 128.421  0.00  0.00    -0.495 OA
ATOM     11  C   LIG A   1     -13.158   9.442 128.827  0.00  0.00    +0.277 C 
ENDBRANCH   4  10
TORSDOF 2
ENDMDL
MODEL 7
REMARK VINA RESULT:      -5.0     10.753     12.377
REMARK  Name = NuBBE_1988
REMARK  4 active torsions:
REMARK  status: ('A' for Active; 'I' for Inactive)
REMARK    1  A    between atoms: C_1  and  C_4
REMARK    2  A    between atoms: C_2  and  C_3
REMARK    3  A    between atoms: C_7  and  O_10
REMARK    4  A    between atoms: O_10  and  C_11
REMARK                            x       y       z     vdW  Elec       q    Type
REMARK                         _______ _______ _______ _____ _____    ______ ____
ROOT
ATOM      1  C   LIG A   1      -8.041  -2.999 128.482  0.00  0.00    -0.025 A 
ATOM      2  C   LIG A   1      -7.678  -1.732 128.014  0.00  0.00    +0.011 A 
ATOM      3  C   LIG A   1      -8.148  -1.268 126.781  0.00  0.00    +0.046 A 
ATOM      4  C   LIG A   1      -8.977  -2.065 125.988  0.00  0.00    +0.120 A 
ATOM      5  C   LIG A   1      -9.324  -3.337 126.438  0.00  0.00    +0.046 A 
ATOM      6  C   LIG A   1      -8.854  -3.801 127.673  0.00  0.00    +0.011 A 
ENDROOT
BRANCH   1   7
ATOM      7  C   LIG A   1      -7.508  -3.467 129.771  0.00  0.00    +0.003 C 
ATOM      8  C   LIG A   1      -6.231  -3.822 129.977  0.00  0.00    -0.030 C 
ATOM      9  C   LIG A   1      -5.699  -4.294 131.292  0.00  0.00    +0.035 C 
ENDBRANCH   1   7
BRANCH   4  10
ATOM     10  O   LIG A   1      -9.369  -1.493 124.809  0.00  0.00    -0.495 OA
ATOM     11  C   LIG A   1      -8.794  -2.023 123.621  0.00  0.00    +0.277 C 
ENDBRANCH   4  10
TORSDOF 2
ENDMDL
MODEL 8
REMARK VINA RESULT:      -4.9     11.818     12.496
REMARK  Name = NuBBE_1988
REMARK  4 active torsions:
REMARK  status: ('A' for Active; 'I' for Inactive)
REMARK    1  A    between atoms: C_1  and  C_4
REMARK    2  A    between atoms: C_2  and  C_3
REMARK    3  A    between atoms: C_7  and  O_10
REMARK    4  A    between atoms: O_10  and  C_11
REMARK                            x       y       z     vdW  Elec       q    Type
REMARK                         _______ _______ _______ _____ _____    ______ ____
ROOT
ATOM      1  C   LIG A   1      -8.388  -2.902 126.893  0.00  0.00    -0.025 A 
ATOM      2  C   LIG A   1      -8.717  -3.665 128.019  0.00  0.00    +0.011 A 
ATOM      3  C   LIG A   1      -7.902  -3.642 129.155  0.00  0.00    +0.046 A 
ATOM      4  C   LIG A   1      -6.740  -2.868 129.184  0.00  0.00    +0.120 A 
ATOM      5  C   LIG A   1      -6.395  -2.123 128.059  0.00  0.00    +0.046 A 
ATOM      6  C   LIG A   1      -7.211  -2.146 126.920  0.00  0.00    +0.011 A 
ENDROOT
BRANCH   1   7
ATOM      7  C   LIG A   1      -9.253  -2.968 125.705  0.00  0.00    +0.003 C 
ATOM      8  C   LIG A   1      -8.829  -3.321 124.481  0.00  0.00    -0.030 C 
ATOM      9  C   LIG A   1      -9.717  -3.387 123.280  0.00  0.00    +0.035 C 
ENDBRANCH   1   7
BRANCH   4  10
ATOM     10  O   LIG A   1      -6.036  -2.932 130.355  0.00  0.00    -0.495 OA
ATOM     11  C   LIG A   1      -5.846  -4.224 130.916  0.00  0.00    +0.277 C 
ENDBRANCH   4  10
TORSDOF 2
ENDMDL
MODEL 9
REMARK VINA RESULT:      -4.8      3.337      5.635
REMARK  Name = NuBBE_1988
REMARK  4 active torsions:
REMARK  status: ('A' for Active; 'I' for Inactive)
REMARK    1  A    between atoms: C_1  and  C_4
REMARK    2  A    between atoms: C_2  and  C_3
REMARK    3  A    between atoms: C_7  and  O_10
REMARK    4  A    between atoms: O_10  and  C_11
REMARK                            x       y       z     vdW  Elec       q    Type
REMARK                         _______ _______ _______ _____ _____    ______ ____
ROOT
ATOM      1  C   LIG A   1      -9.024   6.228 132.087  0.00  0.00    -0.025 A 
ATOM      2  C   LIG A   1      -8.660   6.840 130.882  0.00  0.00    +0.011 A 
ATOM      3  C   LIG A   1      -9.638   7.291 129.990  0.00  0.00    +0.046 A 
ATOM      4  C   LIG A   1     -10.995   7.130 130.279  0.00  0.00    +0.120 A 
ATOM      5  C   LIG A   1     -11.365   6.502 131.466  0.00  0.00    +0.046 A 
ATOM      6  C   LIG A   1     -10.385   6.050 132.359  0.00  0.00    +0.011 A 
ENDROOT
BRANCH   1   7
ATOM      7  C   LIG A   1      -7.971   5.742 132.990  0.00  0.00    +0.003 C 
ATOM      8  C   LIG A   1      -8.199   5.217 134.204  0.00  0.00    -0.030 C 
ATOM      9  C   LIG A   1      -7.121   4.723 135.115  0.00  0.00    +0.035 C 
ENDBRANCH   1   7
BRANCH   4  10
ATOM     10  O   LIG A   1     -11.847   7.617 129.326  0.00  0.00    -0.495 OA
ATOM     11  C   LIG A   1     -12.588   8.782 129.668  0.00  0.00    +0.277 C 
ENDBRANCH   4  10
TORSDOF 2
ENDMDL
