MODEL 1
REMARK VINA RESULT:      -5.9      0.000      0.000
REMARK  Name = NuBBE_1627
REMARK  12 active torsions:
REMARK  status: ('A' for Active; 'I' for Inactive)
REMARK    1  A    between atoms: C_1  and  C_10
REMARK    2  A    between atoms: C_2  and  C_3
REMARK    3  A    between atoms: C_2  and  C_9
REMARK    4  A    between atoms: C_3  and  C_4
REMARK    5  A    between atoms: C_4  and  C_5
REMARK    6  A    between atoms: C_6  and  C_7
REMARK    7  A    between atoms: C_6  and  C_8
REMARK    8  A    between atoms: C_10  and  C_11
REMARK    9  A    between atoms: C_11  and  C_12
REMARK   10  A    between atoms: C_12  and  C_13
REMARK   11  A    between atoms: C_12  and  C_15
REMARK   12  A    between atoms: C_12  and  O_16
REMARK                            x       y       z     vdW  Elec       q    Type
REMARK                         _______ _______ _______ _____ _____    ______ ____
ROOT
ATOM      1  C   LIG A   1      -8.172  -1.312 126.663  0.00  0.00    -0.028 C 
ATOM      2  C   LIG A   1      -8.756  -2.525 126.641  0.00  0.00    -0.076 C 
ATOM      3  C   LIG A   1      -8.516  -3.460 127.805  0.00  0.00    +0.038 C 
ENDROOT
BRANCH   2   4
ATOM      4  C   LIG A   1      -9.605  -3.060 125.508  0.00  0.00    +0.034 C 
BRANCH   4   5
ATOM      5  C   LIG A   1      -8.833  -3.203 124.185  0.00  0.00    +0.031 C 
BRANCH   5   6
ATOM      6  C   LIG A   1      -7.415  -3.691 124.351  0.00  0.00    -0.028 C 
ATOM      7  C   LIG A   1      -6.294  -3.147 123.848  0.00  0.00    -0.080 C 
ATOM      8  C   LIG A   1      -6.289  -1.937 122.960  0.00  0.00    +0.038 C 
ATOM      9  C   LIG A   1      -4.947  -3.748 124.147  0.00  0.00    +0.038 C 
ENDBRANCH   5   6
ENDBRANCH   4   5
ENDBRANCH   2   4
BRANCH   1  10
ATOM     10  C   LIG A   1      -8.097  -0.205 125.671  0.00  0.00    +0.030 C 
BRANCH  10  11
ATOM     11  C   LIG A   1      -9.418   0.588 125.532  0.00  0.00    +0.043 C 
BRANCH  11  12
ATOM     12  C   LIG A   1      -9.828   1.104 124.112  0.00  0.00    +0.081 C 
ATOM     13  C   LIG A   1      -9.589   0.143 122.945  0.00  0.00    +0.046 C 
BRANCH  12  14
ATOM     14  C   LIG A   1      -9.144   2.402 123.724  0.00  0.00    -0.001 C 
ATOM     15  C   LIG A   1      -8.456   3.230 124.521  0.00  0.00    +0.007 C 
ENDBRANCH  12  14
BRANCH  12  16
ATOM     16  O   LIG A   1     -11.235   1.372 124.134  0.00  0.00    -0.385 OA
ATOM     17  H   LIG A   1     -11.395   2.133 123.554  0.00  0.00    +0.211 HD
ENDBRANCH  12  16
ENDBRANCH  11  12
ENDBRANCH  10  11
ENDBRANCH   1  10
TORSDOF 8
ENDMDL
MODEL 2
REMARK VINA RESULT:      -5.9      2.749      5.312
REMARK  Name = NuBBE_1627
REMARK  12 active torsions:
REMARK  status: ('A' for Active; 'I' for Inactive)
REMARK    1  A    between atoms: C_1  and  C_10
REMARK    2  A    between atoms: C_2  and  C_3
REMARK    3  A    between atoms: C_2  and  C_9
REMARK    4  A    between atoms: C_3  and  C_4
REMARK    5  A    between atoms: C_4  and  C_5
REMARK    6  A    between atoms: C_6  and  C_7
REMARK    7  A    between atoms: C_6  and  C_8
REMARK    8  A    between atoms: C_10  and  C_11
REMARK    9  A    between atoms: C_11  and  C_12
REMARK   10  A    between atoms: C_12  and  C_13
REMARK   11  A    between atoms: C_12  and  C_15
REMARK   12  A    between atoms: C_12  and  O_16
REMARK                            x       y       z     vdW  Elec       q    Type
REMARK                         _______ _______ _______ _____ _____    ______ ____
ROOT
ATOM      1  C   LIG A   1      -9.128  -3.160 125.918  0.00  0.00    -0.028 C 
ATOM      2  C   LIG A   1      -8.582  -3.364 124.704  0.00  0.00    -0.076 C 
ATOM      3  C   LIG A   1      -9.455  -3.176 123.483  0.00  0.00    +0.038 C 
ENDROOT
BRANCH   2   4
ATOM      4  C   LIG A   1      -7.161  -3.822 124.456  0.00  0.00    +0.034 C 
BRANCH   4   5
ATOM      5  C   LIG A   1      -6.292  -2.760 123.761  0.00  0.00    +0.031 C 
BRANCH   5   6
ATOM      6  C   LIG A   1      -5.643  -1.781 124.710  0.00  0.00    -0.028 C 
ATOM      7  C   LIG A   1      -6.069  -0.549 125.038  0.00  0.00    -0.080 C 
ATOM      8  C   LIG A   1      -7.291   0.089 124.443  0.00  0.00    +0.038 C 
ATOM      9  C   LIG A   1      -5.314   0.284 126.039  0.00  0.00    +0.038 C 
ENDBRANCH   5   6
ENDBRANCH   4   5
ENDBRANCH   2   4
BRANCH   1  10
ATOM     10  C   LIG A   1      -8.618  -3.352 127.303  0.00  0.00    +0.030 C 
BRANCH  10  11
ATOM     11  C   LIG A   1      -7.786  -2.156 127.825  0.00  0.00    +0.043 C 
BRANCH  11  12
ATOM     12  C   LIG A   1      -6.652  -2.439 128.866  0.00  0.00    +0.081 C 
ATOM     13  C   LIG A   1      -5.234  -2.568 128.308  0.00  0.00    +0.046 C 
BRANCH  12  14
ATOM     14  C   LIG A   1      -6.890  -3.695 129.686  0.00  0.00    -0.001 C 
ATOM     15  C   LIG A   1      -6.020  -4.320 130.490  0.00  0.00    +0.007 C 
ENDBRANCH  12  14
BRANCH  12  16
ATOM     16  O   LIG A   1      -6.626  -1.345 129.791  0.00  0.00    -0.385 OA
ATOM     17  H   LIG A   1      -7.474  -0.879 129.714  0.00  0.00    +0.211 HD
ENDBRANCH  12  16
ENDBRANCH  11  12
ENDBRANCH  10  11
ENDBRANCH   1  10
TORSDOF 8
ENDMDL
MODEL 3
REMARK VINA RESULT:      -5.7      7.440      9.534
REMARK  Name = NuBBE_1627
REMARK  12 active torsions:
REMARK  status: ('A' for Active; 'I' for Inactive)
REMARK    1  A    between atoms: C_1  and  C_10
REMARK    2  A    between atoms: C_2  and  C_3
REMARK    3  A    between atoms: C_2  and  C_9
REMARK    4  A    between atoms: C_3  and  C_4
REMARK    5  A    between atoms: C_4  and  C_5
REMARK    6  A    between atoms: C_6  and  C_7
REMARK    7  A    between atoms: C_6  and  C_8
REMARK    8  A    between atoms: C_10  and  C_11
REMARK    9  A    between atoms: C_11  and  C_12
REMARK   10  A    between atoms: C_12  and  C_13
REMARK   11  A    between atoms: C_12  and  C_15
REMARK   12  A    between atoms: C_12  and  O_16
REMARK                            x       y       z     vdW  Elec       q    Type
REMARK                         _______ _______ _______ _____ _____    ______ ____
ROOT
ATOM      1  C   LIG A   1     -11.636   6.731 131.787  0.00  0.00    -0.028 C 
ATOM      2  C   LIG A   1     -10.534   5.998 131.539  0.00  0.00    -0.076 C 
ATOM      3  C   LIG A   1      -9.447   5.958 132.589  0.00  0.00    +0.038 C 
ENDROOT
BRANCH   2   4
ATOM      4  C   LIG A   1     -10.264   5.241 130.256  0.00  0.00    +0.034 C 
BRANCH   4   5
ATOM      5  C   LIG A   1     -10.749   3.782 130.298  0.00  0.00    +0.031 C 
BRANCH   5   6
ATOM      6  C   LIG A   1      -9.639   2.763 130.211  0.00  0.00    -0.028 C 
ATOM      7  C   LIG A   1      -9.083   2.064 131.216  0.00  0.00    -0.080 C 
ATOM      8  C   LIG A   1      -9.471   2.236 132.656  0.00  0.00    +0.038 C 
ATOM      9  C   LIG A   1      -8.003   1.052 130.944  0.00  0.00    +0.038 C 
ENDBRANCH   5   6
ENDBRANCH   4   5
ENDBRANCH   2   4
BRANCH   1  10
ATOM     10  C   LIG A   1     -12.826   7.081 130.964  0.00  0.00    +0.030 C 
BRANCH  10  11
ATOM     11  C   LIG A   1     -12.788   8.524 130.408  0.00  0.00    +0.043 C 
BRANCH  11  12
ATOM     12  C   LIG A   1     -12.716   8.720 128.857  0.00  0.00    +0.081 C 
ATOM     13  C   LIG A   1     -13.566   7.770 128.012  0.00  0.00    +0.046 C 
BRANCH  12  14
ATOM     14  C   LIG A   1     -11.306   8.617 128.303  0.00  0.00    -0.001 C 
ATOM     15  C   LIG A   1     -10.819   7.673 127.487  0.00  0.00    +0.007 C 
ENDBRANCH  12  14
BRANCH  12  16
ATOM     16  O   LIG A   1     -13.175  10.045 128.563  0.00  0.00    -0.385 OA
ATOM     17  H   LIG A   1     -12.597  10.665 129.036  0.00  0.00    +0.211 HD
ENDBRANCH  12  16
ENDBRANCH  11  12
ENDBRANCH  10  11
ENDBRANCH   1  10
TORSDOF 8
ENDMDL
MODEL 4
REMARK VINA RESULT:      -5.6      3.402      5.900
REMARK  Name = NuBBE_1627
REMARK  12 active torsions:
REMARK  status: ('A' for Active; 'I' for Inactive)
REMARK    1  A    between atoms: C_1  and  C_10
REMARK    2  A    between atoms: C_2  and  C_3
REMARK    3  A    between atoms: C_2  and  C_9
REMARK    4  A    between atoms: C_3  and  C_4
REMARK    5  A    between atoms: C_4  and  C_5
REMARK    6  A    between atoms: C_6  and  C_7
REMARK    7  A    between atoms: C_6  and  C_8
REMARK    8  A    between atoms: C_10  and  C_11
REMARK    9  A    between atoms: C_11  and  C_12
REMARK   10  A    between atoms: C_12  and  C_13
REMARK   11  A    between atoms: C_12  and  C_15
REMARK   12  A    between atoms: C_12  and  O_16
REMARK                            x       y       z     vdW  Elec       q    Type
REMARK                         _______ _______ _______ _____ _____    ______ ____
ROOT
ATOM      1  C   LIG A   1      -8.034  -2.165 127.583  0.00  0.00    -0.028 C 
ATOM      2  C   LIG A   1      -8.685  -1.977 126.419  0.00  0.00    -0.076 C 
ATOM      3  C   LIG A   1      -8.710  -0.586 125.827  0.00  0.00    +0.038 C 
ENDROOT
BRANCH   2   4
ATOM      4  C   LIG A   1      -9.448  -3.047 125.668  0.00  0.00    +0.034 C 
BRANCH   4   5
ATOM      5  C   LIG A   1      -8.839  -3.378 124.295  0.00  0.00    +0.031 C 
BRANCH   5   6
ATOM      6  C   LIG A   1      -7.378  -3.756 124.346  0.00  0.00    -0.028 C 
ATOM      7  C   LIG A   1      -6.337  -3.091 123.815  0.00  0.00    -0.080 C 
ATOM      8  C   LIG A   1      -6.485  -1.832 123.010  0.00  0.00    +0.038 C 
ATOM      9  C   LIG A   1      -4.931  -3.594 123.996  0.00  0.00    +0.038 C 
ENDBRANCH   5   6
ENDBRANCH   4   5
ENDBRANCH   2   4
BRANCH   1  10
ATOM     10  C   LIG A   1      -7.896  -3.338 128.489  0.00  0.00    +0.030 C 
BRANCH  10  11
ATOM     11  C   LIG A   1      -7.370  -2.971 129.897  0.00  0.00    +0.043 C 
BRANCH  11  12
ATOM     12  C   LIG A   1      -5.876  -3.292 130.238  0.00  0.00    +0.081 C 
ATOM     13  C   LIG A   1      -4.854  -3.018 129.134  0.00  0.00    +0.046 C 
BRANCH  12  14
ATOM     14  C   LIG A   1      -5.653  -4.734 130.659  0.00  0.00    -0.001 C 
ATOM     15  C   LIG A   1      -5.334  -5.186 131.878  0.00  0.00    +0.007 C 
ENDBRANCH  12  14
BRANCH  12  16
ATOM     16  O   LIG A   1      -5.498  -2.476 131.353  0.00  0.00    -0.385 OA
ATOM     17  H   LIG A   1      -4.562  -2.243 131.239  0.00  0.00    +0.211 HD
ENDBRANCH  12  16
ENDBRANCH  11  12
ENDBRANCH  10  11
ENDBRANCH   1  10
TORSDOF 8
ENDMDL
MODEL 5
REMARK VINA RESULT:      -5.6      8.605     10.233
REMARK  Name = NuBBE_1627
REMARK  12 active torsions:
REMARK  status: ('A' for Active; 'I' for Inactive)
REMARK    1  A    between atoms: C_1  and  C_10
REMARK    2  A    between atoms: C_2  and  C_3
REMARK    3  A    between atoms: C_2  and  C_9
REMARK    4  A    between atoms: C_3  and  C_4
REMARK    5  A    between atoms: C_4  and  C_5
REMARK    6  A    between atoms: C_6  and  C_7
REMARK    7  A    between atoms: C_6  and  C_8
REMARK    8  A    between atoms: C_10  and  C_11
REMARK    9  A    between atoms: C_11  and  C_12
REMARK   10  A    between atoms: C_12  and  C_13
REMARK   11  A    between atoms: C_12  and  C_15
REMARK   12  A    between atoms: C_12  and  O_16
REMARK                            x       y       z     vdW  Elec       q    Type
REMARK                         _______ _______ _______ _____ _____    ______ ____
ROOT
ATOM      1  C   LIG A   1     -10.338   6.321 129.502  0.00  0.00    -0.028 C 
ATOM      2  C   LIG A   1     -10.530   5.524 130.570  0.00  0.00    -0.076 C 
ATOM      3  C   LIG A   1     -10.873   4.071 130.330  0.00  0.00    +0.038 C 
ENDROOT
BRANCH   2   4
ATOM      4  C   LIG A   1     -10.481   5.977 132.013  0.00  0.00    +0.034 C 
BRANCH   4   5
ATOM      5  C   LIG A   1      -9.161   5.619 132.718  0.00  0.00    +0.031 C 
BRANCH   5   6
ATOM      6  C   LIG A   1      -7.970   6.406 132.229  0.00  0.00    -0.028 C 
ATOM      7  C   LIG A   1      -7.006   5.998 131.384  0.00  0.00    -0.080 C 
ATOM      8  C   LIG A   1      -6.942   4.613 130.809  0.00  0.00    +0.038 C 
ATOM      9  C   LIG A   1      -5.903   6.934 130.968  0.00  0.00    +0.038 C 
ENDBRANCH   5   6
ENDBRANCH   4   5
ENDBRANCH   2   4
BRANCH   1  10
ATOM     10  C   LIG A   1     -10.101   7.783 129.359  0.00  0.00    +0.030 C 
BRANCH  10  11
ATOM     11  C   LIG A   1     -11.099   8.479 128.403  0.00  0.00    +0.043 C 
BRANCH  11  12
ATOM     12  C   LIG A   1     -12.542   8.781 128.928  0.00  0.00    +0.081 C 
ATOM     13  C   LIG A   1     -12.814   8.448 130.396  0.00  0.00    +0.046 C 
BRANCH  12  14
ATOM     14  C   LIG A   1     -13.630   8.077 128.136  0.00  0.00    -0.001 C 
ATOM     15  C   LIG A   1     -13.783   6.758 127.958  0.00  0.00    +0.007 C 
ENDBRANCH  12  14
BRANCH  12  16
ATOM     16  O   LIG A   1     -12.774  10.187 128.782  0.00  0.00    -0.385 OA
ATOM     17  H   LIG A   1     -12.760  10.578 129.670  0.00  0.00    +0.211 HD
ENDBRANCH  12  16
ENDBRANCH  11  12
ENDBRANCH  10  11
ENDBRANCH   1  10
TORSDOF 8
ENDMDL
MODEL 6
REMARK VINA RESULT:      -5.5      1.149      3.326
REMARK  Name = NuBBE_1627
REMARK  12 active torsions:
REMARK  status: ('A' for Active; 'I' for Inactive)
REMARK    1  A    between atoms: C_1  and  C_10
REMARK    2  A    between atoms: C_2  and  C_3
REMARK    3  A    between atoms: C_2  and  C_9
REMARK    4  A    between atoms: C_3  and  C_4
REMARK    5  A    between atoms: C_4  and  C_5
REMARK    6  A    between atoms: C_6  and  C_7
REMARK    7  A    between atoms: C_6  and  C_8
REMARK    8  A    between atoms: C_10  and  C_11
REMARK    9  A    between atoms: C_11  and  C_12
REMARK   10  A    between atoms: C_12  and  C_13
REMARK   11  A    between atoms: C_12  and  C_15
REMARK   12  A    between atoms: C_12  and  O_16
REMARK                            x       y       z     vdW  Elec       q    Type
REMARK                         _______ _______ _______ _____ _____    ______ ____
ROOT
ATOM      1  C   LIG A   1      -6.206  -1.782 123.600  0.00  0.00    -0.028 C 
ATOM      2  C   LIG A   1      -6.348  -3.041 124.057  0.00  0.00    -0.076 C 
ATOM      3  C   LIG A   1      -5.102  -3.854 124.326  0.00  0.00    +0.038 C 
ENDROOT
BRANCH   2   4
ATOM      4  C   LIG A   1      -7.672  -3.740 124.279  0.00  0.00    +0.034 C 
BRANCH   4   5
ATOM      5  C   LIG A   1      -8.633  -2.948 125.183  0.00  0.00    +0.031 C 
BRANCH   5   6
ATOM      6  C   LIG A   1      -8.624  -3.392 126.626  0.00  0.00    -0.028 C 
ATOM      7  C   LIG A   1      -7.887  -2.895 127.634  0.00  0.00    -0.080 C 
ATOM      8  C   LIG A   1      -6.876  -1.799 127.457  0.00  0.00    +0.038 C 
ATOM      9  C   LIG A   1      -8.032  -3.435 129.031  0.00  0.00    +0.038 C 
ENDBRANCH   5   6
ENDBRANCH   4   5
ENDBRANCH   2   4
BRANCH   1  10
ATOM     10  C   LIG A   1      -7.179  -0.756 123.136  0.00  0.00    +0.030 C 
BRANCH  10  11
ATOM     11  C   LIG A   1      -7.437   0.362 124.173  0.00  0.00    +0.043 C 
BRANCH  11  12
ATOM     12  C   LIG A   1      -8.914   0.818 124.420  0.00  0.00    +0.081 C 
ATOM     13  C   LIG A   1      -9.254   2.258 124.031  0.00  0.00    +0.046 C 
BRANCH  12  14
ATOM     14  C   LIG A   1      -9.356   0.665 125.864  0.00  0.00    -0.001 C 
ATOM     15  C   LIG A   1      -8.785   1.198 126.952  0.00  0.00    +0.007 C 
ENDBRANCH  12  14
BRANCH  12  16
ATOM     16  O   LIG A   1      -9.768  -0.025 123.638  0.00  0.00    -0.385 OA
ATOM     17  H   LIG A   1      -9.592  -0.943 123.902  0.00  0.00    +0.211 HD
ENDBRANCH  12  16
ENDBRANCH  11  12
ENDBRANCH  10  11
ENDBRANCH   1  10
TORSDOF 8
ENDMDL
MODEL 7
REMARK VINA RESULT:      -5.5      3.137      5.107
REMARK  Name = NuBBE_1627
REMARK  12 active torsions:
REMARK  status: ('A' for Active; 'I' for Inactive)
REMARK    1  A    between atoms: C_1  and  C_10
REMARK    2  A    between atoms: C_2  and  C_3
REMARK    3  A    between atoms: C_2  and  C_9
REMARK    4  A    between atoms: C_3  and  C_4
REMARK    5  A    between atoms: C_4  and  C_5
REMARK    6  A    between atoms: C_6  and  C_7
REMARK    7  A    between atoms: C_6  and  C_8
REMARK    8  A    between atoms: C_10  and  C_11
REMARK    9  A    between atoms: C_11  and  C_12
REMARK   10  A    between atoms: C_12  and  C_13
REMARK   11  A    between atoms: C_12  and  C_15
REMARK   12  A    between atoms: C_12  and  O_16
REMARK                            x       y       z     vdW  Elec       q    Type
REMARK                         _______ _______ _______ _____ _____    ______ ____
ROOT
ATOM      1  C   LIG A   1      -8.546  -3.180 128.805  0.00  0.00    -0.028 C 
ATOM      2  C   LIG A   1      -7.698  -2.196 129.159  0.00  0.00    -0.076 C 
ATOM      3  C   LIG A   1      -7.938  -1.477 130.468  0.00  0.00    +0.038 C 
ENDROOT
BRANCH   2   4
ATOM      4  C   LIG A   1      -6.536  -1.707 128.322  0.00  0.00    +0.034 C 
BRANCH   4   5
ATOM      5  C   LIG A   1      -5.334  -2.668 128.328  0.00  0.00    +0.031 C 
BRANCH   5   6
ATOM      6  C   LIG A   1      -4.596  -2.719 129.643  0.00  0.00    -0.028 C 
ATOM      7  C   LIG A   1      -4.692  -3.654 130.605  0.00  0.00    -0.080 C 
ATOM      8  C   LIG A   1      -5.631  -4.823 130.530  0.00  0.00    +0.038 C 
ATOM      9  C   LIG A   1      -3.846  -3.569 131.847  0.00  0.00    +0.038 C 
ENDBRANCH   5   6
ENDBRANCH   4   5
ENDBRANCH   2   4
BRANCH   1  10
ATOM     10  C   LIG A   1      -8.681  -4.007 127.574  0.00  0.00    +0.030 C 
BRANCH  10  11
ATOM     11  C   LIG A   1      -9.582  -3.363 126.494  0.00  0.00    +0.043 C 
BRANCH  11  12
ATOM     12  C   LIG A   1      -8.926  -2.936 125.139  0.00  0.00    +0.081 C 
ATOM     13  C   LIG A   1      -7.716  -3.753 124.683  0.00  0.00    +0.046 C 
BRANCH  12  14
ATOM     14  C   LIG A   1      -8.477  -1.486 125.119  0.00  0.00    -0.001 C 
ATOM     15  C   LIG A   1      -9.033  -0.452 125.763  0.00  0.00    +0.007 C 
ENDBRANCH  12  14
BRANCH  12  16
ATOM     16  O   LIG A   1      -9.917  -3.073 124.113  0.00  0.00    -0.385 OA
ATOM     17  H   LIG A   1     -10.151  -2.179 123.813  0.00  0.00    +0.211 HD
ENDBRANCH  12  16
ENDBRANCH  11  12
ENDBRANCH  10  11
ENDBRANCH   1  10
TORSDOF 8
ENDMDL
MODEL 8
REMARK VINA RESULT:      -5.4      2.346      5.766
REMARK  Name = NuBBE_1627
REMARK  12 active torsions:
REMARK  status: ('A' for Active; 'I' for Inactive)
REMARK    1  A    between atoms: C_1  and  C_10
REMARK    2  A    between atoms: C_2  and  C_3
REMARK    3  A    between atoms: C_2  and  C_9
REMARK    4  A    between atoms: C_3  and  C_4
REMARK    5  A    between atoms: C_4  and  C_5
REMARK    6  A    between atoms: C_6  and  C_7
REMARK    7  A    between atoms: C_6  and  C_8
REMARK    8  A    between atoms: C_10  and  C_11
REMARK    9  A    between atoms: C_11  and  C_12
REMARK   10  A    between atoms: C_12  and  C_13
REMARK   11  A    between atoms: C_12  and  C_15
REMARK   12  A    between atoms: C_12  and  O_16
REMARK                            x       y       z     vdW  Elec       q    Type
REMARK                         _______ _______ _______ _____ _____    ______ ____
ROOT
ATOM      1  C   LIG A   1      -8.877  -1.559 125.100  0.00  0.00    -0.028 C 
ATOM      2  C   LIG A   1      -8.950  -0.244 124.819  0.00  0.00    -0.076 C 
ATOM      3  C   LIG A   1      -9.495   0.687 125.879  0.00  0.00    +0.038 C 
ENDROOT
BRANCH   2   4
ATOM      4  C   LIG A   1      -8.575   0.384 123.494  0.00  0.00    +0.034 C 
BRANCH   4   5
ATOM      5  C   LIG A   1      -8.604   1.922 123.521  0.00  0.00    +0.031 C 
BRANCH   5   6
ATOM      6  C   LIG A   1      -7.416   2.570 122.852  0.00  0.00    -0.028 C 
ATOM      7  C   LIG A   1      -7.413   3.349 121.756  0.00  0.00    -0.080 C 
ATOM      8  C   LIG A   1      -8.650   3.669 120.966  0.00  0.00    +0.038 C 
ATOM      9  C   LIG A   1      -6.132   3.948 121.243  0.00  0.00    +0.038 C 
ENDBRANCH   5   6
ENDBRANCH   4   5
ENDBRANCH   2   4
BRANCH   1  10
ATOM     10  C   LIG A   1      -8.508  -2.750 124.286  0.00  0.00    +0.030 C 
BRANCH  10  11
ATOM     11  C   LIG A   1      -7.108  -3.317 124.623  0.00  0.00    +0.043 C 
BRANCH  11  12
ATOM     12  C   LIG A   1      -5.857  -2.644 123.965  0.00  0.00    +0.081 C 
ATOM     13  C   LIG A   1      -6.017  -2.184 122.515  0.00  0.00    +0.046 C 
BRANCH  12  14
ATOM     14  C   LIG A   1      -4.621  -3.525 123.985  0.00  0.00    -0.001 C 
ATOM     15  C   LIG A   1      -4.510  -4.782 123.536  0.00  0.00    +0.007 C 
ENDBRANCH  12  14
BRANCH  12  16
ATOM     16  O   LIG A   1      -5.539  -1.474 124.728  0.00  0.00    -0.385 OA
ATOM     17  H   LIG A   1      -6.276  -1.317 125.341  0.00  0.00    +0.211 HD
ENDBRANCH  12  16
ENDBRANCH  11  12
ENDBRANCH  10  11
ENDBRANCH   1  10
TORSDOF 8
ENDMDL
MODEL 9
REMARK VINA RESULT:      -5.2      2.133      3.627
REMARK  Name = NuBBE_1627
REMARK  12 active torsions:
REMARK  status: ('A' for Active; 'I' for Inactive)
REMARK    1  A    between atoms: C_1  and  C_10
REMARK    2  A    between atoms: C_2  and  C_3
REMARK    3  A    between atoms: C_2  and  C_9
REMARK    4  A    between atoms: C_3  and  C_4
REMARK    5  A    between atoms: C_4  and  C_5
REMARK    6  A    between atoms: C_6  and  C_7
REMARK    7  A    between atoms: C_6  and  C_8
REMARK    8  A    between atoms: C_10  and  C_11
REMARK    9  A    between atoms: C_11  and  C_12
REMARK   10  A    between atoms: C_12  and  C_13
REMARK   11  A    between atoms: C_12  and  C_15
REMARK   12  A    between atoms: C_12  and  O_16
REMARK                            x       y       z     vdW  Elec       q    Type
REMARK                         _______ _______ _______ _____ _____    ______ ____
ROOT
ATOM      1  C   LIG A   1      -8.005  -0.712 123.244  0.00  0.00    -0.028 C 
ATOM      2  C   LIG A   1      -7.812  -2.027 123.457  0.00  0.00    -0.076 C 
ATOM      3  C   LIG A   1      -9.010  -2.948 123.397  0.00  0.00    +0.038 C 
ENDROOT
BRANCH   2   4
ATOM      4  C   LIG A   1      -6.485  -2.665 123.809  0.00  0.00    +0.034 C 
BRANCH   4   5
ATOM      5  C   LIG A   1      -5.930  -2.204 125.168  0.00  0.00    +0.031 C 
BRANCH   5   6
ATOM      6  C   LIG A   1      -6.667  -2.771 126.357  0.00  0.00    -0.028 C 
ATOM      7  C   LIG A   1      -7.562  -2.148 127.143  0.00  0.00    -0.080 C 
ATOM      8  C   LIG A   1      -7.948  -0.707 126.976  0.00  0.00    +0.038 C 
ATOM      9  C   LIG A   1      -8.235  -2.882 128.272  0.00  0.00    +0.038 C 
ENDBRANCH   5   6
ENDBRANCH   4   5
ENDBRANCH   2   4
BRANCH   1  10
ATOM     10  C   LIG A   1      -7.106   0.471 123.330  0.00  0.00    +0.030 C 
BRANCH  10  11
ATOM     11  C   LIG A   1      -7.783   1.717 123.949  0.00  0.00    +0.043 C 
BRANCH  11  12
ATOM     12  C   LIG A   1      -7.759   3.055 123.137  0.00  0.00    +0.081 C 
ATOM     13  C   LIG A   1      -8.672   3.123 121.912  0.00  0.00    +0.046 C 
BRANCH  12  14
ATOM     14  C   LIG A   1      -6.374   3.432 122.642  0.00  0.00    -0.001 C 
ATOM     15  C   LIG A   1      -5.969   3.557 121.372  0.00  0.00    +0.007 C 
ENDBRANCH  12  14
BRANCH  12  16
ATOM     16  O   LIG A   1      -8.181   4.105 124.015  0.00  0.00    -0.385 OA
ATOM     17  H   LIG A   1      -8.900   3.754 124.565  0.00  0.00    +0.211 HD
ENDBRANCH  12  16
ENDBRANCH  11  12
ENDBRANCH  10  11
ENDBRANCH   1  10
TORSDOF 8
ENDMDL
