MODEL 1
REMARK VINA RESULT:     -10.8      0.000      0.000
REMARK  Name = NuBBE_1478
REMARK  11 active torsions:
REMARK  status: ('A' for Active; 'I' for Inactive)
REMARK    1  A    between atoms: O_1  and  C_2
REMARK    2  A    between atoms: C_3  and  C_4
REMARK    3  A    between atoms: N_12  and  C_13
REMARK    4  A    between atoms: C_14  and  O_15
REMARK    5  A    between atoms: C_19  and  O_27
REMARK    6  A    between atoms: C_23  and  C_25
REMARK    7  A    between atoms: C_23  and  C_26
REMARK    8  A    between atoms: N_36  and  C_37
REMARK    9  A    between atoms: C_38  and  O_39
REMARK   10  A    between atoms: C_45  and  C_47
REMARK   11  A    between atoms: C_45  and  C_48
REMARK                            x       y       z     vdW  Elec       q    Type
REMARK                         _______ _______ _______ _____ _____    ______ ____
ROOT
ATOM      1  C   LIG A   1      -4.768   0.145 130.358  0.00  0.00    +0.137 A 
ATOM      2  C   LIG A   1      -5.649   1.196 130.024  0.00  0.00    +0.045 A 
ATOM      3  C   LIG A   1      -6.904   1.219 130.673  0.00  0.00    +0.138 A 
ATOM      4  C   LIG A   1      -7.293   0.184 131.555  0.00  0.00    +0.041 A 
ATOM      5  C   LIG A   1      -6.394  -0.852 131.885  0.00  0.00    +0.067 A 
ATOM      6  C   LIG A   1      -5.145  -0.882 131.245  0.00  0.00    +0.088 A 
ATOM      7  C   LIG A   1      -4.243  -2.032 131.509  0.00  0.00    +0.201 A 
ATOM      8  O   LIG A   1      -3.103  -2.044 131.052  0.00  0.00    -0.286 OA
ATOM      9  C   LIG A   1      -4.750  -3.182 132.284  0.00  0.00    +0.050 A 
ATOM     10  C   LIG A   1      -5.991  -3.067 132.917  0.00  0.00    +0.095 A 
ATOM     11  N   LIG A   1      -6.728  -1.842 132.879  0.00  0.00    -0.339 N 
ATOM     12  C   LIG A   1      -6.610  -1.201 134.221  0.00  0.00    +0.149 C 
ATOM     13  C   LIG A   1      -6.495  -4.191 133.590  0.00  0.00    +0.141 A 
ATOM     14  C   LIG A   1      -5.760  -5.366 133.700  0.00  0.00    +0.047 A 
ATOM     15  C   LIG A   1      -4.503  -5.448 133.102  0.00  0.00    +0.004 A 
ATOM     16  C   LIG A   1      -3.999  -4.361 132.384  0.00  0.00    +0.014 A 
ATOM     17  C   LIG A   1      -8.664   0.181 132.074  0.00  0.00    +0.013 C 
ATOM     18  C   LIG A   1      -9.350   1.324 132.033  0.00  0.00    +0.020 C 
ATOM     19  C   LIG A   1      -8.752   2.571 131.437  0.00  0.00    +0.123 C 
ATOM     20  O   LIG A   1      -7.747   2.285 130.430  0.00  0.00    -0.481 OA
ATOM     21  C   LIG A   1      -9.872   3.360 130.748  0.00  0.00    +0.060 C 
ATOM     22  C   LIG A   1      -8.130   3.430 132.549  0.00  0.00    +0.060 C 
ENDROOT
BRANCH   2  23
ATOM     23  C   LIG A   1      -5.230   2.233 128.964  0.00  0.00    +0.066 C 
ATOM     24  C   LIG A   1      -6.224   2.475 127.833  0.00  0.00    +0.026 A 
ATOM     25  C   LIG A   1      -6.962   1.450 127.179  0.00  0.00    +0.064 A 
ATOM     26  C   LIG A   1      -7.991   1.807 126.277  0.00  0.00    +0.088 A 
ATOM     27  C   LIG A   1      -8.862   0.750 125.722  0.00  0.00    +0.201 A 
ATOM     28  O   LIG A   1      -9.754   1.047 124.928  0.00  0.00    -0.286 OA
ATOM     29  C   LIG A   1      -8.657  -0.650 126.134  0.00  0.00    +0.050 A 
ATOM     30  C   LIG A   1      -7.553  -0.968 126.937  0.00  0.00    +0.095 A 
ATOM     31  N   LIG A   1      -6.630   0.059 127.329  0.00  0.00    -0.340 N 
ATOM     32  C   LIG A   1      -5.361  -0.199 126.594  0.00  0.00    +0.149 C 
ATOM     33  C   LIG A   1      -7.378  -2.318 127.300  0.00  0.00    +0.141 A 
ATOM     34  C   LIG A   1      -8.249  -3.314 126.846  0.00  0.00    +0.047 A 
ATOM     35  C   LIG A   1      -9.324  -2.975 126.028  0.00  0.00    +0.004 A 
ATOM     36  C   LIG A   1      -9.534  -1.643 125.674  0.00  0.00    +0.014 A 
ATOM     37  C   LIG A   1      -8.155   3.137 125.881  0.00  0.00    +0.133 A 
ATOM     38  C   LIG A   1      -7.292   4.108 126.358  0.00  0.00    +0.092 A 
ATOM     39  C   LIG A   1      -6.342   3.774 127.323  0.00  0.00    +0.131 A 
ATOM     40  O   LIG A   1      -5.461   4.770 127.646  0.00  0.00    -0.486 OA
ATOM     41  C   LIG A   1      -5.142   4.853 129.035  0.00  0.00    +0.106 C 
ATOM     42  C   LIG A   1      -4.688   3.514 129.641  0.00  0.00    +0.060 C 
ATOM     43  C   LIG A   1      -6.341   5.471 129.764  0.00  0.00    +0.055 C 
ATOM     44  C   LIG A   1      -3.983   5.861 129.134  0.00  0.00    +0.055 C 
BRANCH  33  45
ATOM     45  O   LIG A   1      -6.334  -2.671 128.115  0.00  0.00    -0.505 OA
ATOM     46  H   LIG A   1      -5.634  -3.080 127.582  0.00  0.00    +0.292 HD
ENDBRANCH  33  45
BRANCH  37  47
ATOM     47  O   LIG A   1      -9.105   3.543 124.983  0.00  0.00    -0.506 OA
ATOM     48  H   LIG A   1      -9.239   2.809 124.341  0.00  0.00    +0.292 HD
ENDBRANCH  37  47
ENDBRANCH   2  23
BRANCH   1  49
ATOM     49  O   LIG A   1      -3.507   0.159 129.805  0.00  0.00    -0.506 OA
ATOM     50  H   LIG A   1      -3.195  -0.772 129.736  0.00  0.00    +0.292 HD
ENDBRANCH   1  49
BRANCH  13  51
ATOM     51  O   LIG A   1      -7.754  -4.171 134.127  0.00  0.00    -0.505 OA
ATOM     52  H   LIG A   1      -7.706  -3.548 134.878  0.00  0.00    +0.292 HD
ENDBRANCH  13  51
TORSDOF 5
ENDMDL
MODEL 2
REMARK VINA RESULT:     -10.3      2.795      8.032
REMARK  Name = NuBBE_1478
REMARK  11 active torsions:
REMARK  status: ('A' for Active; 'I' for Inactive)
REMARK    1  A    between atoms: O_1  and  C_2
REMARK    2  A    between atoms: C_3  and  C_4
REMARK    3  A    between atoms: N_12  and  C_13
REMARK    4  A    between atoms: C_14  and  O_15
REMARK    5  A    between atoms: C_19  and  O_27
REMARK    6  A    between atoms: C_23  and  C_25
REMARK    7  A    between atoms: C_23  and  C_26
REMARK    8  A    between atoms: N_36  and  C_37
REMARK    9  A    between atoms: C_38  and  O_39
REMARK   10  A    between atoms: C_45  and  C_47
REMARK   11  A    between atoms: C_45  and  C_48
REMARK                            x       y       z     vdW  Elec       q    Type
REMARK                         _______ _______ _______ _____ _____    ______ ____
ROOT
ATOM      1  C   LIG A   1      -8.186   2.456 125.967  0.00  0.00    +0.137 A 
ATOM      2  C   LIG A   1      -7.624   2.285 127.250  0.00  0.00    +0.045 A 
ATOM      3  C   LIG A   1      -6.327   2.805 127.463  0.00  0.00    +0.138 A 
ATOM      4  C   LIG A   1      -5.591   3.395 126.409  0.00  0.00    +0.041 A 
ATOM      5  C   LIG A   1      -6.175   3.566 125.135  0.00  0.00    +0.067 A 
ATOM      6  C   LIG A   1      -7.463   3.053 124.916  0.00  0.00    +0.088 A 
ATOM      7  C   LIG A   1      -8.032   3.135 123.547  0.00  0.00    +0.201 A 
ATOM      8  O   LIG A   1      -9.193   2.795 123.337  0.00  0.00    -0.286 OA
ATOM      9  C   LIG A   1      -7.171   3.585 122.435  0.00  0.00    +0.050 A 
ATOM     10  C   LIG A   1      -5.911   4.110 122.734  0.00  0.00    +0.095 A 
ATOM     11  N   LIG A   1      -5.485   4.279 124.088  0.00  0.00    -0.339 N 
ATOM     12  C   LIG A   1      -5.552   5.735 124.406  0.00  0.00    +0.149 C 
ATOM     13  C   LIG A   1      -5.074   4.466 121.665  0.00  0.00    +0.141 A 
ATOM     14  C   LIG A   1      -5.500   4.378 120.344  0.00  0.00    +0.047 A 
ATOM     15  C   LIG A   1      -6.777   3.895 120.065  0.00  0.00    +0.004 A 
ATOM     16  C   LIG A   1      -7.613   3.487 121.108  0.00  0.00    +0.014 A 
ATOM     17  C   LIG A   1      -4.195   3.771 126.651  0.00  0.00    +0.013 C 
ATOM     18  C   LIG A   1      -3.800   3.923 127.915  0.00  0.00    +0.020 C 
ATOM     19  C   LIG A   1      -4.744   3.679 129.062  0.00  0.00    +0.123 C 
ATOM     20  O   LIG A   1      -5.792   2.730 128.733  0.00  0.00    -0.481 OA
ATOM     21  C   LIG A   1      -3.943   3.083 130.227  0.00  0.00    +0.060 C 
ATOM     22  C   LIG A   1      -5.379   5.006 129.504  0.00  0.00    +0.060 C 
ENDROOT
BRANCH   2  23
ATOM     23  C   LIG A   1      -8.415   1.527 128.333  0.00  0.00    +0.066 C 
ATOM     24  C   LIG A   1      -7.794   0.226 128.830  0.00  0.00    +0.026 A 
ATOM     25  C   LIG A   1      -7.163  -0.735 127.991  0.00  0.00    +0.064 A 
ATOM     26  C   LIG A   1      -6.457  -1.809 128.580  0.00  0.00    +0.088 A 
ATOM     27  C   LIG A   1      -5.669  -2.714 127.717  0.00  0.00    +0.201 A 
ATOM     28  O   LIG A   1      -5.060  -3.659 128.215  0.00  0.00    -0.286 OA
ATOM     29  C   LIG A   1      -5.615  -2.467 126.264  0.00  0.00    +0.050 A 
ATOM     30  C   LIG A   1      -6.423  -1.461 125.715  0.00  0.00    +0.095 A 
ATOM     31  N   LIG A   1      -7.302  -0.704 126.560  0.00  0.00    -0.340 N 
ATOM     32  C   LIG A   1      -8.692  -1.119 126.218  0.00  0.00    +0.149 C 
ATOM     33  C   LIG A   1      -6.359  -1.261 124.322  0.00  0.00    +0.141 A 
ATOM     34  C   LIG A   1      -5.549  -2.060 123.508  0.00  0.00    +0.047 A 
ATOM     35  C   LIG A   1      -4.775  -3.070 124.075  0.00  0.00    +0.004 A 
ATOM     36  C   LIG A   1      -4.802  -3.272 125.454  0.00  0.00    +0.014 A 
ATOM     37  C   LIG A   1      -6.540  -2.041 129.955  0.00  0.00    +0.133 A 
ATOM     38  C   LIG A   1      -7.333  -1.226 130.744  0.00  0.00    +0.092 A 
ATOM     39  C   LIG A   1      -7.948  -0.108 130.181  0.00  0.00    +0.131 A 
ATOM     40  O   LIG A   1      -8.802   0.569 131.009  0.00  0.00    -0.486 OA
ATOM     41  C   LIG A   1      -8.739   1.991 130.894  0.00  0.00    +0.106 C 
ATOM     42  C   LIG A   1      -8.877   2.495 129.447  0.00  0.00    +0.060 C 
ATOM     43  C   LIG A   1      -7.455   2.469 131.582  0.00  0.00    +0.055 C 
ATOM     44  C   LIG A   1      -9.922   2.524 131.721  0.00  0.00    +0.055 C 
BRANCH  33  45
ATOM     45  O   LIG A   1      -7.102  -0.266 123.744  0.00  0.00    -0.505 OA
ATOM     46  H   LIG A   1      -7.865  -0.064 124.310  0.00  0.00    +0.292 HD
ENDBRANCH  33  45
BRANCH  37  47
ATOM     47  O   LIG A   1      -5.913  -3.085 130.582  0.00  0.00    -0.506 OA
ATOM     48  H   LIG A   1      -6.518  -3.412 131.287  0.00  0.00    +0.292 HD
ENDBRANCH  37  47
ENDBRANCH   2  23
BRANCH   1  49
ATOM     49  O   LIG A   1      -9.483   2.039 125.769  0.00  0.00    -0.506 OA
ATOM     50  H   LIG A   1      -9.739   2.268 124.847  0.00  0.00    +0.292 HD
ENDBRANCH   1  49
BRANCH  13  51
ATOM     51  O   LIG A   1      -3.789   4.876 121.897  0.00  0.00    -0.505 OA
ATOM     52  H   LIG A   1      -3.784   5.834 121.708  0.00  0.00    +0.292 HD
ENDBRANCH  13  51
TORSDOF 5
ENDMDL
MODEL 3
REMARK VINA RESULT:      -9.7      2.933      7.634
REMARK  Name = NuBBE_1478
REMARK  11 active torsions:
REMARK  status: ('A' for Active; 'I' for Inactive)
REMARK    1  A    between atoms: O_1  and  C_2
REMARK    2  A    between atoms: C_3  and  C_4
REMARK    3  A    between atoms: N_12  and  C_13
REMARK    4  A    between atoms: C_14  and  O_15
REMARK    5  A    between atoms: C_19  and  O_27
REMARK    6  A    between atoms: C_23  and  C_25
REMARK    7  A    between atoms: C_23  and  C_26
REMARK    8  A    between atoms: N_36  and  C_37
REMARK    9  A    between atoms: C_38  and  O_39
REMARK   10  A    between atoms: C_45  and  C_47
REMARK   11  A    between atoms: C_45  and  C_48
REMARK                            x       y       z     vdW  Elec       q    Type
REMARK                         _______ _______ _______ _____ _____    ______ ____
ROOT
ATOM      1  C   LIG A   1      -5.642   3.964 128.554  0.00  0.00    +0.137 A 
ATOM      2  C   LIG A   1      -5.493   3.640 129.919  0.00  0.00    +0.045 A 
ATOM      3  C   LIG A   1      -6.125   2.461 130.377  0.00  0.00    +0.138 A 
ATOM      4  C   LIG A   1      -6.942   1.687 129.520  0.00  0.00    +0.041 A 
ATOM      5  C   LIG A   1      -7.069   2.022 128.155  0.00  0.00    +0.067 A 
ATOM      6  C   LIG A   1      -6.445   3.191 127.693  0.00  0.00    +0.088 A 
ATOM      7  C   LIG A   1      -6.670   3.603 126.284  0.00  0.00    +0.201 A 
ATOM      8  O   LIG A   1      -6.060   4.558 125.812  0.00  0.00    -0.286 OA
ATOM      9  C   LIG A   1      -7.671   2.880 125.474  0.00  0.00    +0.050 A 
ATOM     10  C   LIG A   1      -8.229   1.707 125.990  0.00  0.00    +0.095 A 
ATOM     11  N   LIG A   1      -7.794   1.172 127.242  0.00  0.00    -0.339 N 
ATOM     12  C   LIG A   1      -6.945  -0.020 126.955  0.00  0.00    +0.149 C 
ATOM     13  C   LIG A   1      -9.232   1.069 125.243  0.00  0.00    +0.141 A 
ATOM     14  C   LIG A   1      -9.615   1.534 123.989  0.00  0.00    +0.047 A 
ATOM     15  C   LIG A   1      -9.015   2.680 123.469  0.00  0.00    +0.004 A 
ATOM     16  C   LIG A   1      -8.049   3.362 124.213  0.00  0.00    +0.014 A 
ATOM     17  C   LIG A   1      -7.695   0.567 130.091  0.00  0.00    +0.013 C 
ATOM     18  C   LIG A   1      -7.290   0.073 131.261  0.00  0.00    +0.020 C 
ATOM     19  C   LIG A   1      -6.119   0.671 131.996  0.00  0.00    +0.123 C 
ATOM     20  O   LIG A   1      -5.921   2.075 131.686  0.00  0.00    -0.481 OA
ATOM     21  C   LIG A   1      -6.395   0.574 133.502  0.00  0.00    +0.060 C 
ATOM     22  C   LIG A   1      -4.841  -0.112 131.658  0.00  0.00    +0.060 C 
ENDROOT
BRANCH   2  23
ATOM     23  C   LIG A   1      -4.695   4.579 130.843  0.00  0.00    +0.066 C 
ATOM     24  C   LIG A   1      -5.428   5.086 132.080  0.00  0.00    +0.026 A 
ATOM     25  C   LIG A   1      -6.788   5.507 132.092  0.00  0.00    +0.064 A 
ATOM     26  C   LIG A   1      -7.417   5.777 133.329  0.00  0.00    +0.088 A 
ATOM     27  C   LIG A   1      -8.868   6.056 133.355  0.00  0.00    +0.201 A 
ATOM     28  O   LIG A   1      -9.425   6.304 134.424  0.00  0.00    -0.286 OA
ATOM     29  C   LIG A   1      -9.635   6.026 132.096  0.00  0.00    +0.050 A 
ATOM     30  C   LIG A   1      -8.948   5.869 130.885  0.00  0.00    +0.095 A 
ATOM     31  N   LIG A   1      -7.517   5.762 130.879  0.00  0.00    -0.340 N 
ATOM     32  C   LIG A   1      -6.992   7.019 130.276  0.00  0.00    +0.149 C 
ATOM     33  C   LIG A   1      -9.709   5.860 129.700  0.00  0.00    +0.141 A 
ATOM     34  C   LIG A   1     -11.096   6.040 129.723  0.00  0.00    +0.047 A 
ATOM     35  C   LIG A   1     -11.752   6.220 130.939  0.00  0.00    +0.004 A 
ATOM     36  C   LIG A   1     -11.025   6.208 132.128  0.00  0.00    +0.014 A 
ATOM     37  C   LIG A   1      -6.668   5.824 134.508  0.00  0.00    +0.133 A 
ATOM     38  C   LIG A   1      -5.300   5.624 134.463  0.00  0.00    +0.092 A 
ATOM     39  C   LIG A   1      -4.694   5.259 133.261  0.00  0.00    +0.131 A 
ATOM     40  O   LIG A   1      -3.328   5.198 133.287  0.00  0.00    -0.486 OA
ATOM     41  C   LIG A   1      -2.767   4.107 132.557  0.00  0.00    +0.106 C 
ATOM     42  C   LIG A   1      -3.283   4.008 131.111  0.00  0.00    +0.060 C 
ATOM     43  C   LIG A   1      -2.990   2.825 133.368  0.00  0.00    +0.055 C 
ATOM     44  C   LIG A   1      -1.250   4.366 132.527  0.00  0.00    +0.055 C 
BRANCH  33  45
ATOM     45  O   LIG A   1      -9.086   5.672 128.494  0.00  0.00    -0.505 OA
ATOM     46  H   LIG A   1      -9.552   4.983 127.994  0.00  0.00    +0.292 HD
ENDBRANCH  33  45
BRANCH  37  47
ATOM     47  O   LIG A   1      -7.208   6.117 135.732  0.00  0.00    -0.506 OA
ATOM     48  H   LIG A   1      -7.114   5.316 136.297  0.00  0.00    +0.292 HD
ENDBRANCH  37  47
ENDBRANCH   2  23
BRANCH   1  49
ATOM     49  O   LIG A   1      -4.957   5.058 128.072  0.00  0.00    -0.506 OA
ATOM     50  H   LIG A   1      -5.581   5.591 127.527  0.00  0.00    +0.292 HD
ENDBRANCH   1  49
BRANCH  13  51
ATOM     51  O   LIG A   1      -9.893  -0.015 125.753  0.00  0.00    -0.505 OA
ATOM     52  H   LIG A   1     -10.831   0.252 125.802  0.00  0.00    +0.292 HD
ENDBRANCH  13  51
TORSDOF 5
ENDMDL
MODEL 4
REMARK VINA RESULT:      -9.4      2.388      6.019
REMARK  Name = NuBBE_1478
REMARK  11 active torsions:
REMARK  status: ('A' for Active; 'I' for Inactive)
REMARK    1  A    between atoms: O_1  and  C_2
REMARK    2  A    between atoms: C_3  and  C_4
REMARK    3  A    between atoms: N_12  and  C_13
REMARK    4  A    between atoms: C_14  and  O_15
REMARK    5  A    between atoms: C_19  and  O_27
REMARK    6  A    between atoms: C_23  and  C_25
REMARK    7  A    between atoms: C_23  and  C_26
REMARK    8  A    between atoms: N_36  and  C_37
REMARK    9  A    between atoms: C_38  and  O_39
REMARK   10  A    between atoms: C_45  and  C_47
REMARK   11  A    between atoms: C_45  and  C_48
REMARK                            x       y       z     vdW  Elec       q    Type
REMARK                         _______ _______ _______ _____ _____    ______ ____
ROOT
ATOM      1  C   LIG A   1      -7.883   0.417 128.293  0.00  0.00    +0.137 A 
ATOM      2  C   LIG A   1      -7.888   0.310 126.886  0.00  0.00    +0.045 A 
ATOM      3  C   LIG A   1      -7.095  -0.710 126.312  0.00  0.00    +0.138 A 
ATOM      4  C   LIG A   1      -6.265  -1.531 127.111  0.00  0.00    +0.041 A 
ATOM      5  C   LIG A   1      -6.284  -1.416 128.517  0.00  0.00    +0.067 A 
ATOM      6  C   LIG A   1      -7.069  -0.406 129.095  0.00  0.00    +0.088 A 
ATOM      7  C   LIG A   1      -7.002  -0.213 130.566  0.00  0.00    +0.201 A 
ATOM      8  O   LIG A   1      -7.750   0.586 131.121  0.00  0.00    -0.286 OA
ATOM      9  C   LIG A   1      -5.993  -0.959 131.345  0.00  0.00    +0.050 A 
ATOM     10  C   LIG A   1      -5.268  -1.970 130.707  0.00  0.00    +0.095 A 
ATOM     11  N   LIG A   1      -5.542  -2.330 129.351  0.00  0.00    -0.339 N 
ATOM     12  C   LIG A   1      -6.273  -3.630 129.366  0.00  0.00    +0.149 C 
ATOM     13  C   LIG A   1      -4.262  -2.622 131.437  0.00  0.00    +0.141 A 
ATOM     14  C   LIG A   1      -4.033  -2.336 132.779  0.00  0.00    +0.047 A 
ATOM     15  C   LIG A   1      -4.796  -1.356 133.412  0.00  0.00    +0.004 A 
ATOM     16  C   LIG A   1      -5.770  -0.658 132.695  0.00  0.00    +0.014 A 
ATOM     17  C   LIG A   1      -5.350  -2.463 126.446  0.00  0.00    +0.013 C 
ATOM     18  C   LIG A   1      -5.605  -2.793 125.180  0.00  0.00    +0.020 C 
ATOM     19  C   LIG A   1      -6.774  -2.199 124.440  0.00  0.00    +0.123 C 
ATOM     20  O   LIG A   1      -7.151  -0.892 124.945  0.00  0.00    -0.481 OA
ATOM     21  C   LIG A   1      -6.372  -2.018 122.970  0.00  0.00    +0.060 C 
ATOM     22  C   LIG A   1      -7.979  -3.147 124.528  0.00  0.00    +0.060 C 
ENDROOT
BRANCH   2  23
ATOM     23  C   LIG A   1      -8.711   1.307 126.049  0.00  0.00    +0.066 C 
ATOM     24  C   LIG A   1      -7.918   2.212 125.112  0.00  0.00    +0.026 A 
ATOM     25  C   LIG A   1      -6.683   2.834 125.450  0.00  0.00    +0.064 A 
ATOM     26  C   LIG A   1      -5.945   3.496 124.442  0.00  0.00    +0.088 A 
ATOM     27  C   LIG A   1      -4.591   4.001 124.755  0.00  0.00    +0.201 A 
ATOM     28  O   LIG A   1      -3.942   4.589 123.891  0.00  0.00    -0.286 OA
ATOM     29  C   LIG A   1      -4.029   3.787 126.101  0.00  0.00    +0.050 A 
ATOM     30  C   LIG A   1      -4.844   3.230 127.097  0.00  0.00    +0.095 A 
ATOM     31  N   LIG A   1      -6.209   2.897 126.806  0.00  0.00    -0.340 N 
ATOM     32  C   LIG A   1      -7.058   3.868 127.551  0.00  0.00    +0.149 C 
ATOM     33  C   LIG A   1      -4.281   3.053 128.376  0.00  0.00    +0.141 A 
ATOM     34  C   LIG A   1      -2.970   3.453 128.657  0.00  0.00    +0.047 A 
ATOM     35  C   LIG A   1      -2.190   4.027 127.656  0.00  0.00    +0.004 A 
ATOM     36  C   LIG A   1      -2.715   4.191 126.375  0.00  0.00    +0.014 A 
ATOM     37  C   LIG A   1      -6.503   3.710 123.180  0.00  0.00    +0.133 A 
ATOM     38  C   LIG A   1      -7.796   3.290 122.919  0.00  0.00    +0.092 A 
ATOM     39  C   LIG A   1      -8.488   2.549 123.877  0.00  0.00    +0.131 A 
ATOM     40  O   LIG A   1      -9.795   2.279 123.577  0.00  0.00    -0.486 OA
ATOM     41  C   LIG A   1     -10.228   0.967 123.937  0.00  0.00    +0.106 C 
ATOM     42  C   LIG A   1      -9.924   0.601 125.399  0.00  0.00    +0.060 C 
ATOM     43  C   LIG A   1      -9.636  -0.024 122.929  0.00  0.00    +0.055 C 
ATOM     44  C   LIG A   1     -11.754   0.966 123.731  0.00  0.00    +0.055 C 
BRANCH  33  45
ATOM     45  O   LIG A   1      -5.027   2.479 129.372  0.00  0.00    -0.505 OA
ATOM     46  H   LIG A   1      -4.437   2.169 130.078  0.00  0.00    +0.292 HD
ENDBRANCH  33  45
BRANCH  37  47
ATOM     47  O   LIG A   1      -5.857   4.376 122.174  0.00  0.00    -0.506 OA
ATOM     48  H   LIG A   1      -6.242   4.070 121.321  0.00  0.00    +0.292 HD
ENDBRANCH  37  47
ENDBRANCH   2  23
BRANCH   1  49
ATOM     49  O   LIG A   1      -8.721   1.344 128.873  0.00  0.00    -0.506 OA
ATOM     50  H   LIG A   1      -8.563   2.212 128.434  0.00  0.00    +0.292 HD
ENDBRANCH   1  49
BRANCH  13  51
ATOM     51  O   LIG A   1      -3.447  -3.538 130.829  0.00  0.00    -0.505 OA
ATOM     52  H   LIG A   1      -4.048  -4.173 130.395  0.00  0.00    +0.292 HD
ENDBRANCH  13  51
TORSDOF 5
ENDMDL
MODEL 5
REMARK VINA RESULT:      -9.2      2.288      6.990
REMARK  Name = NuBBE_1478
REMARK  11 active torsions:
REMARK  status: ('A' for Active; 'I' for Inactive)
REMARK    1  A    between atoms: O_1  and  C_2
REMARK    2  A    between atoms: C_3  and  C_4
REMARK    3  A    between atoms: N_12  and  C_13
REMARK    4  A    between atoms: C_14  and  O_15
REMARK    5  A    between atoms: C_19  and  O_27
REMARK    6  A    between atoms: C_23  and  C_25
REMARK    7  A    between atoms: C_23  and  C_26
REMARK    8  A    between atoms: N_36  and  C_37
REMARK    9  A    between atoms: C_38  and  O_39
REMARK   10  A    between atoms: C_45  and  C_47
REMARK   11  A    between atoms: C_45  and  C_48
REMARK                            x       y       z     vdW  Elec       q    Type
REMARK                         _______ _______ _______ _____ _____    ______ ____
ROOT
ATOM      1  C   LIG A   1      -8.344   1.762 127.692  0.00  0.00    +0.137 A 
ATOM      2  C   LIG A   1      -7.342   2.478 128.383  0.00  0.00    +0.045 A 
ATOM      3  C   LIG A   1      -6.066   2.549 127.781  0.00  0.00    +0.138 A 
ATOM      4  C   LIG A   1      -5.782   1.859 126.579  0.00  0.00    +0.041 A 
ATOM      5  C   LIG A   1      -6.800   1.159 125.898  0.00  0.00    +0.067 A 
ATOM      6  C   LIG A   1      -8.071   1.084 126.489  0.00  0.00    +0.088 A 
ATOM      7  C   LIG A   1      -9.110   0.254 125.828  0.00  0.00    +0.201 A 
ATOM      8  O   LIG A   1     -10.261   0.247 126.254  0.00  0.00    -0.286 OA
ATOM      9  C   LIG A   1      -8.731  -0.597 124.682  0.00  0.00    +0.050 A 
ATOM     10  C   LIG A   1      -7.457  -0.446 124.129  0.00  0.00    +0.095 A 
ATOM     11  N   LIG A   1      -6.559   0.559 124.608  0.00  0.00    -0.339 N 
ATOM     12  C   LIG A   1      -6.520   1.653 123.595  0.00  0.00    +0.149 C 
ATOM     13  C   LIG A   1      -7.082  -1.310 123.088  0.00  0.00    +0.141 A 
ATOM     14  C   LIG A   1      -7.968  -2.243 122.560  0.00  0.00    +0.047 A 
ATOM     15  C   LIG A   1      -9.251  -2.349 123.094  0.00  0.00    +0.004 A 
ATOM     16  C   LIG A   1      -9.633  -1.535 124.162  0.00  0.00    +0.014 A 
ATOM     17  C   LIG A   1      -4.402   1.842 126.088  0.00  0.00    +0.013 C 
ATOM     18  C   LIG A   1      -3.566   2.777 126.540  0.00  0.00    +0.020 C 
ATOM     19  C   LIG A   1      -4.012   3.797 127.554  0.00  0.00    +0.123 C 
ATOM     20  O   LIG A   1      -5.095   3.317 128.392  0.00  0.00    -0.481 OA
ATOM     21  C   LIG A   1      -2.828   4.107 128.479  0.00  0.00    +0.060 C 
ATOM     22  C   LIG A   1      -4.453   5.082 126.838  0.00  0.00    +0.060 C 
ENDROOT
BRANCH   2  23
ATOM     23  C   LIG A   1      -7.664   3.110 129.751  0.00  0.00    +0.066 C 
ATOM     24  C   LIG A   1      -6.841   2.607 130.932  0.00  0.00    +0.026 A 
ATOM     25  C   LIG A   1      -6.492   1.244 131.147  0.00  0.00    +0.064 A 
ATOM     26  C   LIG A   1      -5.569   0.920 132.168  0.00  0.00    +0.088 A 
ATOM     27  C   LIG A   1      -5.085  -0.472 132.287  0.00  0.00    +0.201 A 
ATOM     28  O   LIG A   1      -4.291  -0.770 133.178  0.00  0.00    -0.286 OA
ATOM     29  C   LIG A   1      -5.555  -1.488 131.327  0.00  0.00    +0.050 A 
ATOM     30  C   LIG A   1      -6.556  -1.144 130.408  0.00  0.00    +0.095 A 
ATOM     31  N   LIG A   1      -7.124   0.174 130.423  0.00  0.00    -0.340 N 
ATOM     32  C   LIG A   1      -8.521   0.036 130.922  0.00  0.00    +0.149 C 
ATOM     33  C   LIG A   1      -6.993  -2.143 129.516  0.00  0.00    +0.141 A 
ATOM     34  C   LIG A   1      -6.477  -3.442 129.567  0.00  0.00    +0.047 A 
ATOM     35  C   LIG A   1      -5.501  -3.765 130.507  0.00  0.00    +0.004 A 
ATOM     36  C   LIG A   1      -5.034  -2.789 131.385  0.00  0.00    +0.014 A 
ATOM     37  C   LIG A   1      -5.154   1.891 133.082  0.00  0.00    +0.133 A 
ATOM     38  C   LIG A   1      -5.664   3.175 133.001  0.00  0.00    +0.092 A 
ATOM     39  C   LIG A   1      -6.495   3.522 131.935  0.00  0.00    +0.131 A 
ATOM     40  O   LIG A   1      -7.041   4.774 132.002  0.00  0.00    -0.486 OA
ATOM     41  C   LIG A   1      -7.098   5.466 130.754  0.00  0.00    +0.106 C 
ATOM     42  C   LIG A   1      -7.759   4.649 129.631  0.00  0.00    +0.060 C 
ATOM     43  C   LIG A   1      -5.682   5.939 130.406  0.00  0.00    +0.055 C 
ATOM     44  C   LIG A   1      -7.944   6.724 131.017  0.00  0.00    +0.055 C 
BRANCH  33  45
ATOM     45  O   LIG A   1      -7.943  -1.843 128.575  0.00  0.00    -0.505 OA
ATOM     46  H   LIG A   1      -8.365  -0.999 128.800  0.00  0.00    +0.292 HD
ENDBRANCH  33  45
BRANCH  37  47
ATOM     47  O   LIG A   1      -4.294   1.634 134.115  0.00  0.00    -0.506 OA
ATOM     48  H   LIG A   1      -3.388   1.877 133.814  0.00  0.00    +0.292 HD
ENDBRANCH  37  47
ENDBRANCH   2  23
BRANCH   1  49
ATOM     49  O   LIG A   1      -9.616   1.761 128.219  0.00  0.00    -0.506 OA
ATOM     50  H   LIG A   1      -9.718   2.573 128.767  0.00  0.00    +0.292 HD
ENDBRANCH   1  49
BRANCH  13  51
ATOM     51  O   LIG A   1      -5.808  -1.283 122.589  0.00  0.00    -0.505 OA
ATOM     52  H   LIG A   1      -5.226  -1.461 123.353  0.00  0.00    +0.292 HD
ENDBRANCH  13  51
TORSDOF 5
ENDMDL
MODEL 6
REMARK VINA RESULT:      -9.2      2.638      7.509
REMARK  Name = NuBBE_1478
REMARK  11 active torsions:
REMARK  status: ('A' for Active; 'I' for Inactive)
REMARK    1  A    between atoms: O_1  and  C_2
REMARK    2  A    between atoms: C_3  and  C_4
REMARK    3  A    between atoms: N_12  and  C_13
REMARK    4  A    between atoms: C_14  and  O_15
REMARK    5  A    between atoms: C_19  and  O_27
REMARK    6  A    between atoms: C_23  and  C_25
REMARK    7  A    between atoms: C_23  and  C_26
REMARK    8  A    between atoms: N_36  and  C_37
REMARK    9  A    between atoms: C_38  and  O_39
REMARK   10  A    between atoms: C_45  and  C_47
REMARK   11  A    between atoms: C_45  and  C_48
REMARK                            x       y       z     vdW  Elec       q    Type
REMARK                         _______ _______ _______ _____ _____    ______ ____
ROOT
ATOM      1  C   LIG A   1      -7.454   2.547 129.774  0.00  0.00    +0.137 A 
ATOM      2  C   LIG A   1      -6.456   2.945 130.691  0.00  0.00    +0.045 A 
ATOM      3  C   LIG A   1      -5.302   3.566 130.162  0.00  0.00    +0.138 A 
ATOM      4  C   LIG A   1      -5.118   3.704 128.766  0.00  0.00    +0.041 A 
ATOM      5  C   LIG A   1      -6.132   3.311 127.867  0.00  0.00    +0.067 A 
ATOM      6  C   LIG A   1      -7.281   2.694 128.385  0.00  0.00    +0.088 A 
ATOM      7  C   LIG A   1      -8.297   2.180 127.431  0.00  0.00    +0.201 A 
ATOM      8  O   LIG A   1      -9.362   1.729 127.843  0.00  0.00    -0.286 OA
ATOM      9  C   LIG A   1      -7.991   2.173 125.986  0.00  0.00    +0.050 A 
ATOM     10  C   LIG A   1      -6.842   2.833 125.543  0.00  0.00    +0.095 A 
ATOM     11  N   LIG A   1      -6.013   3.562 126.452  0.00  0.00    -0.339 N 
ATOM     12  C   LIG A   1      -6.261   5.016 126.224  0.00  0.00    +0.149 C 
ATOM     13  C   LIG A   1      -6.522   2.758 124.178  0.00  0.00    +0.141 A 
ATOM     14  C   LIG A   1      -7.356   2.115 123.268  0.00  0.00    +0.047 A 
ATOM     15  C   LIG A   1      -8.522   1.501 123.721  0.00  0.00    +0.004 A 
ATOM     16  C   LIG A   1      -8.838   1.519 125.082  0.00  0.00    +0.014 A 
ATOM     17  C   LIG A   1      -3.834   4.212 128.274  0.00  0.00    +0.013 C 
ATOM     18  C   LIG A   1      -3.062   4.888 129.125  0.00  0.00    +0.020 C 
ATOM     19  C   LIG A   1      -3.474   5.091 130.559  0.00  0.00    +0.123 C 
ATOM     20  O   LIG A   1      -4.354   4.043 131.043  0.00  0.00    -0.481 OA
ATOM     21  C   LIG A   1      -2.213   5.064 131.432  0.00  0.00    +0.060 C 
ATOM     22  C   LIG A   1      -4.172   6.452 130.710  0.00  0.00    +0.060 C 
ENDROOT
BRANCH   2  23
ATOM     23  C   LIG A   1      -6.646   2.661 132.193  0.00  0.00    +0.066 C 
ATOM     24  C   LIG A   1      -5.624   1.728 132.834  0.00  0.00    +0.026 A 
ATOM     25  C   LIG A   1      -5.121   0.545 132.222  0.00  0.00    +0.064 A 
ATOM     26  C   LIG A   1      -4.041  -0.138 132.825  0.00  0.00    +0.088 A 
ATOM     27  C   LIG A   1      -3.415  -1.271 132.110  0.00  0.00    +0.201 A 
ATOM     28  O   LIG A   1      -2.482  -1.881 132.629  0.00  0.00    -0.286 OA
ATOM     29  C   LIG A   1      -3.913  -1.651 130.776  0.00  0.00    +0.050 A 
ATOM     30  C   LIG A   1      -5.058  -1.019 130.273  0.00  0.00    +0.095 A 
ATOM     31  N   LIG A   1      -5.742  -0.034 131.061  0.00  0.00    -0.340 N 
ATOM     32  C   LIG A   1      -7.038  -0.638 131.479  0.00  0.00    +0.149 C 
ATOM     33  C   LIG A   1      -5.517  -1.416 129.001  0.00  0.00    +0.141 A 
ATOM     34  C   LIG A   1      -4.878  -2.431 128.280  0.00  0.00    +0.047 A 
ATOM     35  C   LIG A   1      -3.756  -3.061 128.815  0.00  0.00    +0.004 A 
ATOM     36  C   LIG A   1      -3.268  -2.669 130.060  0.00  0.00    +0.014 A 
ATOM     37  C   LIG A   1      -3.599   0.221 134.101  0.00  0.00    +0.133 A 
ATOM     38  C   LIG A   1      -4.234   1.241 134.788  0.00  0.00    +0.092 A 
ATOM     39  C   LIG A   1      -5.233   1.981 134.155  0.00  0.00    +0.131 A 
ATOM     40  O   LIG A   1      -5.881   2.888 134.949  0.00  0.00    -0.486 OA
ATOM     41  C   LIG A   1      -6.174   4.132 134.313  0.00  0.00    +0.106 C 
ATOM     42  C   LIG A   1      -6.902   3.976 132.967  0.00  0.00    +0.060 C 
ATOM     43  C   LIG A   1      -4.870   4.932 134.206  0.00  0.00    +0.055 C 
ATOM     44  C   LIG A   1      -7.092   4.889 135.289  0.00  0.00    +0.055 C 
BRANCH  33  45
ATOM     45  O   LIG A   1      -6.611  -0.801 128.451  0.00  0.00    -0.505 OA
ATOM     46  H   LIG A   1      -6.407   0.133 128.286  0.00  0.00    +0.292 HD
ENDBRANCH  33  45
BRANCH  37  47
ATOM     47  O   LIG A   1      -2.584  -0.424 134.756  0.00  0.00    -0.506 OA
ATOM     48  H   LIG A   1      -2.571  -0.090 135.682  0.00  0.00    +0.292 HD
ENDBRANCH  37  47
ENDBRANCH   2  23
BRANCH   1  49
ATOM     49  O   LIG A   1      -8.623   2.025 130.280  0.00  0.00    -0.506 OA
ATOM     50  H   LIG A   1      -9.048   2.716 130.839  0.00  0.00    +0.292 HD
ENDBRANCH   1  49
BRANCH  13  51
ATOM     51  O   LIG A   1      -5.350   3.287 123.710  0.00  0.00    -0.505 OA
ATOM     52  H   LIG A   1      -4.689   2.574 123.803  0.00  0.00    +0.292 HD
ENDBRANCH  13  51
TORSDOF 5
ENDMDL
MODEL 7
REMARK VINA RESULT:      -9.2      2.010      5.678
REMARK  Name = NuBBE_1478
REMARK  11 active torsions:
REMARK  status: ('A' for Active; 'I' for Inactive)
REMARK    1  A    between atoms: O_1  and  C_2
REMARK    2  A    between atoms: C_3  and  C_4
REMARK    3  A    between atoms: N_12  and  C_13
REMARK    4  A    between atoms: C_14  and  O_15
REMARK    5  A    between atoms: C_19  and  O_27
REMARK    6  A    between atoms: C_23  and  C_25
REMARK    7  A    between atoms: C_23  and  C_26
REMARK    8  A    between atoms: N_36  and  C_37
REMARK    9  A    between atoms: C_38  and  O_39
REMARK   10  A    between atoms: C_45  and  C_47
REMARK   11  A    between atoms: C_45  and  C_48
REMARK                            x       y       z     vdW  Elec       q    Type
REMARK                         _______ _______ _______ _____ _____    ______ ____
ROOT
ATOM      1  C   LIG A   1      -7.931   0.263 129.431  0.00  0.00    +0.137 A 
ATOM      2  C   LIG A   1      -7.816   0.314 128.024  0.00  0.00    +0.045 A 
ATOM      3  C   LIG A   1      -6.925  -0.599 127.415  0.00  0.00    +0.138 A 
ATOM      4  C   LIG A   1      -6.120  -1.467 128.190  0.00  0.00    +0.041 A 
ATOM      5  C   LIG A   1      -6.259  -1.510 129.594  0.00  0.00    +0.067 A 
ATOM      6  C   LIG A   1      -7.142  -0.607 130.206  0.00  0.00    +0.088 A 
ATOM      7  C   LIG A   1      -7.205  -0.577 131.690  0.00  0.00    +0.201 A 
ATOM      8  O   LIG A   1      -8.037   0.122 132.261  0.00  0.00    -0.286 OA
ATOM      9  C   LIG A   1      -6.224  -1.359 132.468  0.00  0.00    +0.050 A 
ATOM     10  C   LIG A   1      -5.396  -2.259 131.791  0.00  0.00    +0.095 A 
ATOM     11  N   LIG A   1      -5.539  -2.477 130.385  0.00  0.00    -0.339 N 
ATOM     12  C   LIG A   1      -6.198  -3.802 130.197  0.00  0.00    +0.149 C 
ATOM     13  C   LIG A   1      -4.419  -2.943 132.532  0.00  0.00    +0.141 A 
ATOM     14  C   LIG A   1      -4.315  -2.798 133.911  0.00  0.00    +0.047 A 
ATOM     15  C   LIG A   1      -5.178  -1.930 134.577  0.00  0.00    +0.004 A 
ATOM     16  C   LIG A   1      -6.128  -1.200 133.858  0.00  0.00    +0.014 A 
ATOM     17  C   LIG A   1      -5.105  -2.276 127.511  0.00  0.00    +0.013 C 
ATOM     18  C   LIG A   1      -5.238  -2.475 126.199  0.00  0.00    +0.020 C 
ATOM     19  C   LIG A   1      -6.374  -1.855 125.429  0.00  0.00    +0.123 C 
ATOM     20  O   LIG A   1      -6.861  -0.630 126.037  0.00  0.00    -0.481 OA
ATOM     21  C   LIG A   1      -5.865  -1.493 124.028  0.00  0.00    +0.060 C 
ATOM     22  C   LIG A   1      -7.530  -2.860 125.310  0.00  0.00    +0.060 C 
ENDROOT
BRANCH   2  23
ATOM     23  C   LIG A   1      -8.621   1.360 127.231  0.00  0.00    +0.066 C 
ATOM     24  C   LIG A   1      -7.825   2.530 126.664  0.00  0.00    +0.026 A 
ATOM     25  C   LIG A   1      -6.786   3.209 127.361  0.00  0.00    +0.064 A 
ATOM     26  C   LIG A   1      -5.991   4.152 126.670  0.00  0.00    +0.088 A 
ATOM     27  C   LIG A   1      -4.815   4.737 127.346  0.00  0.00    +0.201 A 
ATOM     28  O   LIG A   1      -4.121   5.567 126.760  0.00  0.00    -0.286 OA
ATOM     29  C   LIG A   1      -4.479   4.311 128.717  0.00  0.00    +0.050 A 
ATOM     30  C   LIG A   1      -5.362   3.464 129.401  0.00  0.00    +0.095 A 
ATOM     31  N   LIG A   1      -6.582   3.040 128.775  0.00  0.00    -0.340 N 
ATOM     32  C   LIG A   1      -7.695   3.724 129.491  0.00  0.00    +0.149 C 
ATOM     33  C   LIG A   1      -5.020   3.088 130.715  0.00  0.00    +0.141 A 
ATOM     34  C   LIG A   1      -3.862   3.572 131.333  0.00  0.00    +0.047 A 
ATOM     35  C   LIG A   1      -3.014   4.434 130.640  0.00  0.00    +0.004 A 
ATOM     36  C   LIG A   1      -3.317   4.801 129.330  0.00  0.00    +0.014 A 
ATOM     37  C   LIG A   1      -6.339   4.560 125.380  0.00  0.00    +0.133 A 
ATOM     38  C   LIG A   1      -7.479   4.054 124.781  0.00  0.00    +0.092 A 
ATOM     39  C   LIG A   1      -8.207   3.051 125.421  0.00  0.00    +0.131 A 
ATOM     40  O   LIG A   1      -9.379   2.697 124.809  0.00  0.00    -0.486 OA
ATOM     41  C   LIG A   1      -9.657   1.297 124.823  0.00  0.00    +0.106 C 
ATOM     42  C   LIG A   1      -9.570   0.669 126.224  0.00  0.00    +0.060 C 
ATOM     43  C   LIG A   1      -8.742   0.618 123.797  0.00  0.00    +0.055 C 
ATOM     44  C   LIG A   1     -11.100   1.157 124.306  0.00  0.00    +0.055 C 
BRANCH  33  45
ATOM     45  O   LIG A   1      -5.833   2.232 131.410  0.00  0.00    -0.505 OA
ATOM     46  H   LIG A   1      -6.677   2.672 131.600  0.00  0.00    +0.292 HD
ENDBRANCH  33  45
BRANCH  37  47
ATOM     47  O   LIG A   1      -5.634   5.496 124.671  0.00  0.00    -0.506 OA
ATOM     48  H   LIG A   1      -4.690   5.218 124.671  0.00  0.00    +0.292 HD
ENDBRANCH  37  47
ENDBRANCH   2  23
BRANCH   1  49
ATOM     49  O   LIG A   1      -8.862   1.081 130.031  0.00  0.00    -0.506 OA
ATOM     50  H   LIG A   1      -9.756   0.714 129.842  0.00  0.00    +0.292 HD
ENDBRANCH   1  49
BRANCH  13  51
ATOM     51  O   LIG A   1      -3.509  -3.747 131.901  0.00  0.00    -0.505 OA
ATOM     52  H   LIG A   1      -3.966  -4.083 131.107  0.00  0.00    +0.292 HD
ENDBRANCH  13  51
TORSDOF 5
ENDMDL
MODEL 8
REMARK VINA RESULT:      -8.9      2.864      6.878
REMARK  Name = NuBBE_1478
REMARK  11 active torsions:
REMARK  status: ('A' for Active; 'I' for Inactive)
REMARK    1  A    between atoms: O_1  and  C_2
REMARK    2  A    between atoms: C_3  and  C_4
REMARK    3  A    between atoms: N_12  and  C_13
REMARK    4  A    between atoms: C_14  and  O_15
REMARK    5  A    between atoms: C_19  and  O_27
REMARK    6  A    between atoms: C_23  and  C_25
REMARK    7  A    between atoms: C_23  and  C_26
REMARK    8  A    between atoms: N_36  and  C_37
REMARK    9  A    between atoms: C_38  and  O_39
REMARK   10  A    between atoms: C_45  and  C_47
REMARK   11  A    between atoms: C_45  and  C_48
REMARK                            x       y       z     vdW  Elec       q    Type
REMARK                         _______ _______ _______ _____ _____    ______ ____
ROOT
ATOM      1  C   LIG A   1      -7.475   1.593 132.298  0.00  0.00    +0.137 A 
ATOM      2  C   LIG A   1      -6.808   0.598 131.552  0.00  0.00    +0.045 A 
ATOM      3  C   LIG A   1      -5.517   0.220 131.986  0.00  0.00    +0.138 A 
ATOM      4  C   LIG A   1      -4.887   0.874 133.071  0.00  0.00    +0.041 A 
ATOM      5  C   LIG A   1      -5.575   1.860 133.810  0.00  0.00    +0.067 A 
ATOM      6  C   LIG A   1      -6.858   2.240 133.386  0.00  0.00    +0.088 A 
ATOM      7  C   LIG A   1      -7.536   3.354 134.097  0.00  0.00    +0.201 A 
ATOM      8  O   LIG A   1      -8.697   3.646 133.826  0.00  0.00    -0.286 OA
ATOM      9  C   LIG A   1      -6.782   4.134 135.098  0.00  0.00    +0.050 A 
ATOM     10  C   LIG A   1      -5.521   3.678 135.491  0.00  0.00    +0.095 A 
ATOM     11  N   LIG A   1      -4.996   2.444 134.995  0.00  0.00    -0.339 N 
ATOM     12  C   LIG A   1      -5.088   1.438 136.093  0.00  0.00    +0.149 C 
ATOM     13  C   LIG A   1      -4.784   4.466 136.389  0.00  0.00    +0.141 A 
ATOM     14  C   LIG A   1      -5.309   5.631 136.938  0.00  0.00    +0.047 A 
ATOM     15  C   LIG A   1      -6.587   6.048 136.569  0.00  0.00    +0.004 A 
ATOM     16  C   LIG A   1      -7.323   5.308 135.641  0.00  0.00    +0.014 A 
ATOM     17  C   LIG A   1      -3.491   0.548 133.373  0.00  0.00    +0.013 C 
ATOM     18  C   LIG A   1      -3.002  -0.601 132.905  0.00  0.00    +0.020 C 
ATOM     19  C   LIG A   1      -3.844  -1.518 132.058  0.00  0.00    +0.123 C 
ATOM     20  O   LIG A   1      -4.881  -0.813 131.328  0.00  0.00    -0.481 OA
ATOM     21  C   LIG A   1      -2.934  -2.187 131.020  0.00  0.00    +0.060 C 
ATOM     22  C   LIG A   1      -4.488  -2.596 132.944  0.00  0.00    +0.060 C 
ENDROOT
BRANCH   2  23
ATOM     23  C   LIG A   1      -7.484   0.000 130.303  0.00  0.00    +0.066 C 
ATOM     24  C   LIG A   1      -6.743   0.189 128.984  0.00  0.00    +0.026 A 
ATOM     25  C   LIG A   1      -6.084   1.389 128.597  0.00  0.00    +0.064 A 
ATOM     26  C   LIG A   1      -5.271   1.389 127.440  0.00  0.00    +0.088 A 
ATOM     27  C   LIG A   1      -4.462   2.585 127.128  0.00  0.00    +0.201 A 
ATOM     28  O   LIG A   1      -3.759   2.603 126.118  0.00  0.00    -0.286 OA
ATOM     29  C   LIG A   1      -4.500   3.745 128.037  0.00  0.00    +0.050 A 
ATOM     30  C   LIG A   1      -5.407   3.742 129.105  0.00  0.00    +0.095 A 
ATOM     31  N   LIG A   1      -6.298   2.632 129.289  0.00  0.00    -0.340 N 
ATOM     32  C   LIG A   1      -7.667   3.118 128.962  0.00  0.00    +0.149 C 
ATOM     33  C   LIG A   1      -5.429   4.872 129.946  0.00  0.00    +0.141 A 
ATOM     34  C   LIG A   1      -4.603   5.976 129.705  0.00  0.00    +0.047 A 
ATOM     35  C   LIG A   1      -3.728   5.964 128.621  0.00  0.00    +0.004 A 
ATOM     36  C   LIG A   1      -3.670   4.848 127.788  0.00  0.00    +0.014 A 
ATOM     37  C   LIG A   1      -5.267   0.290 126.578  0.00  0.00    +0.133 A 
ATOM     38  C   LIG A   1      -6.078  -0.799 126.847  0.00  0.00    +0.092 A 
ATOM     39  C   LIG A   1      -6.803  -0.842 128.038  0.00  0.00    +0.131 A 
ATOM     40  O   LIG A   1      -7.663  -1.899 128.161  0.00  0.00    -0.486 OA
ATOM     41  C   LIG A   1      -7.714  -2.475 129.467  0.00  0.00    +0.106 C 
ATOM     42  C   LIG A   1      -7.962  -1.444 130.582  0.00  0.00    +0.060 C 
ATOM     43  C   LIG A   1      -6.436  -3.297 129.675  0.00  0.00    +0.055 C 
ATOM     44  C   LIG A   1      -8.890  -3.466 129.436  0.00  0.00    +0.055 C 
BRANCH  33  45
ATOM     45  O   LIG A   1      -6.273   4.900 131.025  0.00  0.00    -0.505 OA
ATOM     46  H   LIG A   1      -7.126   5.278 130.757  0.00  0.00    +0.292 HD
ENDBRANCH  33  45
BRANCH  37  47
ATOM     47  O   LIG A   1      -4.533   0.241 125.423  0.00  0.00    -0.506 OA
ATOM     48  H   LIG A   1      -4.329  -0.705 125.242  0.00  0.00    +0.292 HD
ENDBRANCH  37  47
ENDBRANCH   2  23
BRANCH   1  49
ATOM     49  O   LIG A   1      -8.769   1.906 131.944  0.00  0.00    -0.506 OA
ATOM     50  H   LIG A   1      -8.770   2.820 131.576  0.00  0.00    +0.292 HD
ENDBRANCH   1  49
BRANCH  13  51
ATOM     51  O   LIG A   1      -3.499   4.126 136.717  0.00  0.00    -0.505 OA
ATOM     52  H   LIG A   1      -2.955   4.896 136.465  0.00  0.00    +0.292 HD
ENDBRANCH  13  51
TORSDOF 5
ENDMDL
MODEL 9
REMARK VINA RESULT:      -8.8      2.697      5.688
REMARK  Name = NuBBE_1478
REMARK  11 active torsions:
REMARK  status: ('A' for Active; 'I' for Inactive)
REMARK    1  A    between atoms: O_1  and  C_2
REMARK    2  A    between atoms: C_3  and  C_4
REMARK    3  A    between atoms: N_12  and  C_13
REMARK    4  A    between atoms: C_14  and  O_15
REMARK    5  A    between atoms: C_19  and  O_27
REMARK    6  A    between atoms: C_23  and  C_25
REMARK    7  A    between atoms: C_23  and  C_26
REMARK    8  A    between atoms: N_36  and  C_37
REMARK    9  A    between atoms: C_38  and  O_39
REMARK   10  A    between atoms: C_45  and  C_47
REMARK   11  A    between atoms: C_45  and  C_48
REMARK                            x       y       z     vdW  Elec       q    Type
REMARK                         _______ _______ _______ _____ _____    ______ ____
ROOT
ATOM      1  C   LIG A   1      -5.586   1.729 129.708  0.00  0.00    +0.137 A 
ATOM      2  C   LIG A   1      -6.642   2.652 129.545  0.00  0.00    +0.045 A 
ATOM      3  C   LIG A   1      -7.841   2.396 130.248  0.00  0.00    +0.138 A 
ATOM      4  C   LIG A   1      -8.004   1.218 131.014  0.00  0.00    +0.041 A 
ATOM      5  C   LIG A   1      -6.934   0.312 131.174  0.00  0.00    +0.067 A 
ATOM      6  C   LIG A   1      -5.739   0.560 130.479  0.00  0.00    +0.088 A 
ATOM      7  C   LIG A   1      -4.653  -0.449 130.559  0.00  0.00    +0.201 A 
ATOM      8  O   LIG A   1      -3.557  -0.222 130.054  0.00  0.00    -0.286 OA
ATOM      9  C   LIG A   1      -4.922  -1.747 131.211  0.00  0.00    +0.050 A 
ATOM     10  C   LIG A   1      -6.122  -1.910 131.908  0.00  0.00    +0.095 A 
ATOM     11  N   LIG A   1      -7.043  -0.826 132.053  0.00  0.00    -0.339 N 
ATOM     12  C   LIG A   1      -6.941  -0.330 133.456  0.00  0.00    +0.149 C 
ATOM     13  C   LIG A   1      -6.399  -3.170 132.461  0.00  0.00    +0.141 A 
ATOM     14  C   LIG A   1      -5.482  -4.213 132.393  0.00  0.00    +0.047 A 
ATOM     15  C   LIG A   1      -4.270  -4.020 131.733  0.00  0.00    +0.004 A 
ATOM     16  C   LIG A   1      -3.990  -2.791 131.131  0.00  0.00    +0.014 A 
ATOM     17  C   LIG A   1      -9.321   0.932 131.590  0.00  0.00    +0.013 C 
ATOM     18  C   LIG A   1     -10.180   1.943 131.720  0.00  0.00    +0.020 C 
ATOM     19  C   LIG A   1      -9.825   3.331 131.255  0.00  0.00    +0.123 C 
ATOM     20  O   LIG A   1      -8.854   3.329 130.176  0.00  0.00    -0.481 OA
ATOM     21  C   LIG A   1     -11.097   3.999 130.718  0.00  0.00    +0.060 C 
ATOM     22  C   LIG A   1      -9.276   4.149 132.434  0.00  0.00    +0.060 C 
ENDROOT
BRANCH   2  23
ATOM     23  C   LIG A   1      -6.460   3.857 128.602  0.00  0.00    +0.066 C 
ATOM     24  C   LIG A   1      -5.174   4.658 128.777  0.00  0.00    +0.026 A 
ATOM     25  C   LIG A   1      -4.601   4.992 130.036  0.00  0.00    +0.064 A 
ATOM     26  C   LIG A   1      -3.312   5.572 130.076  0.00  0.00    +0.088 A 
ATOM     27  C   LIG A   1      -2.650   5.770 131.383  0.00  0.00    +0.201 A 
ATOM     28  O   LIG A   1      -1.534   6.284 131.432  0.00  0.00    -0.286 OA
ATOM     29  C   LIG A   1      -3.336   5.342 132.616  0.00  0.00    +0.050 A 
ATOM     30  C   LIG A   1      -4.657   4.881 132.533  0.00  0.00    +0.095 A 
ATOM     31  N   LIG A   1      -5.331   4.851 131.267  0.00  0.00    -0.340 N 
ATOM     32  C   LIG A   1      -6.379   5.910 131.310  0.00  0.00    +0.149 C 
ATOM     33  C   LIG A   1      -5.289   4.494 133.732  0.00  0.00    +0.141 A 
ATOM     34  C   LIG A   1      -4.638   4.601 134.966  0.00  0.00    +0.047 A 
ATOM     35  C   LIG A   1      -3.333   5.086 135.023  0.00  0.00    +0.004 A 
ATOM     36  C   LIG A   1      -2.677   5.452 133.849  0.00  0.00    +0.014 A 
ATOM     37  C   LIG A   1      -2.688   5.993 128.899  0.00  0.00    +0.133 A 
ATOM     38  C   LIG A   1      -3.344   5.861 127.687  0.00  0.00    +0.092 A 
ATOM     39  C   LIG A   1      -4.571   5.199 127.635  0.00  0.00    +0.131 A 
ATOM     40  O   LIG A   1      -5.196   5.220 126.418  0.00  0.00    -0.486 OA
ATOM     41  C   LIG A   1      -5.838   3.996 126.059  0.00  0.00    +0.106 C 
ATOM     42  C   LIG A   1      -6.788   3.461 127.144  0.00  0.00    +0.060 C 
ATOM     43  C   LIG A   1      -4.754   2.990 125.653  0.00  0.00    +0.055 C 
ATOM     44  C   LIG A   1      -6.656   4.315 124.795  0.00  0.00    +0.055 C 
BRANCH  33  45
ATOM     45  O   LIG A   1      -6.567   4.002 133.698  0.00  0.00    -0.505 OA
ATOM     46  H   LIG A   1      -6.540   3.043 133.554  0.00  0.00    +0.292 HD
ENDBRANCH  33  45
BRANCH  37  47
ATOM     47  O   LIG A   1      -1.459   6.595 128.872  0.00  0.00    -0.506 OA
ATOM     48  H   LIG A   1      -1.042   6.378 128.007  0.00  0.00    +0.292 HD
ENDBRANCH  37  47
ENDBRANCH   2  23
BRANCH   1  49
ATOM     49  O   LIG A   1      -4.382   2.012 129.104  0.00  0.00    -0.506 OA
ATOM     50  H   LIG A   1      -4.570   2.430 128.232  0.00  0.00    +0.292 HD
ENDBRANCH   1  49
BRANCH  13  51
ATOM     51  O   LIG A   1      -7.608  -3.417 133.053  0.00  0.00    -0.505 OA
ATOM     52  H   LIG A   1      -7.471  -4.215 133.598  0.00  0.00    +0.292 HD
ENDBRANCH  13  51
TORSDOF 5
ENDMDL
