MODEL 1
REMARK VINA RESULT:      -6.1      0.000      0.000
REMARK  Name = NuBBE_294
REMARK  3 active torsions:
REMARK  status: ('A' for Active; 'I' for Inactive)
REMARK    1  A    between atoms: C_1  and  O_2
REMARK    2  A    between atoms: O_2  and  C_3
REMARK    3  A    between atoms: C_9  and  C_10
REMARK                            x       y       z     vdW  Elec       q    Type
REMARK                         _______ _______ _______ _____ _____    ______ ____
ROOT
ATOM      1  C   LIG A   1     -11.694   6.743 128.827  0.00  0.00    +0.134 A 
ATOM      2  C   LIG A   1     -12.951   7.299 129.086  0.00  0.00    +0.046 A 
ATOM      3  C   LIG A   1     -13.359   7.533 130.397  0.00  0.00    +0.007 A 
ATOM      4  C   LIG A   1     -12.502   7.229 131.453  0.00  0.00    +0.047 A 
ATOM      5  C   LIG A   1     -11.235   6.697 131.194  0.00  0.00    +0.142 A 
ATOM      6  O   LIG A   1     -10.451   6.450 132.295  0.00  0.00    -0.460 OA
ATOM      7  C   LIG A   1      -9.170   5.968 132.100  0.00  0.00    +0.106 A 
ATOM      8  C   LIG A   1      -8.398   5.779 133.367  0.00  0.00    +0.086 C 
ATOM      9  C   LIG A   1      -8.655   5.687 130.896  0.00  0.00    +0.093 A 
ATOM     10  C   LIG A   1     -10.820   6.451 129.883  0.00  0.00    +0.105 A 
ATOM     11  C   LIG A   1      -9.469   5.885 129.683  0.00  0.00    +0.196 A 
ATOM     12  O   LIG A   1      -9.010   5.560 128.596  0.00  0.00    -0.287 OA
ENDROOT
BRANCH   1  14
ATOM     13  C   LIG A   1     -11.057   7.870 126.929  0.00  0.00    +0.277 C 
ATOM     14  O   LIG A   1     -11.336   6.597 127.513  0.00  0.00    -0.494 OA
ENDBRANCH   1  14
TORSDOF 1
ENDMDL
MODEL 2
REMARK VINA RESULT:      -6.0      1.560      4.003
REMARK  Name = NuBBE_294
REMARK  3 active torsions:
REMARK  status: ('A' for Active; 'I' for Inactive)
REMARK    1  A    between atoms: C_1  and  O_2
REMARK    2  A    between atoms: O_2  and  C_3
REMARK    3  A    between atoms: C_9  and  C_10
REMARK                            x       y       z     vdW  Elec       q    Type
REMARK                         _______ _______ _______ _____ _____    ______ ____
ROOT
ATOM      1  C   LIG A   1      -9.614   5.652 129.587  0.00  0.00    +0.134 A 
ATOM      2  C   LIG A   1      -9.532   5.155 130.892  0.00  0.00    +0.046 A 
ATOM      3  C   LIG A   1     -10.330   5.694 131.899  0.00  0.00    +0.007 A 
ATOM      4  C   LIG A   1     -11.225   6.718 131.600  0.00  0.00    +0.047 A 
ATOM      5  C   LIG A   1     -11.326   7.199 130.291  0.00  0.00    +0.142 A 
ATOM      6  O   LIG A   1     -12.251   8.193 130.085  0.00  0.00    -0.460 OA
ATOM      7  C   LIG A   1     -12.430   8.675 128.801  0.00  0.00    +0.106 A 
ATOM      8  C   LIG A   1     -13.492   9.723 128.695  0.00  0.00    +0.086 C 
ATOM      9  C   LIG A   1     -11.723   8.257 127.743  0.00  0.00    +0.093 A 
ATOM     10  C   LIG A   1     -10.525   6.671 129.275  0.00  0.00    +0.105 A 
ATOM     11  C   LIG A   1     -10.682   7.227 127.914  0.00  0.00    +0.196 A 
ATOM     12  O   LIG A   1      -9.999   6.904 126.952  0.00  0.00    -0.287 OA
ENDROOT
BRANCH   1  14
ATOM     13  C   LIG A   1      -8.065   3.995 129.226  0.00  0.00    +0.277 C 
ATOM     14  O   LIG A   1      -8.846   5.035 128.636  0.00  0.00    -0.494 OA
ENDBRANCH   1  14
TORSDOF 1
ENDMDL
MODEL 3
REMARK VINA RESULT:      -5.7      1.573      3.198
REMARK  Name = NuBBE_294
REMARK  3 active torsions:
REMARK  status: ('A' for Active; 'I' for Inactive)
REMARK    1  A    between atoms: C_1  and  O_2
REMARK    2  A    between atoms: O_2  and  C_3
REMARK    3  A    between atoms: C_9  and  C_10
REMARK                            x       y       z     vdW  Elec       q    Type
REMARK                         _______ _______ _______ _____ _____    ______ ____
ROOT
ATOM      1  C   LIG A   1     -11.965   8.128 129.595  0.00  0.00    +0.134 A 
ATOM      2  C   LIG A   1     -12.191   8.656 128.320  0.00  0.00    +0.046 A 
ATOM      3  C   LIG A   1     -11.447   8.206 127.231  0.00  0.00    +0.007 A 
ATOM      4  C   LIG A   1     -10.488   7.211 127.413  0.00  0.00    +0.047 A 
ATOM      5  C   LIG A   1     -10.279   6.665 128.684  0.00  0.00    +0.142 A 
ATOM      6  O   LIG A   1      -9.330   5.675 128.763  0.00  0.00    -0.460 OA
ATOM      7  C   LIG A   1      -9.113   5.063 129.984  0.00  0.00    +0.106 A 
ATOM      8  C   LIG A   1      -8.089   3.973 129.938  0.00  0.00    +0.086 C 
ATOM      9  C   LIG A   1      -9.748   5.406 131.112  0.00  0.00    +0.093 A 
ATOM     10  C   LIG A   1     -11.015   7.116 129.782  0.00  0.00    +0.105 A 
ATOM     11  C   LIG A   1     -10.741   6.496 131.097  0.00  0.00    +0.196 A 
ATOM     12  O   LIG A   1     -11.263   6.843 132.147  0.00  0.00    -0.287 OA
ENDROOT
BRANCH   1  14
ATOM     13  C   LIG A   1     -13.206   9.911 130.345  0.00  0.00    +0.277 C 
ATOM     14  O   LIG A   1     -12.775   8.574 130.605  0.00  0.00    -0.494 OA
ENDBRANCH   1  14
TORSDOF 1
ENDMDL
MODEL 4
REMARK VINA RESULT:      -5.6     10.348     11.257
REMARK  Name = NuBBE_294
REMARK  3 active torsions:
REMARK  status: ('A' for Active; 'I' for Inactive)
REMARK    1  A    between atoms: C_1  and  O_2
REMARK    2  A    between atoms: O_2  and  C_3
REMARK    3  A    between atoms: C_9  and  C_10
REMARK                            x       y       z     vdW  Elec       q    Type
REMARK                         _______ _______ _______ _____ _____    ______ ____
ROOT
ATOM      1  C   LIG A   1      -6.475  -2.386 127.970  0.00  0.00    +0.134 A 
ATOM      2  C   LIG A   1      -6.999  -2.899 129.161  0.00  0.00    +0.046 A 
ATOM      3  C   LIG A   1      -8.240  -3.532 129.167  0.00  0.00    +0.007 A 
ATOM      4  C   LIG A   1      -8.952  -3.670 127.977  0.00  0.00    +0.047 A 
ATOM      5  C   LIG A   1      -8.418  -3.180 126.782  0.00  0.00    +0.142 A 
ATOM      6  O   LIG A   1      -9.179  -3.381 125.656  0.00  0.00    -0.460 OA
ATOM      7  C   LIG A   1      -8.681  -2.960 124.437  0.00  0.00    +0.106 A 
ATOM      8  C   LIG A   1      -9.578  -3.271 123.281  0.00  0.00    +0.086 C 
ATOM      9  C   LIG A   1      -7.510  -2.328 124.288  0.00  0.00    +0.093 A 
ATOM     10  C   LIG A   1      -7.178  -2.536 126.767  0.00  0.00    +0.105 A 
ATOM     11  C   LIG A   1      -6.674  -2.040 125.468  0.00  0.00    +0.196 A 
ATOM     12  O   LIG A   1      -5.640  -1.403 125.326  0.00  0.00    -0.287 OA
ENDROOT
BRANCH   1  14
ATOM     13  C   LIG A   1      -4.373  -2.609 128.871  0.00  0.00    +0.277 C 
ATOM     14  O   LIG A   1      -5.224  -1.831 128.028  0.00  0.00    -0.494 OA
ENDBRANCH   1  14
TORSDOF 1
ENDMDL
MODEL 5
REMARK VINA RESULT:      -5.4      8.689     10.553
REMARK  Name = NuBBE_294
REMARK  3 active torsions:
REMARK  status: ('A' for Active; 'I' for Inactive)
REMARK    1  A    between atoms: C_1  and  O_2
REMARK    2  A    between atoms: O_2  and  C_3
REMARK    3  A    between atoms: C_9  and  C_10
REMARK                            x       y       z     vdW  Elec       q    Type
REMARK                         _______ _______ _______ _____ _____    ______ ____
ROOT
ATOM      1  C   LIG A   1      -8.689  -2.068 124.746  0.00  0.00    +0.134 A 
ATOM      2  C   LIG A   1      -7.822  -3.085 124.334  0.00  0.00    +0.046 A 
ATOM      3  C   LIG A   1      -6.748  -2.795 123.495  0.00  0.00    +0.007 A 
ATOM      4  C   LIG A   1      -6.527  -1.482 123.082  0.00  0.00    +0.047 A 
ATOM      5  C   LIG A   1      -7.379  -0.461 123.514  0.00  0.00    +0.142 A 
ATOM      6  O   LIG A   1      -7.071   0.804 123.075  0.00  0.00    -0.460 OA
ATOM      7  C   LIG A   1      -7.848   1.862 123.508  0.00  0.00    +0.106 A 
ATOM      8  C   LIG A   1      -7.391   3.192 122.999  0.00  0.00    +0.086 C 
ATOM      9  C   LIG A   1      -8.916   1.725 124.304  0.00  0.00    +0.093 A 
ATOM     10  C   LIG A   1      -8.463  -0.743 124.348  0.00  0.00    +0.105 A 
ATOM     11  C   LIG A   1      -9.324   0.385 124.765  0.00  0.00    +0.196 A 
ATOM     12  O   LIG A   1     -10.340   0.268 125.436  0.00  0.00    -0.287 OA
ENDROOT
BRANCH   1  14
ATOM     13  C   LIG A   1      -9.203  -3.355 126.578  0.00  0.00    +0.277 C 
ATOM     14  O   LIG A   1      -9.686  -2.415 125.618  0.00  0.00    -0.494 OA
ENDBRANCH   1  14
TORSDOF 1
ENDMDL
MODEL 6
REMARK VINA RESULT:      -5.4      8.830      9.985
REMARK  Name = NuBBE_294
REMARK  3 active torsions:
REMARK  status: ('A' for Active; 'I' for Inactive)
REMARK    1  A    between atoms: C_1  and  O_2
REMARK    2  A    between atoms: O_2  and  C_3
REMARK    3  A    between atoms: C_9  and  C_10
REMARK                            x       y       z     vdW  Elec       q    Type
REMARK                         _______ _______ _______ _____ _____    ______ ____
ROOT
ATOM      1  C   LIG A   1      -8.536  -0.875 123.971  0.00  0.00    +0.134 A 
ATOM      2  C   LIG A   1      -9.046  -1.674 122.942  0.00  0.00    +0.046 A 
ATOM      3  C   LIG A   1      -9.348  -3.014 123.178  0.00  0.00    +0.007 A 
ATOM      4  C   LIG A   1      -9.159  -3.552 124.450  0.00  0.00    +0.047 A 
ATOM      5  C   LIG A   1      -8.674  -2.747 125.485  0.00  0.00    +0.142 A 
ATOM      6  O   LIG A   1      -8.541  -3.357 126.708  0.00  0.00    -0.460 OA
ATOM      7  C   LIG A   1      -8.111  -2.600 127.782  0.00  0.00    +0.106 A 
ATOM      8  C   LIG A   1      -8.047  -3.361 129.068  0.00  0.00    +0.086 C 
ATOM      9  C   LIG A   1      -7.775  -1.306 127.694  0.00  0.00    +0.093 A 
ATOM     10  C   LIG A   1      -8.360  -1.405 125.256  0.00  0.00    +0.105 A 
ATOM     11  C   LIG A   1      -7.849  -0.613 126.395  0.00  0.00    +0.196 A 
ATOM     12  O   LIG A   1      -7.475   0.549 126.317  0.00  0.00    -0.287 OA
ENDROOT
BRANCH   1  14
ATOM     13  C   LIG A   1      -9.549   1.091 123.345  0.00  0.00    +0.277 C 
ATOM     14  O   LIG A   1      -8.320   0.446 123.683  0.00  0.00    -0.494 OA
ENDBRANCH   1  14
TORSDOF 1
ENDMDL
MODEL 7
REMARK VINA RESULT:      -5.3     10.214     10.999
REMARK  Name = NuBBE_294
REMARK  3 active torsions:
REMARK  status: ('A' for Active; 'I' for Inactive)
REMARK    1  A    between atoms: C_1  and  O_2
REMARK    2  A    between atoms: O_2  and  C_3
REMARK    3  A    between atoms: C_9  and  C_10
REMARK                            x       y       z     vdW  Elec       q    Type
REMARK                         _______ _______ _______ _____ _____    ______ ____
ROOT
ATOM      1  C   LIG A   1      -7.936  -2.298 123.776  0.00  0.00    +0.134 A 
ATOM      2  C   LIG A   1      -6.820  -2.126 122.949  0.00  0.00    +0.046 A 
ATOM      3  C   LIG A   1      -5.540  -2.081 123.498  0.00  0.00    +0.007 A 
ATOM      4  C   LIG A   1      -5.372  -2.227 124.874  0.00  0.00    +0.047 A 
ATOM      5  C   LIG A   1      -6.484  -2.424 125.698  0.00  0.00    +0.142 A 
ATOM      6  O   LIG A   1      -6.220  -2.581 127.037  0.00  0.00    -0.460 OA
ATOM      7  C   LIG A   1      -7.276  -2.826 127.895  0.00  0.00    +0.106 A 
ATOM      8  C   LIG A   1      -6.861  -3.021 129.319  0.00  0.00    +0.086 C 
ATOM      9  C   LIG A   1      -8.556  -2.883 127.505  0.00  0.00    +0.093 A 
ATOM     10  C   LIG A   1      -7.772  -2.462 125.158  0.00  0.00    +0.105 A 
ATOM     11  C   LIG A   1      -8.903  -2.672 126.088  0.00  0.00    +0.196 A 
ATOM     12  O   LIG A   1     -10.081  -2.659 125.757  0.00  0.00    -0.287 OA
ENDROOT
BRANCH   1  14
ATOM     13  C   LIG A   1      -9.544  -1.128 122.625  0.00  0.00    +0.277 C 
ATOM     14  O   LIG A   1      -9.156  -2.393 123.162  0.00  0.00    -0.494 OA
ENDBRANCH   1  14
TORSDOF 1
ENDMDL
MODEL 8
REMARK VINA RESULT:      -5.3      8.421     10.215
REMARK  Name = NuBBE_294
REMARK  3 active torsions:
REMARK  status: ('A' for Active; 'I' for Inactive)
REMARK    1  A    between atoms: C_1  and  O_2
REMARK    2  A    between atoms: O_2  and  C_3
REMARK    3  A    between atoms: C_9  and  C_10
REMARK                            x       y       z     vdW  Elec       q    Type
REMARK                         _______ _______ _______ _____ _____    ______ ____
ROOT
ATOM      1  C   LIG A   1      -8.859  -2.128 125.719  0.00  0.00    +0.134 A 
ATOM      2  C   LIG A   1      -9.070  -3.265 124.931  0.00  0.00    +0.046 A 
ATOM      3  C   LIG A   1      -9.247  -3.142 123.555  0.00  0.00    +0.007 A 
ATOM      4  C   LIG A   1      -9.193  -1.882 122.960  0.00  0.00    +0.047 A 
ATOM      5  C   LIG A   1      -8.957  -0.749 123.743  0.00  0.00    +0.142 A 
ATOM      6  O   LIG A   1      -8.898   0.446 123.068  0.00  0.00    -0.460 OA
ATOM      7  C   LIG A   1      -8.620   1.597 123.783  0.00  0.00    +0.106 A 
ATOM      8  C   LIG A   1      -8.540   2.827 122.936  0.00  0.00    +0.086 C 
ATOM      9  C   LIG A   1      -8.441   1.624 125.110  0.00  0.00    +0.093 A 
ATOM     10  C   LIG A   1      -8.787  -0.861 125.126  0.00  0.00    +0.105 A 
ATOM     11  C   LIG A   1      -8.543   0.379 125.893  0.00  0.00    +0.196 A 
ATOM     12  O   LIG A   1      -8.445   0.430 127.111  0.00  0.00    -0.287 OA
ENDROOT
BRANCH   1  14
ATOM     13  C   LIG A   1      -8.841  -3.702 127.393  0.00  0.00    +0.277 C 
ATOM     14  O   LIG A   1      -8.633  -2.331 127.054  0.00  0.00    -0.494 OA
ENDBRANCH   1  14
TORSDOF 1
ENDMDL
MODEL 9
REMARK VINA RESULT:      -5.2      9.174     10.911
REMARK  Name = NuBBE_294
REMARK  3 active torsions:
REMARK  status: ('A' for Active; 'I' for Inactive)
REMARK    1  A    between atoms: C_1  and  O_2
REMARK    2  A    between atoms: O_2  and  C_3
REMARK    3  A    between atoms: C_9  and  C_10
REMARK                            x       y       z     vdW  Elec       q    Type
REMARK                         _______ _______ _______ _____ _____    ______ ____
ROOT
ATOM      1  C   LIG A   1      -7.178  -2.437 124.542  0.00  0.00    +0.134 A 
ATOM      2  C   LIG A   1      -8.032  -3.448 124.090  0.00  0.00    +0.046 A 
ATOM      3  C   LIG A   1      -9.173  -3.127 123.356  0.00  0.00    +0.007 A 
ATOM      4  C   LIG A   1      -9.450  -1.794 123.056  0.00  0.00    +0.047 A 
ATOM      5  C   LIG A   1      -8.583  -0.785 123.487  0.00  0.00    +0.142 A 
ATOM      6  O   LIG A   1      -8.925   0.496 123.126  0.00  0.00    -0.460 OA
ATOM      7  C   LIG A   1      -8.081   1.531 123.481  0.00  0.00    +0.106 A 
ATOM      8  C   LIG A   1      -8.535   2.871 122.997  0.00  0.00    +0.086 C 
ATOM      9  C   LIG A   1      -6.960   1.366 124.197  0.00  0.00    +0.093 A 
ATOM     10  C   LIG A   1      -7.442  -1.096 124.230  0.00  0.00    +0.105 A 
ATOM     11  C   LIG A   1      -6.570   0.021 124.654  0.00  0.00    +0.196 A 
ATOM     12  O   LIG A   1      -5.581  -0.105 125.363  0.00  0.00    -0.287 OA
ENDROOT
BRANCH   1  14
ATOM     13  C   LIG A   1      -5.135  -3.461 124.304  0.00  0.00    +0.277 C 
ATOM     14  O   LIG A   1      -6.045  -2.829 125.205  0.00  0.00    -0.494 OA
ENDBRANCH   1  14
TORSDOF 1
ENDMDL
