MODEL 1
REMARK VINA RESULT:      -7.0      0.000      0.000
REMARK  Name = NuBBE_108
REMARK  11 active torsions:
REMARK  status: ('A' for Active; 'I' for Inactive)
REMARK    1  A    between atoms: C_4  and  O_13
REMARK    2  A    between atoms: C_8  and  C_9
REMARK    3  A    between atoms: C_9  and  O_10
REMARK    4  A    between atoms: O_10  and  C_11
REMARK    5  A    between atoms: O_13  and  C_14
REMARK    6  A    between atoms: C_17  and  C_25
REMARK    7  A    between atoms: C_19  and  O_24
REMARK    8  A    between atoms: C_21  and  O_23
REMARK    9  A    between atoms: C_25  and  O_26
REMARK   10  A    between atoms: C_27  and  O_29
REMARK   11  A    between atoms: C_34  and  C_36
REMARK                            x       y       z     vdW  Elec       q    Type
REMARK                         _______ _______ _______ _____ _____    ______ ____
ROOT
ATOM      1  C   LIG A   1      -9.573   5.421 132.326  0.00  0.00    +0.052 C 
ATOM      2  C   LIG A   1      -8.220   6.058 132.735  0.00  0.00    +0.106 C 
ATOM      3  C   LIG A   1      -7.367   6.179 131.452  0.00  0.00    +0.316 C 
ATOM      4  O   LIG A   1      -7.993   7.157 130.599  0.00  0.00    -0.470 OA
ATOM      5  C   LIG A   1      -9.328   6.948 130.383  0.00  0.00    +0.201 C 
ATOM      6  C   LIG A   1     -10.111   6.130 131.101  0.00  0.00    +0.075 C 
ATOM      7  C   LIG A   1      -9.416   3.914 132.072  0.00  0.00    +0.129 C 
ATOM      8  C   LIG A   1      -8.492   3.175 133.012  0.00  0.00    +0.308 C 
ATOM      9  O   LIG A   1      -7.448   3.877 133.515  0.00  0.00    -0.461 OA
ATOM     10  C   LIG A   1      -7.669   5.238 133.893  0.00  0.00    +0.183 C 
ATOM     11  C   LIG A   1      -6.394   5.791 134.518  0.00  0.00    +0.052 C 
ATOM     12  O   LIG A   1      -8.567   1.961 133.169  0.00  0.00    -0.251 OA
ENDROOT
BRANCH   6  13
ATOM     13  C   LIG A   1     -11.537   5.951 130.718  0.00  0.00    +0.338 C 
ATOM     14  O   LIG A   1     -11.891   5.486 129.654  0.00  0.00    -0.245 OA
BRANCH  13  15
ATOM     15  O   LIG A   1     -12.332   6.455 131.695  0.00  0.00    -0.465 OA
ATOM     16  C   LIG A   1     -12.993   7.695 131.447  0.00  0.00    +0.280 C 
ENDBRANCH  13  15
ENDBRANCH   6  13
BRANCH   3  17
ATOM     17  O   LIG A   1      -6.013   6.546 131.707  0.00  0.00    -0.309 OA
BRANCH  17  18
ATOM     18  C   LIG A   1      -5.263   6.599 130.483  0.00  0.00    +0.286 C 
ATOM     19  O   LIG A   1      -4.624   5.355 130.173  0.00  0.00    -0.340 OA
ATOM     20  C   LIG A   1      -3.344   5.095 130.759  0.00  0.00    +0.178 C 
ATOM     21  C   LIG A   1      -2.378   6.277 130.579  0.00  0.00    +0.177 C 
ATOM     22  C   LIG A   1      -2.982   7.577 131.120  0.00  0.00    +0.179 C 
ATOM     23  C   LIG A   1      -4.337   7.838 130.452  0.00  0.00    +0.201 C 
BRANCH  22  24
ATOM     24  O   LIG A   1      -3.090   7.543 132.541  0.00  0.00    -0.386 OA
ATOM     25  H   LIG A   1      -2.608   6.756 132.851  0.00  0.00    +0.210 HD
ENDBRANCH  22  24
BRANCH  21  26
ATOM     26  O   LIG A   1      -2.125   6.453 129.166  0.00  0.00    -0.387 OA
ATOM     27  H   LIG A   1      -1.220   6.126 129.002  0.00  0.00    +0.210 HD
ENDBRANCH  21  26
BRANCH  23  28
ATOM     28  O   LIG A   1      -4.119   8.254 129.090  0.00  0.00    -0.384 OA
ATOM     29  H   LIG A   1      -4.966   8.100 128.616  0.00  0.00    +0.210 HD
ENDBRANCH  23  28
BRANCH  20  30
ATOM     30  C   LIG A   1      -3.424   4.553 132.192  0.00  0.00    +0.190 C 
BRANCH  30  31
ATOM     31  O   LIG A   1      -4.634   3.822 132.373  0.00  0.00    -0.392 OA
ATOM     32  H   LIG A   1      -4.457   2.908 132.088  0.00  0.00    +0.209 HD
ENDBRANCH  30  31
ENDBRANCH  20  30
ENDBRANCH  17  18
ENDBRANCH   3  17
TORSDOF 9
ENDMDL
MODEL 2
REMARK VINA RESULT:      -6.7      4.361      5.289
REMARK  Name = NuBBE_108
REMARK  11 active torsions:
REMARK  status: ('A' for Active; 'I' for Inactive)
REMARK    1  A    between atoms: C_4  and  O_13
REMARK    2  A    between atoms: C_8  and  C_9
REMARK    3  A    between atoms: C_9  and  O_10
REMARK    4  A    between atoms: O_10  and  C_11
REMARK    5  A    between atoms: O_13  and  C_14
REMARK    6  A    between atoms: C_17  and  C_25
REMARK    7  A    between atoms: C_19  and  O_24
REMARK    8  A    between atoms: C_21  and  O_23
REMARK    9  A    between atoms: C_25  and  O_26
REMARK   10  A    between atoms: C_27  and  O_29
REMARK   11  A    between atoms: C_34  and  C_36
REMARK                            x       y       z     vdW  Elec       q    Type
REMARK                         _______ _______ _______ _____ _____    ______ ____
ROOT
ATOM      1  C   LIG A   1      -9.044   4.231 131.183  0.00  0.00    +0.052 C 
ATOM      2  C   LIG A   1      -7.875   3.960 130.202  0.00  0.00    +0.106 C 
ATOM      3  C   LIG A   1      -8.461   3.995 128.773  0.00  0.00    +0.316 C 
ATOM      4  O   LIG A   1      -8.868   5.350 128.498  0.00  0.00    -0.470 OA
ATOM      5  C   LIG A   1      -9.666   5.908 129.459  0.00  0.00    +0.201 C 
ATOM      6  C   LIG A   1      -9.838   5.427 130.699  0.00  0.00    +0.075 C 
ATOM      7  C   LIG A   1      -9.940   2.992 131.326  0.00  0.00    +0.129 C 
ATOM      8  C   LIG A   1      -9.228   1.658 131.356  0.00  0.00    +0.308 C 
ATOM      9  O   LIG A   1      -8.075   1.568 130.650  0.00  0.00    -0.461 OA
ATOM     10  C   LIG A   1      -7.184   2.687 130.667  0.00  0.00    +0.183 C 
ATOM     11  C   LIG A   1      -5.922   2.325 129.894  0.00  0.00    +0.052 C 
ATOM     12  O   LIG A   1      -9.752   0.658 131.835  0.00  0.00    -0.251 OA
ENDROOT
BRANCH   6  13
ATOM     13  C   LIG A   1     -10.784   6.102 131.627  0.00  0.00    +0.338 C 
ATOM     14  O   LIG A   1     -10.477   6.476 132.741  0.00  0.00    -0.245 OA
BRANCH  13  15
ATOM     15  O   LIG A   1     -12.016   6.146 131.060  0.00  0.00    -0.465 OA
ATOM     16  C   LIG A   1     -12.749   7.367 131.147  0.00  0.00    +0.280 C 
ENDBRANCH  13  15
ENDBRANCH   6  13
BRANCH   3  17
ATOM     17  O   LIG A   1      -7.546   3.546 127.776  0.00  0.00    -0.309 OA
BRANCH  17  18
ATOM     18  C   LIG A   1      -7.786   4.218 126.529  0.00  0.00    +0.286 C 
ATOM     19  O   LIG A   1      -8.754   3.543 125.717  0.00  0.00    -0.340 OA
ATOM     20  C   LIG A   1      -8.298   2.479 124.873  0.00  0.00    +0.178 C 
ATOM     21  C   LIG A   1      -7.067   2.887 124.049  0.00  0.00    +0.177 C 
ATOM     22  C   LIG A   1      -5.939   3.403 124.949  0.00  0.00    +0.179 C 
ATOM     23  C   LIG A   1      -6.455   4.558 125.817  0.00  0.00    +0.201 C 
BRANCH  22  24
ATOM     24  O   LIG A   1      -5.388   2.353 125.739  0.00  0.00    -0.386 OA
ATOM     25  H   LIG A   1      -4.958   1.725 125.130  0.00  0.00    +0.210 HD
ENDBRANCH  22  24
BRANCH  21  26
ATOM     26  O   LIG A   1      -7.448   3.954 123.149  0.00  0.00    -0.387 OA
ATOM     27  H   LIG A   1      -6.683   4.556 123.091  0.00  0.00    +0.210 HD
ENDBRANCH  21  26
BRANCH  23  28
ATOM     28  O   LIG A   1      -6.624   5.728 124.993  0.00  0.00    -0.384 OA
ATOM     29  H   LIG A   1      -7.580   5.956 125.031  0.00  0.00    +0.210 HD
ENDBRANCH  23  28
BRANCH  20  30
ATOM     30  C   LIG A   1      -8.159   1.136 125.601  0.00  0.00    +0.190 C 
BRANCH  30  31
ATOM     31  O   LIG A   1      -9.058   1.081 126.705  0.00  0.00    -0.392 OA
ATOM     32  H   LIG A   1      -9.947   1.275 126.355  0.00  0.00    +0.209 HD
ENDBRANCH  30  31
ENDBRANCH  20  30
ENDBRANCH  17  18
ENDBRANCH   3  17
TORSDOF 9
ENDMDL
MODEL 3
REMARK VINA RESULT:      -6.5      8.099     10.503
REMARK  Name = NuBBE_108
REMARK  11 active torsions:
REMARK  status: ('A' for Active; 'I' for Inactive)
REMARK    1  A    between atoms: C_4  and  O_13
REMARK    2  A    between atoms: C_8  and  C_9
REMARK    3  A    between atoms: C_9  and  O_10
REMARK    4  A    between atoms: O_10  and  C_11
REMARK    5  A    between atoms: O_13  and  C_14
REMARK    6  A    between atoms: C_17  and  C_25
REMARK    7  A    between atoms: C_19  and  O_24
REMARK    8  A    between atoms: C_21  and  O_23
REMARK    9  A    between atoms: C_25  and  O_26
REMARK   10  A    between atoms: C_27  and  O_29
REMARK   11  A    between atoms: C_34  and  C_36
REMARK                            x       y       z     vdW  Elec       q    Type
REMARK                         _______ _______ _______ _____ _____    ______ ____
ROOT
ATOM      1  C   LIG A   1      -6.265   3.924 124.993  0.00  0.00    +0.052 C 
ATOM      2  C   LIG A   1      -7.312   2.784 124.906  0.00  0.00    +0.106 C 
ATOM      3  C   LIG A   1      -6.547   1.451 125.065  0.00  0.00    +0.316 C 
ATOM      4  O   LIG A   1      -6.046   1.390 126.415  0.00  0.00    -0.470 OA
ATOM      5  C   LIG A   1      -5.351   2.500 126.811  0.00  0.00    +0.201 C 
ATOM      6  C   LIG A   1      -5.361   3.685 126.184  0.00  0.00    +0.075 C 
ATOM      7  C   LIG A   1      -5.455   4.025 123.692  0.00  0.00    +0.129 C 
ATOM      8  C   LIG A   1      -6.227   3.810 122.410  0.00  0.00    +0.308 C 
ATOM      9  O   LIG A   1      -7.284   2.964 122.471  0.00  0.00    -0.461 OA
ATOM     10  C   LIG A   1      -8.116   3.007 123.634  0.00  0.00    +0.183 C 
ATOM     11  C   LIG A   1      -9.285   2.049 123.440  0.00  0.00    +0.052 C 
ATOM     12  O   LIG A   1      -5.816   4.226 121.332  0.00  0.00    -0.251 OA
ENDROOT
BRANCH   6  13
ATOM     13  C   LIG A   1      -4.509   4.795 126.690  0.00  0.00    +0.338 C 
ATOM     14  O   LIG A   1      -4.933   5.907 126.932  0.00  0.00    -0.245 OA
BRANCH  13  15
ATOM     15  O   LIG A   1      -3.218   4.380 126.750  0.00  0.00    -0.465 OA
ATOM     16  C   LIG A   1      -2.503   4.596 127.966  0.00  0.00    +0.280 C 
ENDBRANCH  13  15
ENDBRANCH   6  13
BRANCH   3  17
ATOM     17  O   LIG A   1      -7.348   0.303 124.789  0.00  0.00    -0.309 OA
BRANCH  17  18
ATOM     18  C   LIG A   1      -6.525  -0.862 124.626  0.00  0.00    +0.286 C 
ATOM     19  O   LIG A   1      -6.706  -1.491 123.351  0.00  0.00    -0.340 OA
ATOM     20  C   LIG A   1      -7.782  -2.426 123.211  0.00  0.00    +0.178 C 
ATOM     21  C   LIG A   1      -7.796  -3.460 124.350  0.00  0.00    +0.177 C 
ATOM     22  C   LIG A   1      -7.829  -2.777 125.721  0.00  0.00    +0.179 C 
ATOM     23  C   LIG A   1      -6.650  -1.805 125.846  0.00  0.00    +0.201 C 
BRANCH  22  24
ATOM     24  O   LIG A   1      -9.078  -2.127 125.944  0.00  0.00    -0.386 OA
ATOM     25  H   LIG A   1      -8.929  -1.169 125.845  0.00  0.00    +0.210 HD
ENDBRANCH  22  24
BRANCH  21  26
ATOM     26  O   LIG A   1      -6.587  -4.250 124.269  0.00  0.00    -0.387 OA
ATOM     27  H   LIG A   1      -5.904  -3.673 123.879  0.00  0.00    +0.210 HD
ENDBRANCH  21  26
BRANCH  23  28
ATOM     28  O   LIG A   1      -5.433  -2.559 126.011  0.00  0.00    -0.384 OA
ATOM     29  H   LIG A   1      -4.769  -1.933 126.377  0.00  0.00    +0.210 HD
ENDBRANCH  23  28
BRANCH  20  30
ATOM     30  C   LIG A   1      -9.138  -1.765 122.937  0.00  0.00    +0.190 C 
BRANCH  30  31
ATOM     31  O   LIG A   1     -10.195  -2.677 123.222  0.00  0.00    -0.392 OA
ATOM     32  H   LIG A   1     -10.543  -2.985 122.366  0.00  0.00    +0.209 HD
ENDBRANCH  30  31
ENDBRANCH  20  30
ENDBRANCH  17  18
ENDBRANCH   3  17
TORSDOF 9
ENDMDL
MODEL 4
REMARK VINA RESULT:      -6.5      3.824      4.727
REMARK  Name = NuBBE_108
REMARK  11 active torsions:
REMARK  status: ('A' for Active; 'I' for Inactive)
REMARK    1  A    between atoms: C_4  and  O_13
REMARK    2  A    between atoms: C_8  and  C_9
REMARK    3  A    between atoms: C_9  and  O_10
REMARK    4  A    between atoms: O_10  and  C_11
REMARK    5  A    between atoms: O_13  and  C_14
REMARK    6  A    between atoms: C_17  and  C_25
REMARK    7  A    between atoms: C_19  and  O_24
REMARK    8  A    between atoms: C_21  and  O_23
REMARK    9  A    between atoms: C_25  and  O_26
REMARK   10  A    between atoms: C_27  and  O_29
REMARK   11  A    between atoms: C_34  and  C_36
REMARK                            x       y       z     vdW  Elec       q    Type
REMARK                         _______ _______ _______ _____ _____    ______ ____
ROOT
ATOM      1  C   LIG A   1      -9.941   5.294 130.873  0.00  0.00    +0.052 C 
ATOM      2  C   LIG A   1      -8.535   5.170 130.232  0.00  0.00    +0.106 C 
ATOM      3  C   LIG A   1      -8.743   4.950 128.717  0.00  0.00    +0.316 C 
ATOM      4  O   LIG A   1      -9.293   6.164 128.168  0.00  0.00    -0.470 OA
ATOM      5  C   LIG A   1     -10.390   6.639 128.834  0.00  0.00    +0.201 C 
ATOM      6  C   LIG A   1     -10.781   6.255 130.057  0.00  0.00    +0.075 C 
ATOM      7  C   LIG A   1     -10.618   3.920 130.982  0.00  0.00    +0.129 C 
ATOM      8  C   LIG A   1      -9.719   2.765 131.361  0.00  0.00    +0.308 C 
ATOM      9  O   LIG A   1      -8.428   2.841 130.956  0.00  0.00    -0.461 OA
ATOM     10  C   LIG A   1      -7.775   4.112 131.017  0.00  0.00    +0.183 C 
ATOM     11  C   LIG A   1      -6.317   3.938 130.610  0.00  0.00    +0.052 C 
ATOM     12  O   LIG A   1     -10.166   1.730 131.845  0.00  0.00    -0.251 OA
ENDROOT
BRANCH   6  13
ATOM     13  C   LIG A   1     -12.031   6.811 130.641  0.00  0.00    +0.338 C 
ATOM     14  O   LIG A   1     -12.406   6.572 131.771  0.00  0.00    -0.245 OA
BRANCH  13  15
ATOM     15  O   LIG A   1     -12.686   7.534 129.697  0.00  0.00    -0.465 OA
ATOM     16  C   LIG A   1     -12.802   8.943 129.895  0.00  0.00    +0.280 C 
ENDBRANCH  13  15
ENDBRANCH   6  13
BRANCH   3  17
ATOM     17  O   LIG A   1      -7.545   4.600 128.027  0.00  0.00    -0.309 OA
BRANCH  17  18
ATOM     18  C   LIG A   1      -7.815   3.633 127.001  0.00  0.00    +0.286 C 
ATOM     19  O   LIG A   1      -6.849   2.575 126.973  0.00  0.00    -0.340 OA
ATOM     20  C   LIG A   1      -5.642   2.788 126.232  0.00  0.00    +0.178 C 
ATOM     21  C   LIG A   1      -5.922   3.324 124.819  0.00  0.00    +0.177 C 
ATOM     22  C   LIG A   1      -6.777   4.595 124.865  0.00  0.00    +0.179 C 
ATOM     23  C   LIG A   1      -8.071   4.323 125.640  0.00  0.00    +0.201 C 
BRANCH  22  24
ATOM     24  O   LIG A   1      -6.048   5.688 125.418  0.00  0.00    -0.386 OA
ATOM     25  H   LIG A   1      -6.667   6.205 125.964  0.00  0.00    +0.210 HD
ENDBRANCH  22  24
BRANCH  21  26
ATOM     26  O   LIG A   1      -6.652   2.317 124.081  0.00  0.00    -0.387 OA
ATOM     27  H   LIG A   1      -7.281   2.794 123.507  0.00  0.00    +0.210 HD
ENDBRANCH  21  26
BRANCH  23  28
ATOM     28  O   LIG A   1      -8.942   3.508 124.832  0.00  0.00    -0.384 OA
ATOM     29  H   LIG A   1      -8.425   2.708 124.591  0.00  0.00    +0.210 HD
ENDBRANCH  23  28
BRANCH  20  30
ATOM     30  C   LIG A   1      -4.576   3.571 127.009  0.00  0.00    +0.190 C 
BRANCH  30  31
ATOM     31  O   LIG A   1      -3.561   4.031 126.120  0.00  0.00    -0.392 OA
ATOM     32  H   LIG A   1      -3.486   4.993 126.250  0.00  0.00    +0.209 HD
ENDBRANCH  30  31
ENDBRANCH  20  30
ENDBRANCH  17  18
ENDBRANCH   3  17
TORSDOF 9
ENDMDL
MODEL 5
REMARK VINA RESULT:      -6.4      7.992      9.784
REMARK  Name = NuBBE_108
REMARK  11 active torsions:
REMARK  status: ('A' for Active; 'I' for Inactive)
REMARK    1  A    between atoms: C_4  and  O_13
REMARK    2  A    between atoms: C_8  and  C_9
REMARK    3  A    between atoms: C_9  and  O_10
REMARK    4  A    between atoms: O_10  and  C_11
REMARK    5  A    between atoms: O_13  and  C_14
REMARK    6  A    between atoms: C_17  and  C_25
REMARK    7  A    between atoms: C_19  and  O_24
REMARK    8  A    between atoms: C_21  and  O_23
REMARK    9  A    between atoms: C_25  and  O_26
REMARK   10  A    between atoms: C_27  and  O_29
REMARK   11  A    between atoms: C_34  and  C_36
REMARK                            x       y       z     vdW  Elec       q    Type
REMARK                         _______ _______ _______ _____ _____    ______ ____
ROOT
ATOM      1  C   LIG A   1      -7.647  -3.042 126.104  0.00  0.00    +0.052 C 
ATOM      2  C   LIG A   1      -6.751  -2.080 125.282  0.00  0.00    +0.106 C 
ATOM      3  C   LIG A   1      -7.168  -0.640 125.653  0.00  0.00    +0.316 C 
ATOM      4  O   LIG A   1      -6.791  -0.413 127.026  0.00  0.00    -0.470 OA
ATOM      5  C   LIG A   1      -7.220  -1.377 127.897  0.00  0.00    +0.201 C 
ATOM      6  C   LIG A   1      -7.673  -2.590 127.549  0.00  0.00    +0.075 C 
ATOM      7  C   LIG A   1      -9.064  -3.108 125.517  0.00  0.00    +0.129 C 
ATOM      8  C   LIG A   1      -9.159  -3.099 124.008  0.00  0.00    +0.308 C 
ATOM      9  O   LIG A   1      -8.195  -2.419 123.342  0.00  0.00    -0.461 OA
ATOM     10  C   LIG A   1      -6.851  -2.507 123.825  0.00  0.00    +0.183 C 
ATOM     11  C   LIG A   1      -5.933  -1.751 122.872  0.00  0.00    +0.052 C 
ATOM     12  O   LIG A   1     -10.150  -3.521 123.421  0.00  0.00    -0.251 OA
ENDROOT
BRANCH   6  13
ATOM     13  C   LIG A   1      -8.165  -3.522 128.599  0.00  0.00    +0.338 C 
ATOM     14  O   LIG A   1      -9.310  -3.925 128.652  0.00  0.00    -0.245 OA
BRANCH  13  15
ATOM     15  O   LIG A   1      -7.171  -3.762 129.490  0.00  0.00    -0.465 OA
ATOM     16  C   LIG A   1      -7.352  -3.309 130.832  0.00  0.00    +0.280 C 
ENDBRANCH  13  15
ENDBRANCH   6  13
BRANCH   3  17
ATOM     17  O   LIG A   1      -6.582   0.353 124.814  0.00  0.00    -0.309 OA
BRANCH  17  18
ATOM     18  C   LIG A   1      -7.567   1.311 124.397  0.00  0.00    +0.286 C 
ATOM     19  O   LIG A   1      -6.986   2.464 123.776  0.00  0.00    -0.340 OA
ATOM     20  C   LIG A   1      -6.540   3.529 124.624  0.00  0.00    +0.178 C 
ATOM     21  C   LIG A   1      -7.609   3.930 125.654  0.00  0.00    +0.177 C 
ATOM     22  C   LIG A   1      -8.070   2.722 126.476  0.00  0.00    +0.179 C 
ATOM     23  C   LIG A   1      -8.566   1.614 125.540  0.00  0.00    +0.201 C 
BRANCH  22  24
ATOM     24  O   LIG A   1      -7.035   2.261 127.341  0.00  0.00    -0.386 OA
ATOM     25  H   LIG A   1      -6.361   1.830 126.785  0.00  0.00    +0.210 HD
ENDBRANCH  22  24
BRANCH  21  26
ATOM     26  O   LIG A   1      -8.756   4.457 124.946  0.00  0.00    -0.387 OA
ATOM     27  H   LIG A   1      -8.655   5.427 124.936  0.00  0.00    +0.210 HD
ENDBRANCH  21  26
BRANCH  23  28
ATOM     28  O   LIG A   1      -9.841   1.997 124.988  0.00  0.00    -0.384 OA
ATOM     29  H   LIG A   1     -10.382   2.317 125.744  0.00  0.00    +0.210 HD
ENDBRANCH  23  28
BRANCH  20  30
ATOM     30  C   LIG A   1      -5.144   3.300 125.215  0.00  0.00    +0.190 C 
BRANCH  30  31
ATOM     31  O   LIG A   1      -4.906   4.215 126.281  0.00  0.00    -0.392 OA
ATOM     32  H   LIG A   1      -3.971   4.484 126.219  0.00  0.00    +0.209 HD
ENDBRANCH  30  31
ENDBRANCH  20  30
ENDBRANCH  17  18
ENDBRANCH   3  17
TORSDOF 9
ENDMDL
MODEL 6
REMARK VINA RESULT:      -6.4      3.077      4.405
REMARK  Name = NuBBE_108
REMARK  11 active torsions:
REMARK  status: ('A' for Active; 'I' for Inactive)
REMARK    1  A    between atoms: C_4  and  O_13
REMARK    2  A    between atoms: C_8  and  C_9
REMARK    3  A    between atoms: C_9  and  O_10
REMARK    4  A    between atoms: O_10  and  C_11
REMARK    5  A    between atoms: O_13  and  C_14
REMARK    6  A    between atoms: C_17  and  C_25
REMARK    7  A    between atoms: C_19  and  O_24
REMARK    8  A    between atoms: C_21  and  O_23
REMARK    9  A    between atoms: C_25  and  O_26
REMARK   10  A    between atoms: C_27  and  O_29
REMARK   11  A    between atoms: C_34  and  C_36
REMARK                            x       y       z     vdW  Elec       q    Type
REMARK                         _______ _______ _______ _____ _____    ______ ____
ROOT
ATOM      1  C   LIG A   1      -9.902   6.638 131.341  0.00  0.00    +0.052 C 
ATOM      2  C   LIG A   1      -8.490   6.579 130.706  0.00  0.00    +0.106 C 
ATOM      3  C   LIG A   1      -8.537   5.513 129.588  0.00  0.00    +0.316 C 
ATOM      4  O   LIG A   1      -9.393   6.013 128.541  0.00  0.00    -0.470 OA
ATOM      5  C   LIG A   1     -10.616   6.449 128.970  0.00  0.00    +0.201 C 
ATOM      6  C   LIG A   1     -10.943   6.711 130.243  0.00  0.00    +0.075 C 
ATOM      7  C   LIG A   1     -10.144   5.428 132.256  0.00  0.00    +0.129 C 
ATOM      8  C   LIG A   1      -8.965   4.978 133.088  0.00  0.00    +0.308 C 
ATOM      9  O   LIG A   1      -7.735   5.174 132.554  0.00  0.00    -0.461 OA
ATOM     10  C   LIG A   1      -7.494   6.389 131.840  0.00  0.00    +0.183 C 
ATOM     11  C   LIG A   1      -6.030   6.434 131.420  0.00  0.00    +0.052 C 
ATOM     12  O   LIG A   1      -9.110   4.306 134.103  0.00  0.00    -0.251 OA
ENDROOT
BRANCH   6  13
ATOM     13  C   LIG A   1     -12.332   7.123 130.579  0.00  0.00    +0.338 C 
ATOM     14  O   LIG A   1     -12.886   6.826 131.618  0.00  0.00    -0.245 OA
BRANCH  13  15
ATOM     15  O   LIG A   1     -12.871   7.789 129.526  0.00  0.00    -0.465 OA
ATOM     16  C   LIG A   1     -12.820   9.215 129.539  0.00  0.00    +0.280 C 
ENDBRANCH  13  15
ENDBRANCH   6  13
BRANCH   3  17
ATOM     17  O   LIG A   1      -7.253   5.191 129.059  0.00  0.00    -0.309 OA
BRANCH  17  18
ATOM     18  C   LIG A   1      -6.993   3.784 129.179  0.00  0.00    +0.286 C 
ATOM     19  O   LIG A   1      -5.695   3.420 128.694  0.00  0.00    -0.340 OA
ATOM     20  C   LIG A   1      -5.550   3.164 127.292  0.00  0.00    +0.178 C 
ATOM     21  C   LIG A   1      -6.631   2.204 126.769  0.00  0.00    +0.177 C 
ATOM     22  C   LIG A   1      -8.037   2.716 127.097  0.00  0.00    +0.179 C 
ATOM     23  C   LIG A   1      -8.165   2.952 128.607  0.00  0.00    +0.201 C 
BRANCH  22  24
ATOM     24  O   LIG A   1      -8.347   3.890 126.350  0.00  0.00    -0.386 OA
ATOM     25  H   LIG A   1      -7.618   4.035 125.720  0.00  0.00    +0.210 HD
ENDBRANCH  22  24
BRANCH  21  26
ATOM     26  O   LIG A   1      -6.457   0.921 127.412  0.00  0.00    -0.387 OA
ATOM     27  H   LIG A   1      -6.183   0.295 126.716  0.00  0.00    +0.210 HD
ENDBRANCH  21  26
BRANCH  23  28
ATOM     28  O   LIG A   1      -8.238   1.679 129.278  0.00  0.00    -0.384 OA
ATOM     29  H   LIG A   1      -7.817   1.026 128.676  0.00  0.00    +0.210 HD
ENDBRANCH  23  28
BRANCH  20  30
ATOM     30  C   LIG A   1      -5.369   4.435 126.453  0.00  0.00    +0.190 C 
BRANCH  30  31
ATOM     31  O   LIG A   1      -4.836   5.483 127.258  0.00  0.00    -0.392 OA
ATOM     32  H   LIG A   1      -4.106   5.884 126.754  0.00  0.00    +0.209 HD
ENDBRANCH  30  31
ENDBRANCH  20  30
ENDBRANCH  17  18
ENDBRANCH   3  17
TORSDOF 9
ENDMDL
MODEL 7
REMARK VINA RESULT:      -6.4      4.439      7.172
REMARK  Name = NuBBE_108
REMARK  11 active torsions:
REMARK  status: ('A' for Active; 'I' for Inactive)
REMARK    1  A    between atoms: C_4  and  O_13
REMARK    2  A    between atoms: C_8  and  C_9
REMARK    3  A    between atoms: C_9  and  O_10
REMARK    4  A    between atoms: O_10  and  C_11
REMARK    5  A    between atoms: O_13  and  C_14
REMARK    6  A    between atoms: C_17  and  C_25
REMARK    7  A    between atoms: C_19  and  O_24
REMARK    8  A    between atoms: C_21  and  O_23
REMARK    9  A    between atoms: C_25  and  O_26
REMARK   10  A    between atoms: C_27  and  O_29
REMARK   11  A    between atoms: C_34  and  C_36
REMARK                            x       y       z     vdW  Elec       q    Type
REMARK                         _______ _______ _______ _____ _____    ______ ____
ROOT
ATOM      1  C   LIG A   1      -5.259   3.084 125.895  0.00  0.00    +0.052 C 
ATOM      2  C   LIG A   1      -5.885   2.955 127.308  0.00  0.00    +0.106 C 
ATOM      3  C   LIG A   1      -6.319   4.372 127.744  0.00  0.00    +0.316 C 
ATOM      4  O   LIG A   1      -7.408   4.780 126.893  0.00  0.00    -0.470 OA
ATOM      5  C   LIG A   1      -7.162   4.643 125.555  0.00  0.00    +0.201 C 
ATOM      6  C   LIG A   1      -6.167   3.922 125.019  0.00  0.00    +0.075 C 
ATOM      7  C   LIG A   1      -3.849   3.688 125.972  0.00  0.00    +0.129 C 
ATOM      8  C   LIG A   1      -2.995   3.234 127.134  0.00  0.00    +0.308 C 
ATOM      9  O   LIG A   1      -3.645   2.914 128.279  0.00  0.00    -0.461 OA
ATOM     10  C   LIG A   1      -4.885   2.207 128.177  0.00  0.00    +0.183 C 
ATOM     11  C   LIG A   1      -5.380   1.872 129.578  0.00  0.00    +0.052 C 
ATOM     12  O   LIG A   1      -1.772   3.324 127.110  0.00  0.00    -0.251 OA
ENDROOT
BRANCH   6  13
ATOM     13  C   LIG A   1      -5.978   3.907 123.544  0.00  0.00    +0.338 C 
ATOM     14  O   LIG A   1      -5.382   4.773 122.937  0.00  0.00    -0.245 OA
BRANCH  13  15
ATOM     15  O   LIG A   1      -6.633   2.842 123.017  0.00  0.00    -0.465 OA
ATOM     16  C   LIG A   1      -7.765   3.098 122.185  0.00  0.00    +0.280 C 
ENDBRANCH  13  15
ENDBRANCH   6  13
BRANCH   3  17
ATOM     17  O   LIG A   1      -6.712   4.446 129.113  0.00  0.00    -0.309 OA
BRANCH  17  18
ATOM     18  C   LIG A   1      -8.139   4.575 129.224  0.00  0.00    +0.286 C 
ATOM     19  O   LIG A   1      -8.543   5.893 129.617  0.00  0.00    -0.340 OA
ATOM     20  C   LIG A   1      -8.567   6.198 131.016  0.00  0.00    +0.178 C 
ATOM     21  C   LIG A   1      -9.308   5.122 131.826  0.00  0.00    +0.177 C 
ATOM     22  C   LIG A   1      -8.720   3.730 131.572  0.00  0.00    +0.179 C 
ATOM     23  C   LIG A   1      -8.736   3.426 130.070  0.00  0.00    +0.201 C 
BRANCH  22  24
ATOM     24  O   LIG A   1      -7.410   3.614 132.122  0.00  0.00    -0.386 OA
ATOM     25  H   LIG A   1      -7.469   3.023 132.894  0.00  0.00    +0.210 HD
ENDBRANCH  22  24
BRANCH  21  26
ATOM     26  O   LIG A   1     -10.694   5.108 131.414  0.00  0.00    -0.387 OA
ATOM     27  H   LIG A   1     -11.016   4.198 131.554  0.00  0.00    +0.210 HD
ENDBRANCH  21  26
BRANCH  23  28
ATOM     28  O   LIG A   1     -10.092   3.165 129.656  0.00  0.00    -0.384 OA
ATOM     29  H   LIG A   1     -10.060   2.353 129.103  0.00  0.00    +0.210 HD
ENDBRANCH  23  28
BRANCH  20  30
ATOM     30  C   LIG A   1      -7.195   6.587 131.582  0.00  0.00    +0.190 C 
BRANCH  30  31
ATOM     31  O   LIG A   1      -6.425   7.253 130.585  0.00  0.00    -0.392 OA
ATOM     32  H   LIG A   1      -6.028   6.562 130.025  0.00  0.00    +0.209 HD
ENDBRANCH  30  31
ENDBRANCH  20  30
ENDBRANCH  17  18
ENDBRANCH   3  17
TORSDOF 9
ENDMDL
MODEL 8
REMARK VINA RESULT:      -6.3      7.685      9.341
REMARK  Name = NuBBE_108
REMARK  11 active torsions:
REMARK  status: ('A' for Active; 'I' for Inactive)
REMARK    1  A    between atoms: C_4  and  O_13
REMARK    2  A    between atoms: C_8  and  C_9
REMARK    3  A    between atoms: C_9  and  O_10
REMARK    4  A    between atoms: O_10  and  C_11
REMARK    5  A    between atoms: O_13  and  C_14
REMARK    6  A    between atoms: C_17  and  C_25
REMARK    7  A    between atoms: C_19  and  O_24
REMARK    8  A    between atoms: C_21  and  O_23
REMARK    9  A    between atoms: C_25  and  O_26
REMARK   10  A    between atoms: C_27  and  O_29
REMARK   11  A    between atoms: C_34  and  C_36
REMARK                            x       y       z     vdW  Elec       q    Type
REMARK                         _______ _______ _______ _____ _____    ______ ____
ROOT
ATOM      1  C   LIG A   1      -7.168  -0.757 123.543  0.00  0.00    +0.052 C 
ATOM      2  C   LIG A   1      -6.792   0.663 124.041  0.00  0.00    +0.106 C 
ATOM      3  C   LIG A   1      -7.027   0.688 125.567  0.00  0.00    +0.316 C 
ATOM      4  O   LIG A   1      -6.056  -0.186 126.176  0.00  0.00    -0.470 OA
ATOM      5  C   LIG A   1      -5.997  -1.437 125.626  0.00  0.00    +0.201 C 
ATOM      6  C   LIG A   1      -6.525  -1.790 124.445  0.00  0.00    +0.075 C 
ATOM      7  C   LIG A   1      -8.692  -0.935 123.493  0.00  0.00    +0.129 C 
ATOM      8  C   LIG A   1      -9.485   0.261 123.019  0.00  0.00    +0.308 C 
ATOM      9  O   LIG A   1      -8.967   1.483 123.294  0.00  0.00    -0.461 OA
ATOM     10  C   LIG A   1      -7.552   1.658 123.177  0.00  0.00    +0.183 C 
ATOM     11  C   LIG A   1      -7.212   3.121 123.436  0.00  0.00    +0.052 C 
ATOM     12  O   LIG A   1     -10.623   0.147 122.575  0.00  0.00    -0.251 OA
ENDROOT
BRANCH   6  13
ATOM     13  C   LIG A   1      -6.439  -3.204 123.991  0.00  0.00    +0.338 C 
ATOM     14  O   LIG A   1      -7.260  -4.051 124.282  0.00  0.00    -0.245 OA
BRANCH  13  15
ATOM     15  O   LIG A   1      -5.287  -3.386 123.297  0.00  0.00    -0.465 OA
ATOM     16  C   LIG A   1      -4.430  -4.456 123.692  0.00  0.00    +0.280 C 
ENDBRANCH  13  15
ENDBRANCH   6  13
BRANCH   3  17
ATOM     17  O   LIG A   1      -6.933   1.994 126.132  0.00  0.00    -0.309 OA
BRANCH  17  18
ATOM     18  C   LIG A   1      -5.722   2.131 126.892  0.00  0.00    +0.286 C 
ATOM     19  O   LIG A   1      -5.965   2.246 128.299  0.00  0.00    -0.340 OA
ATOM     20  C   LIG A   1      -6.254   3.545 128.827  0.00  0.00    +0.178 C 
ATOM     21  C   LIG A   1      -5.242   4.598 128.348  0.00  0.00    +0.177 C 
ATOM     22  C   LIG A   1      -5.150   4.628 126.819  0.00  0.00    +0.179 C 
ATOM     23  C   LIG A   1      -4.811   3.229 126.291  0.00  0.00    +0.201 C 
BRANCH  22  24
ATOM     24  O   LIG A   1      -6.348   5.137 126.239  0.00  0.00    -0.386 OA
ATOM     25  H   LIG A   1      -7.096   4.704 126.689  0.00  0.00    +0.210 HD
ENDBRANCH  22  24
BRANCH  21  26
ATOM     26  O   LIG A   1      -3.938   4.254 128.871  0.00  0.00    -0.387 OA
ATOM     27  H   LIG A   1      -3.312   4.323 128.125  0.00  0.00    +0.210 HD
ENDBRANCH  21  26
BRANCH  23  28
ATOM     28  O   LIG A   1      -3.431   2.935 126.584  0.00  0.00    -0.384 OA
ATOM     29  H   LIG A   1      -3.319   3.073 127.551  0.00  0.00    +0.210 HD
ENDBRANCH  23  28
BRANCH  20  30
ATOM     30  C   LIG A   1      -7.723   3.958 128.668  0.00  0.00    +0.190 C 
BRANCH  30  31
ATOM     31  O   LIG A   1      -7.873   5.350 128.935  0.00  0.00    -0.392 OA
ATOM     32  H   LIG A   1      -8.761   5.471 129.317  0.00  0.00    +0.209 HD
ENDBRANCH  30  31
ENDBRANCH  20  30
ENDBRANCH  17  18
ENDBRANCH   3  17
TORSDOF 9
ENDMDL
MODEL 9
REMARK VINA RESULT:      -6.3      0.944      1.690
REMARK  Name = NuBBE_108
REMARK  11 active torsions:
REMARK  status: ('A' for Active; 'I' for Inactive)
REMARK    1  A    between atoms: C_4  and  O_13
REMARK    2  A    between atoms: C_8  and  C_9
REMARK    3  A    between atoms: C_9  and  O_10
REMARK    4  A    between atoms: O_10  and  C_11
REMARK    5  A    between atoms: O_13  and  C_14
REMARK    6  A    between atoms: C_17  and  C_25
REMARK    7  A    between atoms: C_19  and  O_24
REMARK    8  A    between atoms: C_21  and  O_23
REMARK    9  A    between atoms: C_25  and  O_26
REMARK   10  A    between atoms: C_27  and  O_29
REMARK   11  A    between atoms: C_34  and  C_36
REMARK                            x       y       z     vdW  Elec       q    Type
REMARK                         _______ _______ _______ _____ _____    ______ ____
ROOT
ATOM      1  C   LIG A   1      -9.559   5.507 132.293  0.00  0.00    +0.052 C 
ATOM      2  C   LIG A   1      -8.212   6.039 132.845  0.00  0.00    +0.106 C 
ATOM      3  C   LIG A   1      -7.242   6.152 131.648  0.00  0.00    +0.316 C 
ATOM      4  O   LIG A   1      -7.728   7.201 130.787  0.00  0.00    -0.470 OA
ATOM      5  C   LIG A   1      -9.048   7.087 130.446  0.00  0.00    +0.201 C 
ATOM      6  C   LIG A   1      -9.941   6.295 131.057  0.00  0.00    +0.075 C 
ATOM      7  C   LIG A   1      -9.473   4.004 131.988  0.00  0.00    +0.129 C 
ATOM      8  C   LIG A   1      -8.684   3.171 132.973  0.00  0.00    +0.308 C 
ATOM      9  O   LIG A   1      -7.648   3.784 133.595  0.00  0.00    -0.461 OA
ATOM     10  C   LIG A   1      -7.819   5.143 134.010  0.00  0.00    +0.183 C 
ATOM     11  C   LIG A   1      -6.574   5.588 134.767  0.00  0.00    +0.052 C 
ATOM     12  O   LIG A   1      -8.848   1.959 133.070  0.00  0.00    -0.251 OA
ENDROOT
BRANCH   6  13
ATOM     13  C   LIG A   1     -11.335   6.223 130.544  0.00  0.00    +0.338 C 
ATOM     14  O   LIG A   1     -11.695   5.436 129.692  0.00  0.00    -0.245 OA
BRANCH  13  15
ATOM     15  O   LIG A   1     -12.076   7.205 131.116  0.00  0.00    -0.465 OA
ATOM     16  C   LIG A   1     -12.616   8.216 130.265  0.00  0.00    +0.280 C 
ENDBRANCH  13  15
ENDBRANCH   6  13
BRANCH   3  17
ATOM     17  O   LIG A   1      -5.896   6.420 132.035  0.00  0.00    -0.309 OA
BRANCH  17  18
ATOM     18  C   LIG A   1      -4.988   5.541 131.353  0.00  0.00    +0.286 C 
ATOM     19  O   LIG A   1      -3.670   5.567 131.915  0.00  0.00    -0.340 OA
ATOM     20  C   LIG A   1      -2.769   6.586 131.465  0.00  0.00    +0.178 C 
ATOM     21  C   LIG A   1      -2.723   6.677 129.932  0.00  0.00    +0.177 C 
ATOM     22  C   LIG A   1      -4.124   6.876 129.343  0.00  0.00    +0.179 C 
ATOM     23  C   LIG A   1      -5.053   5.753 129.822  0.00  0.00    +0.201 C 
BRANCH  22  24
ATOM     24  O   LIG A   1      -4.642   8.165 129.665  0.00  0.00    -0.386 OA
ATOM     25  H   LIG A   1      -4.362   8.775 128.960  0.00  0.00    +0.210 HD
ENDBRANCH  22  24
BRANCH  21  26
ATOM     26  O   LIG A   1      -2.189   5.437 129.413  0.00  0.00    -0.387 OA
ATOM     27  H   LIG A   1      -2.408   4.746 130.065  0.00  0.00    +0.210 HD
ENDBRANCH  21  26
BRANCH  23  28
ATOM     28  O   LIG A   1      -4.706   4.532 129.141  0.00  0.00    -0.384 OA
ATOM     29  H   LIG A   1      -5.049   4.620 128.224  0.00  0.00    +0.210 HD
ENDBRANCH  23  28
BRANCH  20  30
ATOM     30  C   LIG A   1      -2.962   7.932 132.176  0.00  0.00    +0.190 C 
BRANCH  30  31
ATOM     31  O   LIG A   1      -3.340   7.720 133.534  0.00  0.00    -0.392 OA
ATOM     32  H   LIG A   1      -4.080   7.087 133.526  0.00  0.00    +0.209 HD
ENDBRANCH  30  31
ENDBRANCH  20  30
ENDBRANCH  17  18
ENDBRANCH   3  17
TORSDOF 9
ENDMDL
