MODEL 1
REMARK VINA RESULT:      -6.2      0.000      0.000
REMARK  Name = NuBBE_669
REMARK  3 active torsions:
REMARK  status: ('A' for Active; 'I' for Inactive)
REMARK    1  A    between atoms: CA_9  and  CB_11
REMARK    2  A    between atoms: CB_11  and  CG1_13
REMARK    3  A    between atoms: CB_11  and  CG2_14
REMARK                            x       y       z     vdW  Elec       q    Type
REMARK                         _______ _______ _______ _____ _____    ______ ____
ROOT
ATOM      1  O   VAL A   2     -12.319   6.798 132.166  0.00  0.00    -0.274 OA
ATOM      2  C   VAL A   2     -11.691   6.668 131.118  0.00  0.00    +0.237 C 
ATOM      3  N   PRO A   1     -11.876   7.491 130.029  0.00  0.00    -0.288 N 
ATOM      4  CA  PRO A   1     -11.533   7.068 128.687  0.00  0.00    +0.162 C 
ATOM      5  CB  PRO A   1     -11.647   8.357 127.891  0.00  0.00    +0.033 C 
ATOM      6  CG  PRO A   1     -12.860   9.028 128.540  0.00  0.00    +0.021 C 
ATOM      7  CD  PRO A   1     -12.778   8.623 130.012  0.00  0.00    +0.109 C 
ATOM      8  CA  VAL A   2     -10.427   5.768 131.015  0.00  0.00    +0.162 C 
ATOM      9  N   VAL A   2      -9.961   5.490 129.652  0.00  0.00    -0.302 N 
ATOM     10  C   PRO A   1     -10.188   6.357 128.604  0.00  0.00    +0.234 C 
ATOM     11  O   PRO A   1      -9.484   6.326 127.601  0.00  0.00    -0.274 OA
ATOM     12  H   VAL A   2      -9.123   4.933 129.541  0.00  0.00    +0.149 HD
ENDROOT
BRANCH   8  13
ATOM     13  CB  VAL A   2      -9.307   6.365 131.909  0.00  0.00    +0.012 C 
ATOM     14  CG1 VAL A   2      -8.992   5.459 133.104  0.00  0.00    +0.009 C 
ATOM     15  CG2 VAL A   2      -8.015   6.688 131.151  0.00  0.00    +0.009 C 
ENDBRANCH   8  13
TORSDOF 1
ENDMDL
MODEL 2
REMARK VINA RESULT:      -5.9      0.868      4.726
REMARK  Name = NuBBE_669
REMARK  3 active torsions:
REMARK  status: ('A' for Active; 'I' for Inactive)
REMARK    1  A    between atoms: CA_9  and  CB_11
REMARK    2  A    between atoms: CB_11  and  CG1_13
REMARK    3  A    between atoms: CB_11  and  CG2_14
REMARK                            x       y       z     vdW  Elec       q    Type
REMARK                         _______ _______ _______ _____ _____    ______ ____
ROOT
ATOM      1  O   VAL A   2      -9.043   5.738 128.214  0.00  0.00    -0.274 OA
ATOM      2  C   VAL A   2      -9.903   5.968 129.060  0.00  0.00    +0.237 C 
ATOM      3  N   PRO A   1      -9.629   6.028 130.408  0.00  0.00    -0.288 N 
ATOM      4  CA  PRO A   1     -10.657   5.808 131.405  0.00  0.00    +0.162 C 
ATOM      5  CB  PRO A   1      -9.970   6.235 132.692  0.00  0.00    +0.033 C 
ATOM      6  CG  PRO A   1      -8.542   5.730 132.476  0.00  0.00    +0.021 C 
ATOM      7  CD  PRO A   1      -8.304   5.887 130.974  0.00  0.00    +0.109 C 
ATOM      8  CA  VAL A   2     -11.314   6.505 128.683  0.00  0.00    +0.162 C 
ATOM      9  N   VAL A   2     -12.313   6.459 129.756  0.00  0.00    -0.302 N 
ATOM     10  C   PRO A   1     -11.967   6.516 131.089  0.00  0.00    +0.234 C 
ATOM     11  O   PRO A   1     -12.782   6.870 131.934  0.00  0.00    -0.274 OA
ATOM     12  H   VAL A   2     -13.236   6.827 129.561  0.00  0.00    +0.149 HD
ENDROOT
BRANCH   8  13
ATOM     13  CB  VAL A   2     -11.167   7.928 128.078  0.00  0.00    +0.012 C 
ATOM     14  CG1 VAL A   2     -11.052   7.885 126.550  0.00  0.00    +0.009 C 
ATOM     15  CG2 VAL A   2     -12.286   8.892 128.485  0.00  0.00    +0.009 C 
ENDBRANCH   8  13
TORSDOF 1
ENDMDL
MODEL 3
REMARK VINA RESULT:      -5.8      1.555      2.934
REMARK  Name = NuBBE_669
REMARK  3 active torsions:
REMARK  status: ('A' for Active; 'I' for Inactive)
REMARK    1  A    between atoms: CA_9  and  CB_11
REMARK    2  A    between atoms: CB_11  and  CG1_13
REMARK    3  A    between atoms: CB_11  and  CG2_14
REMARK                            x       y       z     vdW  Elec       q    Type
REMARK                         _______ _______ _______ _____ _____    ______ ____
ROOT
ATOM      1  O   VAL A   2      -8.237   6.948 130.018  0.00  0.00    -0.274 OA
ATOM      2  C   VAL A   2      -9.411   6.966 130.377  0.00  0.00    +0.237 C 
ATOM      3  N   PRO A   1     -10.434   7.408 129.569  0.00  0.00    -0.288 N 
ATOM      4  CA  PRO A   1     -11.687   7.887 130.117  0.00  0.00    +0.162 C 
ATOM      5  CB  PRO A   1     -12.570   7.996 128.885  0.00  0.00    +0.033 C 
ATOM      6  CG  PRO A   1     -11.585   8.500 127.828  0.00  0.00    +0.021 C 
ATOM      7  CD  PRO A   1     -10.257   7.841 128.199  0.00  0.00    +0.109 C 
ATOM      8  CA  VAL A   2      -9.899   6.223 131.654  0.00  0.00    +0.162 C 
ATOM      9  N   VAL A   2     -11.251   6.570 132.107  0.00  0.00    -0.302 N 
ATOM     10  C   PRO A   1     -12.227   7.014 131.242  0.00  0.00    +0.234 C 
ATOM     11  O   PRO A   1     -13.414   6.920 131.533  0.00  0.00    -0.274 OA
ATOM     12  H   VAL A   2     -11.618   6.086 132.918  0.00  0.00    +0.149 HD
ENDROOT
BRANCH   8  13
ATOM     13  CB  VAL A   2      -9.721   4.694 131.448  0.00  0.00    +0.012 C 
ATOM     14  CG1 VAL A   2      -9.553   3.958 132.782  0.00  0.00    +0.009 C 
ATOM     15  CG2 VAL A   2     -10.848   4.044 130.638  0.00  0.00    +0.009 C 
ENDBRANCH   8  13
TORSDOF 1
ENDMDL
MODEL 4
REMARK VINA RESULT:      -5.6      9.465     10.958
REMARK  Name = NuBBE_669
REMARK  3 active torsions:
REMARK  status: ('A' for Active; 'I' for Inactive)
REMARK    1  A    between atoms: CA_9  and  CB_11
REMARK    2  A    between atoms: CB_11  and  CG1_13
REMARK    3  A    between atoms: CB_11  and  CG2_14
REMARK                            x       y       z     vdW  Elec       q    Type
REMARK                         _______ _______ _______ _____ _____    ______ ____
ROOT
ATOM      1  O   VAL A   2      -5.632  -2.103 126.769  0.00  0.00    -0.274 OA
ATOM      2  C   VAL A   2      -6.579  -2.056 125.988  0.00  0.00    +0.237 C 
ATOM      3  N   PRO A   1      -7.496  -1.029 125.987  0.00  0.00    -0.288 N 
ATOM      4  CA  PRO A   1      -8.830  -1.199 125.447  0.00  0.00    +0.162 C 
ATOM      5  CB  PRO A   1      -9.359   0.225 125.412  0.00  0.00    +0.033 C 
ATOM      6  CG  PRO A   1      -8.777   0.815 126.699  0.00  0.00    +0.021 C 
ATOM      7  CD  PRO A   1      -7.420   0.128 126.854  0.00  0.00    +0.109 C 
ATOM      8  CA  VAL A   2      -6.672  -2.980 124.741  0.00  0.00    +0.162 C 
ATOM      9  N   VAL A   2      -7.978  -3.009 124.074  0.00  0.00    -0.302 N 
ATOM     10  C   PRO A   1      -8.853  -1.945 124.120  0.00  0.00    +0.234 C 
ATOM     11  O   PRO A   1      -9.726  -1.814 123.269  0.00  0.00    -0.274 OA
ATOM     12  H   VAL A   2      -8.073  -3.575 123.239  0.00  0.00    +0.149 HD
ENDROOT
BRANCH   8  13
ATOM     13  CB  VAL A   2      -5.520  -2.624 123.762  0.00  0.00    +0.012 C 
ATOM     14  CG1 VAL A   2      -4.555  -3.800 123.571  0.00  0.00    +0.009 C 
ATOM     15  CG2 VAL A   2      -6.001  -2.124 122.396  0.00  0.00    +0.009 C 
ENDBRANCH   8  13
TORSDOF 1
ENDMDL
MODEL 5
REMARK VINA RESULT:      -5.5      9.329     10.824
REMARK  Name = NuBBE_669
REMARK  3 active torsions:
REMARK  status: ('A' for Active; 'I' for Inactive)
REMARK    1  A    between atoms: CA_9  and  CB_11
REMARK    2  A    between atoms: CB_11  and  CG1_13
REMARK    3  A    between atoms: CB_11  and  CG2_14
REMARK                            x       y       z     vdW  Elec       q    Type
REMARK                         _______ _______ _______ _____ _____    ______ ____
ROOT
ATOM      1  O   VAL A   2      -5.861   0.409 125.137  0.00  0.00    -0.274 OA
ATOM      2  C   VAL A   2      -6.781  -0.296 124.730  0.00  0.00    +0.237 C 
ATOM      3  N   PRO A   1      -7.833   0.200 123.994  0.00  0.00    -0.288 N 
ATOM      4  CA  PRO A   1      -9.112  -0.477 123.940  0.00  0.00    +0.162 C 
ATOM      5  CB  PRO A   1      -9.836   0.264 122.828  0.00  0.00    +0.033 C 
ATOM      6  CG  PRO A   1      -9.382   1.708 123.057  0.00  0.00    +0.021 C 
ATOM      7  CD  PRO A   1      -7.948   1.580 123.569  0.00  0.00    +0.109 C 
ATOM      8  CA  VAL A   2      -6.705  -1.849 124.745  0.00  0.00    +0.162 C 
ATOM      9  N   VAL A   2      -7.973  -2.545 124.501  0.00  0.00    -0.302 N 
ATOM     10  C   PRO A   1      -8.990  -1.984 123.758  0.00  0.00    +0.234 C 
ATOM     11  O   PRO A   1      -9.847  -2.689 123.236  0.00  0.00    -0.274 OA
ATOM     12  H   VAL A   2      -7.961  -3.557 124.472  0.00  0.00    +0.149 HD
ENDROOT
BRANCH   8  13
ATOM     13  CB  VAL A   2      -5.585  -2.309 123.772  0.00  0.00    +0.012 C 
ATOM     14  CG1 VAL A   2      -5.172  -3.763 124.030  0.00  0.00    +0.009 C 
ATOM     15  CG2 VAL A   2      -5.937  -2.127 122.292  0.00  0.00    +0.009 C 
ENDBRANCH   8  13
TORSDOF 1
ENDMDL
MODEL 6
REMARK VINA RESULT:      -5.4     10.002     11.306
REMARK  Name = NuBBE_669
REMARK  3 active torsions:
REMARK  status: ('A' for Active; 'I' for Inactive)
REMARK    1  A    between atoms: CA_9  and  CB_11
REMARK    2  A    between atoms: CB_11  and  CG1_13
REMARK    3  A    between atoms: CB_11  and  CG2_14
REMARK                            x       y       z     vdW  Elec       q    Type
REMARK                         _______ _______ _______ _____ _____    ______ ____
ROOT
ATOM      1  O   VAL A   2      -9.723  -2.969 124.877  0.00  0.00    -0.274 OA
ATOM      2  C   VAL A   2      -8.752  -2.440 125.410  0.00  0.00    +0.237 C 
ATOM      3  N   PRO A   1      -8.348  -2.737 126.693  0.00  0.00    -0.288 N 
ATOM      4  CA  PRO A   1      -7.559  -1.810 127.477  0.00  0.00    +0.162 C 
ATOM      5  CB  PRO A   1      -7.138  -2.654 128.669  0.00  0.00    +0.033 C 
ATOM      6  CG  PRO A   1      -8.391  -3.497 128.922  0.00  0.00    +0.021 C 
ATOM      7  CD  PRO A   1      -8.978  -3.735 127.531  0.00  0.00    +0.109 C 
ATOM      8  CA  VAL A   2      -7.710  -1.613 124.602  0.00  0.00    +0.162 C 
ATOM      9  N   VAL A   2      -6.779  -0.814 125.406  0.00  0.00    -0.302 N 
ATOM     10  C   PRO A   1      -6.424  -1.167 126.690  0.00  0.00    +0.234 C 
ATOM     11  O   PRO A   1      -5.387  -0.748 127.192  0.00  0.00    -0.274 OA
ATOM     12  H   VAL A   2      -6.066  -0.285 124.920  0.00  0.00    +0.149 HD
ENDROOT
BRANCH   8  13
ATOM     13  CB  VAL A   2      -6.973  -2.558 123.614  0.00  0.00    +0.012 C 
ATOM     14  CG1 VAL A   2      -6.339  -1.781 122.454  0.00  0.00    +0.009 C 
ATOM     15  CG2 VAL A   2      -5.917  -3.447 124.279  0.00  0.00    +0.009 C 
ENDBRANCH   8  13
TORSDOF 1
ENDMDL
MODEL 7
REMARK VINA RESULT:      -5.4     10.025     11.157
REMARK  Name = NuBBE_669
REMARK  3 active torsions:
REMARK  status: ('A' for Active; 'I' for Inactive)
REMARK    1  A    between atoms: CA_9  and  CB_11
REMARK    2  A    between atoms: CB_11  and  CG1_13
REMARK    3  A    between atoms: CB_11  and  CG2_14
REMARK                            x       y       z     vdW  Elec       q    Type
REMARK                         _______ _______ _______ _____ _____    ______ ____
ROOT
ATOM      1  O   VAL A   2      -5.416  -1.542 127.364  0.00  0.00    -0.274 OA
ATOM      2  C   VAL A   2      -6.416  -1.740 126.680  0.00  0.00    +0.237 C 
ATOM      3  N   PRO A   1      -6.355  -2.137 125.363  0.00  0.00    -0.288 N 
ATOM      4  CA  PRO A   1      -7.450  -1.899 124.444  0.00  0.00    +0.162 C 
ATOM      5  CB  PRO A   1      -7.054  -2.726 123.232  0.00  0.00    +0.033 C 
ATOM      6  CG  PRO A   1      -5.537  -2.524 123.188  0.00  0.00    +0.021 C 
ATOM      7  CD  PRO A   1      -5.124  -2.418 124.656  0.00  0.00    +0.109 C 
ATOM      8  CA  VAL A   2      -7.837  -1.855 127.303  0.00  0.00    +0.162 C 
ATOM      9  N   VAL A   2      -8.950  -1.805 126.349  0.00  0.00    -0.302 N 
ATOM     10  C   PRO A   1      -8.816  -2.212 125.039  0.00  0.00    +0.234 C 
ATOM     11  O   PRO A   1      -9.798  -2.539 124.380  0.00  0.00    -0.274 OA
ATOM     12  H   VAL A   2      -9.890  -1.907 126.711  0.00  0.00    +0.149 HD
ENDROOT
BRANCH   8  13
ATOM     13  CB  VAL A   2      -7.892  -3.118 128.205  0.00  0.00    +0.012 C 
ATOM     14  CG1 VAL A   2      -7.878  -2.753 129.693  0.00  0.00    +0.009 C 
ATOM     15  CG2 VAL A   2      -9.082  -4.038 127.910  0.00  0.00    +0.009 C 
ENDBRANCH   8  13
TORSDOF 1
ENDMDL
MODEL 8
REMARK VINA RESULT:      -5.3      8.537     10.123
REMARK  Name = NuBBE_669
REMARK  3 active torsions:
REMARK  status: ('A' for Active; 'I' for Inactive)
REMARK    1  A    between atoms: CA_9  and  CB_11
REMARK    2  A    between atoms: CB_11  and  CG1_13
REMARK    3  A    between atoms: CB_11  and  CG2_14
REMARK                            x       y       z     vdW  Elec       q    Type
REMARK                         _______ _______ _______ _____ _____    ______ ____
ROOT
ATOM      1  O   VAL A   2     -10.168  -0.772 122.551  0.00  0.00    -0.274 OA
ATOM      2  C   VAL A   2      -9.119  -0.634 123.175  0.00  0.00    +0.237 C 
ATOM      3  N   PRO A   1      -8.805   0.516 123.864  0.00  0.00    -0.288 N 
ATOM      4  CA  PRO A   1      -7.434   0.873 124.167  0.00  0.00    +0.162 C 
ATOM      5  CB  PRO A   1      -7.596   2.028 125.141  0.00  0.00    +0.033 C 
ATOM      6  CG  PRO A   1      -8.807   2.765 124.564  0.00  0.00    +0.021 C 
ATOM      7  CD  PRO A   1      -9.686   1.659 123.981  0.00  0.00    +0.109 C 
ATOM      8  CA  VAL A   2      -8.182  -1.832 123.498  0.00  0.00    +0.162 C 
ATOM      9  N   VAL A   2      -6.847  -1.474 123.988  0.00  0.00    -0.302 N 
ATOM     10  C   PRO A   1      -6.601  -0.300 124.667  0.00  0.00    +0.234 C 
ATOM     11  O   PRO A   1      -5.623  -0.191 125.398  0.00  0.00    -0.274 OA
ATOM     12  H   VAL A   2      -6.216  -2.226 124.239  0.00  0.00    +0.149 HD
ENDROOT
BRANCH   8  13
ATOM     13  CB  VAL A   2      -8.919  -2.806 124.457  0.00  0.00    +0.012 C 
ATOM     14  CG1 VAL A   2      -8.110  -4.084 124.700  0.00  0.00    +0.009 C 
ATOM     15  CG2 VAL A   2      -9.307  -2.177 125.799  0.00  0.00    +0.009 C 
ENDBRANCH   8  13
TORSDOF 1
ENDMDL
MODEL 9
REMARK VINA RESULT:      -5.3      8.626     10.516
REMARK  Name = NuBBE_669
REMARK  3 active torsions:
REMARK  status: ('A' for Active; 'I' for Inactive)
REMARK    1  A    between atoms: CA_9  and  CB_11
REMARK    2  A    between atoms: CB_11  and  CG1_13
REMARK    3  A    between atoms: CB_11  and  CG2_14
REMARK                            x       y       z     vdW  Elec       q    Type
REMARK                         _______ _______ _______ _____ _____    ______ ____
ROOT
ATOM      1  O   VAL A   2      -5.784  -0.468 125.479  0.00  0.00    -0.274 OA
ATOM      2  C   VAL A   2      -6.786  -0.515 124.771  0.00  0.00    +0.237 C 
ATOM      3  N   PRO A   1      -7.568  -1.642 124.655  0.00  0.00    -0.288 N 
ATOM      4  CA  PRO A   1      -8.415  -1.867 123.502  0.00  0.00    +0.162 C 
ATOM      5  CB  PRO A   1      -9.260  -3.053 123.935  0.00  0.00    +0.033 C 
ATOM      6  CG  PRO A   1      -8.253  -3.895 124.722  0.00  0.00    +0.021 C 
ATOM      7  CD  PRO A   1      -7.337  -2.869 125.389  0.00  0.00    +0.109 C 
ATOM      8  CA  VAL A   2      -7.440   0.764 124.174  0.00  0.00    +0.162 C 
ATOM      9  N   VAL A   2      -8.444   0.530 123.130  0.00  0.00    -0.302 N 
ATOM     10  C   PRO A   1      -9.188  -0.628 123.070  0.00  0.00    +0.234 C 
ATOM     11  O   PRO A   1     -10.258  -0.655 122.473  0.00  0.00    -0.274 OA
ATOM     12  H   VAL A   2      -8.915   1.335 122.737  0.00  0.00    +0.149 HD
ENDROOT
BRANCH   8  13
ATOM     13  CB  VAL A   2      -7.990   1.639 125.334  0.00  0.00    +0.012 C 
ATOM     14  CG1 VAL A   2      -8.584   2.954 124.819  0.00  0.00    +0.009 C 
ATOM     15  CG2 VAL A   2      -9.014   0.920 126.219  0.00  0.00    +0.009 C 
ENDBRANCH   8  13
TORSDOF 1
ENDMDL
