MODEL 1
REMARK VINA RESULT:      -8.0      0.000      0.000
REMARK  Name = NuBBE_145
REMARK  15 active torsions:
REMARK  status: ('A' for Active; 'I' for Inactive)
REMARK    1  A    between atoms: C_1  and  C_2
REMARK    2  A    between atoms: C_2  and  C_3
REMARK    3  A    between atoms: C_7  and  C_8
REMARK    4  A    between atoms: C_11  and  O_13
REMARK    5  A    between atoms: O_13  and  C_14
REMARK    6  A    between atoms: C_14  and  C_15
REMARK    7  A    between atoms: C_15  and  C_16
REMARK    8  A    between atoms: C_16  and  O_17
REMARK    9  A    between atoms: O_17  and  C_18
REMARK   10  A    between atoms: C_18  and  C_19
REMARK   11  A    between atoms: C_19  and  C_20
REMARK   12  A    between atoms: C_20  and  C_21
REMARK   13  A    between atoms: C_25  and  C_26
REMARK   14  A    between atoms: C_30  and  C_31
REMARK   15  A    between atoms: C_30  and  C_32
REMARK                            x       y       z     vdW  Elec       q    Type
REMARK                         _______ _______ _______ _____ _____    ______ ____
ROOT
ATOM      1  C   LIG A   1      -9.520  -0.290 123.132  0.00  0.00    +0.011 C 
ATOM      2  C   LIG A   1      -8.503  -1.315 123.705  0.00  0.00    -0.028 C 
ATOM      3  C   LIG A   1      -7.224  -1.131 122.857  0.00  0.00    +0.011 C 
ATOM      4  C   LIG A   1      -9.179  -2.689 123.411  0.00  0.00    +0.007 C 
ATOM      5  C   LIG A   1      -8.550  -3.909 124.064  0.00  0.00    +0.001 C 
ATOM      6  C   LIG A   1      -8.302  -3.695 125.551  0.00  0.00    +0.007 C 
ATOM      7  C   LIG A   1      -7.457  -2.432 125.886  0.00  0.00    -0.020 C 
ATOM      8  C   LIG A   1      -6.049  -2.611 125.262  0.00  0.00    +0.012 C 
ATOM      9  C   LIG A   1      -8.256  -1.210 125.290  0.00  0.00    +0.042 C 
ATOM     10  C   LIG A   1      -7.771   0.153 125.865  0.00  0.00    +0.183 C 
ATOM     11  C   LIG A   1      -7.434   0.179 127.380  0.00  0.00    +0.080 C 
ATOM     12  C   LIG A   1      -6.635  -0.995 127.954  0.00  0.00    +0.074 C 
ATOM     13  C   LIG A   1      -5.142  -0.829 127.619  0.00  0.00    +0.042 C 
ATOM     14  C   LIG A   1      -7.247  -2.330 127.458  0.00  0.00    +0.027 C 
ATOM     15  C   LIG A   1      -8.488  -2.643 128.313  0.00  0.00    +0.010 C 
ATOM     16  C   LIG A   1      -8.012  -2.876 129.733  0.00  0.00    +0.039 C 
ATOM     17  C   LIG A   1      -7.289  -1.659 130.316  0.00  0.00    +0.085 C 
ATOM     18  C   LIG A   1      -6.202  -2.158 131.287  0.00  0.00    +0.046 C 
ATOM     19  O   LIG A   1      -6.606  -0.824 129.385  0.00  0.00    -0.363 OA
ENDROOT
BRANCH  17  20
ATOM     20  C   LIG A   1      -8.279  -0.821 131.110  0.00  0.00    -0.001 C 
ATOM     21  C   LIG A   1      -8.494   0.499 131.005  0.00  0.00    +0.007 C 
ENDBRANCH  17  20
BRANCH  10  22
ATOM     22  O   LIG A   1      -8.726   1.236 125.640  0.00  0.00    -0.461 OA
BRANCH  22  23
ATOM     23  C   LIG A   1      -8.229   2.451 125.207  0.00  0.00    +0.318 C 
ATOM     24  O   LIG A   1      -8.671   3.539 125.463  0.00  0.00    -0.250 OA
BRANCH  23  25
ATOM     25  C   LIG A   1      -6.997   2.237 124.377  0.00  0.00    +0.240 C 
BRANCH  25  26
ATOM     26  C   LIG A   1      -5.878   3.158 124.768  0.00  0.00    +0.318 C 
ATOM     27  O   LIG A   1      -5.193   3.019 125.758  0.00  0.00    -0.250 OA
BRANCH  26  28
ATOM     28  O   LIG A   1      -5.777   4.182 123.860  0.00  0.00    -0.464 OA
BRANCH  28  29
ATOM     29  C   LIG A   1      -5.968   3.810 122.479  0.00  0.00    +0.232 C 
BRANCH  29  30
ATOM     30  C   LIG A   1      -4.938   4.525 121.605  0.00  0.00    +0.041 C 
BRANCH  30  31
ATOM     31  C   LIG A   1      -5.384   4.723 120.156  0.00  0.00    +0.000 C 
ATOM     32  C   LIG A   1      -6.796   4.232 119.879  0.00  0.00    +0.004 C 
ENDBRANCH  30  31
ENDBRANCH  29  30
ENDBRANCH  28  29
ENDBRANCH  26  28
ENDBRANCH  25  26
ENDBRANCH  23  25
ENDBRANCH  22  23
ENDBRANCH  10  22
TORSDOF 9
ENDMDL
MODEL 2
REMARK VINA RESULT:      -7.8      2.739      5.050
REMARK  Name = NuBBE_145
REMARK  15 active torsions:
REMARK  status: ('A' for Active; 'I' for Inactive)
REMARK    1  A    between atoms: C_1  and  C_2
REMARK    2  A    between atoms: C_2  and  C_3
REMARK    3  A    between atoms: C_7  and  C_8
REMARK    4  A    between atoms: C_11  and  O_13
REMARK    5  A    between atoms: O_13  and  C_14
REMARK    6  A    between atoms: C_14  and  C_15
REMARK    7  A    between atoms: C_15  and  C_16
REMARK    8  A    between atoms: C_16  and  O_17
REMARK    9  A    between atoms: O_17  and  C_18
REMARK   10  A    between atoms: C_18  and  C_19
REMARK   11  A    between atoms: C_19  and  C_20
REMARK   12  A    between atoms: C_20  and  C_21
REMARK   13  A    between atoms: C_25  and  C_26
REMARK   14  A    between atoms: C_30  and  C_31
REMARK   15  A    between atoms: C_30  and  C_32
REMARK                            x       y       z     vdW  Elec       q    Type
REMARK                         _______ _______ _______ _____ _____    ______ ____
ROOT
ATOM      1  C   LIG A   1      -8.563  -2.493 126.648  0.00  0.00    +0.011 C 
ATOM      2  C   LIG A   1      -7.631  -2.199 127.856  0.00  0.00    -0.028 C 
ATOM      3  C   LIG A   1      -6.196  -2.290 127.287  0.00  0.00    +0.011 C 
ATOM      4  C   LIG A   1      -7.925  -3.382 128.829  0.00  0.00    +0.007 C 
ATOM      5  C   LIG A   1      -7.346  -3.270 130.229  0.00  0.00    +0.001 C 
ATOM      6  C   LIG A   1      -7.641  -1.916 130.861  0.00  0.00    +0.007 C 
ATOM      7  C   LIG A   1      -7.184  -0.696 130.009  0.00  0.00    -0.020 C 
ATOM      8  C   LIG A   1      -5.640  -0.752 129.873  0.00  0.00    +0.012 C 
ATOM      9  C   LIG A   1      -7.940  -0.826 128.632  0.00  0.00    +0.042 C 
ATOM     10  C   LIG A   1      -7.914   0.498 127.813  0.00  0.00    +0.183 C 
ATOM     11  C   LIG A   1      -8.103   1.809 128.621  0.00  0.00    +0.080 C 
ATOM     12  C   LIG A   1      -7.347   1.947 129.947  0.00  0.00    +0.074 C 
ATOM     13  C   LIG A   1      -5.879   2.323 129.678  0.00  0.00    +0.042 C 
ATOM     14  C   LIG A   1      -7.523   0.652 130.780  0.00  0.00    +0.027 C 
ATOM     15  C   LIG A   1      -8.902   0.695 131.462  0.00  0.00    +0.010 C 
ATOM     16  C   LIG A   1      -8.886   1.851 132.441  0.00  0.00    +0.039 C 
ATOM     17  C   LIG A   1      -8.616   3.195 131.757  0.00  0.00    +0.085 C 
ATOM     18  C   LIG A   1      -7.839   4.093 132.740  0.00  0.00    +0.046 C 
ATOM     19  O   LIG A   1      -7.819   3.154 130.577  0.00  0.00    -0.363 OA
ENDROOT
BRANCH  17  20
ATOM     20  C   LIG A   1      -9.941   3.875 131.447  0.00  0.00    -0.001 C 
ATOM     21  C   LIG A   1     -10.748   3.642 130.401  0.00  0.00    +0.007 C 
ENDBRANCH  17  20
BRANCH  10  22
ATOM     22  O   LIG A   1      -8.912   0.526 126.748  0.00  0.00    -0.461 OA
BRANCH  22  23
ATOM     23  C   LIG A   1      -8.656   1.323 125.648  0.00  0.00    +0.318 C 
ATOM     24  O   LIG A   1      -9.020   2.457 125.482  0.00  0.00    -0.250 OA
BRANCH  23  25
ATOM     25  C   LIG A   1      -7.800   0.581 124.663  0.00  0.00    +0.240 C 
BRANCH  25  26
ATOM     26  C   LIG A   1      -8.608  -0.277 123.735  0.00  0.00    +0.318 C 
ATOM     27  O   LIG A   1      -9.776  -0.090 123.474  0.00  0.00    -0.250 OA
BRANCH  26  28
ATOM     28  O   LIG A   1      -7.838  -1.310 123.262  0.00  0.00    -0.464 OA
BRANCH  28  29
ATOM     29  C   LIG A   1      -6.461  -1.307 123.695  0.00  0.00    +0.232 C 
BRANCH  29  30
ATOM     30  C   LIG A   1      -5.714  -2.474 123.048  0.00  0.00    +0.041 C 
BRANCH  30  31
ATOM     31  C   LIG A   1      -5.405  -3.622 124.009  0.00  0.00    +0.000 C 
ATOM     32  C   LIG A   1      -4.223  -4.477 123.579  0.00  0.00    +0.004 C 
ENDBRANCH  30  31
ENDBRANCH  29  30
ENDBRANCH  28  29
ENDBRANCH  26  28
ENDBRANCH  25  26
ENDBRANCH  23  25
ENDBRANCH  22  23
ENDBRANCH  10  22
TORSDOF 9
ENDMDL
MODEL 3
REMARK VINA RESULT:      -7.3      2.135      2.997
REMARK  Name = NuBBE_145
REMARK  15 active torsions:
REMARK  status: ('A' for Active; 'I' for Inactive)
REMARK    1  A    between atoms: C_1  and  C_2
REMARK    2  A    between atoms: C_2  and  C_3
REMARK    3  A    between atoms: C_7  and  C_8
REMARK    4  A    between atoms: C_11  and  O_13
REMARK    5  A    between atoms: O_13  and  C_14
REMARK    6  A    between atoms: C_14  and  C_15
REMARK    7  A    between atoms: C_15  and  C_16
REMARK    8  A    between atoms: C_16  and  O_17
REMARK    9  A    between atoms: O_17  and  C_18
REMARK   10  A    between atoms: C_18  and  C_19
REMARK   11  A    between atoms: C_19  and  C_20
REMARK   12  A    between atoms: C_20  and  C_21
REMARK   13  A    between atoms: C_25  and  C_26
REMARK   14  A    between atoms: C_30  and  C_31
REMARK   15  A    between atoms: C_30  and  C_32
REMARK                            x       y       z     vdW  Elec       q    Type
REMARK                         _______ _______ _______ _____ _____    ______ ____
ROOT
ATOM      1  C   LIG A   1      -8.814   0.734 123.310  0.00  0.00    +0.011 C 
ATOM      2  C   LIG A   1      -8.191  -0.664 123.576  0.00  0.00    -0.028 C 
ATOM      3  C   LIG A   1      -6.902  -0.699 122.724  0.00  0.00    +0.011 C 
ATOM      4  C   LIG A   1      -9.264  -1.644 123.010  0.00  0.00    +0.007 C 
ATOM      5  C   LIG A   1      -9.074  -3.118 123.329  0.00  0.00    +0.001 C 
ATOM      6  C   LIG A   1      -8.804  -3.349 124.810  0.00  0.00    +0.007 C 
ATOM      7  C   LIG A   1      -7.607  -2.534 125.381  0.00  0.00    -0.020 C 
ATOM      8  C   LIG A   1      -6.317  -2.997 124.656  0.00  0.00    +0.012 C 
ATOM      9  C   LIG A   1      -7.960  -1.019 125.126  0.00  0.00    +0.042 C 
ATOM     10  C   LIG A   1      -7.078  -0.054 125.973  0.00  0.00    +0.183 C 
ATOM     11  C   LIG A   1      -6.785  -0.493 127.431  0.00  0.00    +0.080 C 
ATOM     12  C   LIG A   1      -6.416  -1.960 127.676  0.00  0.00    +0.074 C 
ATOM     13  C   LIG A   1      -4.942  -2.200 127.307  0.00  0.00    +0.042 C 
ATOM     14  C   LIG A   1      -7.412  -2.877 126.920  0.00  0.00    +0.027 C 
ATOM     15  C   LIG A   1      -8.707  -2.974 127.746  0.00  0.00    +0.010 C 
ATOM     16  C   LIG A   1      -8.363  -3.673 129.046  0.00  0.00    +0.039 C 
ATOM     17  C   LIG A   1      -7.302  -2.920 129.853  0.00  0.00    +0.085 C 
ATOM     18  C   LIG A   1      -6.454  -3.951 130.623  0.00  0.00    +0.046 C 
ATOM     19  O   LIG A   1      -6.367  -2.149 129.104  0.00  0.00    -0.363 OA
ENDROOT
BRANCH  17  20
ATOM     20  C   LIG A   1      -7.990  -2.024 130.872  0.00  0.00    -0.001 C 
ATOM     21  C   LIG A   1      -8.102  -0.688 130.834  0.00  0.00    +0.007 C 
ENDBRANCH  17  20
BRANCH  10  22
ATOM     22  O   LIG A   1      -7.631   1.295 126.055  0.00  0.00    -0.461 OA
BRANCH  22  23
ATOM     23  C   LIG A   1      -6.780   2.355 125.807  0.00  0.00    +0.318 C 
ATOM     24  O   LIG A   1      -5.696   2.300 125.289  0.00  0.00    -0.250 OA
BRANCH  23  25
ATOM     25  C   LIG A   1      -7.417   3.641 126.247  0.00  0.00    +0.240 C 
BRANCH  25  26
ATOM     26  C   LIG A   1      -7.163   3.938 127.696  0.00  0.00    +0.318 C 
ATOM     27  O   LIG A   1      -7.789   3.454 128.613  0.00  0.00    -0.250 OA
BRANCH  26  28
ATOM     28  O   LIG A   1      -6.147   4.854 127.815  0.00  0.00    -0.464 OA
BRANCH  28  29
ATOM     29  C   LIG A   1      -4.873   4.318 128.229  0.00  0.00    +0.232 C 
BRANCH  29  30
ATOM     30  C   LIG A   1      -3.810   4.645 127.180  0.00  0.00    +0.041 C 
BRANCH  30  31
ATOM     31  C   LIG A   1      -2.411   4.143 127.536  0.00  0.00    +0.000 C 
ATOM     32  C   LIG A   1      -1.878   3.086 126.582  0.00  0.00    +0.004 C 
ENDBRANCH  30  31
ENDBRANCH  29  30
ENDBRANCH  28  29
ENDBRANCH  26  28
ENDBRANCH  25  26
ENDBRANCH  23  25
ENDBRANCH  22  23
ENDBRANCH  10  22
TORSDOF 9
ENDMDL
MODEL 4
REMARK VINA RESULT:      -7.2      1.798      3.117
REMARK  Name = NuBBE_145
REMARK  15 active torsions:
REMARK  status: ('A' for Active; 'I' for Inactive)
REMARK    1  A    between atoms: C_1  and  C_2
REMARK    2  A    between atoms: C_2  and  C_3
REMARK    3  A    between atoms: C_7  and  C_8
REMARK    4  A    between atoms: C_11  and  O_13
REMARK    5  A    between atoms: O_13  and  C_14
REMARK    6  A    between atoms: C_14  and  C_15
REMARK    7  A    between atoms: C_15  and  C_16
REMARK    8  A    between atoms: C_16  and  O_17
REMARK    9  A    between atoms: O_17  and  C_18
REMARK   10  A    between atoms: C_18  and  C_19
REMARK   11  A    between atoms: C_19  and  C_20
REMARK   12  A    between atoms: C_20  and  C_21
REMARK   13  A    between atoms: C_25  and  C_26
REMARK   14  A    between atoms: C_30  and  C_31
REMARK   15  A    between atoms: C_30  and  C_32
REMARK                            x       y       z     vdW  Elec       q    Type
REMARK                         _______ _______ _______ _____ _____    ______ ____
ROOT
ATOM      1  C   LIG A   1      -9.383  -2.441 125.285  0.00  0.00    +0.011 C 
ATOM      2  C   LIG A   1      -8.291  -2.476 126.390  0.00  0.00    -0.028 C 
ATOM      3  C   LIG A   1      -7.006  -2.944 125.670  0.00  0.00    +0.011 C 
ATOM      4  C   LIG A   1      -8.814  -3.568 127.373  0.00  0.00    +0.007 C 
ATOM      5  C   LIG A   1      -8.091  -3.685 128.704  0.00  0.00    +0.001 C 
ATOM      6  C   LIG A   1      -7.923  -2.332 129.382  0.00  0.00    +0.007 C 
ATOM      7  C   LIG A   1      -7.222  -1.255 128.503  0.00  0.00    -0.020 C 
ATOM      8  C   LIG A   1      -5.781  -1.740 128.201  0.00  0.00    +0.012 C 
ATOM      9  C   LIG A   1      -8.117  -1.106 127.213  0.00  0.00    +0.042 C 
ATOM     10  C   LIG A   1      -7.794   0.190 126.413  0.00  0.00    +0.183 C 
ATOM     11  C   LIG A   1      -7.519   1.465 127.254  0.00  0.00    +0.080 C 
ATOM     12  C   LIG A   1      -6.628   1.326 128.493  0.00  0.00    +0.074 C 
ATOM     13  C   LIG A   1      -5.148   1.283 128.074  0.00  0.00    +0.042 C 
ATOM     14  C   LIG A   1      -7.084   0.098 129.323  0.00  0.00    +0.027 C 
ATOM     15  C   LIG A   1      -8.319   0.501 130.149  0.00  0.00    +0.010 C 
ATOM     16  C   LIG A   1      -7.877   1.562 131.136  0.00  0.00    +0.039 C 
ATOM     17  C   LIG A   1      -7.302   2.802 130.445  0.00  0.00    +0.085 C 
ATOM     18  C   LIG A   1      -6.208   3.400 131.351  0.00  0.00    +0.046 C 
ATOM     19  O   LIG A   1      -6.671   2.589 129.186  0.00  0.00    -0.363 OA
ENDROOT
BRANCH  17  20
ATOM     20  C   LIG A   1      -8.401   3.842 130.288  0.00  0.00    -0.001 C 
ATOM     21  C   LIG A   1      -9.725   3.644 130.373  0.00  0.00    +0.007 C 
ENDBRANCH  17  20
BRANCH  10  22
ATOM     22  O   LIG A   1      -8.843   0.546 125.461  0.00  0.00    -0.461 OA
BRANCH  22  23
ATOM     23  C   LIG A   1      -8.478   0.728 124.141  0.00  0.00    +0.318 C 
ATOM     24  O   LIG A   1      -7.879  -0.051 123.448  0.00  0.00    -0.250 OA
BRANCH  23  25
ATOM     25  C   LIG A   1      -8.977   2.054 123.646  0.00  0.00    +0.240 C 
BRANCH  25  26
ATOM     26  C   LIG A   1      -8.274   3.208 124.298  0.00  0.00    +0.318 C 
ATOM     27  O   LIG A   1      -8.802   3.988 125.060  0.00  0.00    -0.250 OA
BRANCH  26  28
ATOM     28  O   LIG A   1      -6.969   3.258 123.877  0.00  0.00    -0.464 OA
BRANCH  28  29
ATOM     29  C   LIG A   1      -6.772   3.175 122.450  0.00  0.00    +0.232 C 
BRANCH  29  30
ATOM     30  C   LIG A   1      -5.613   4.082 122.035  0.00  0.00    +0.041 C 
BRANCH  30  31
ATOM     31  C   LIG A   1      -5.457   4.236 120.522  0.00  0.00    +0.000 C 
ATOM     32  C   LIG A   1      -6.779   4.274 119.771  0.00  0.00    +0.004 C 
ENDBRANCH  30  31
ENDBRANCH  29  30
ENDBRANCH  28  29
ENDBRANCH  26  28
ENDBRANCH  25  26
ENDBRANCH  23  25
ENDBRANCH  22  23
ENDBRANCH  10  22
TORSDOF 9
ENDMDL
MODEL 5
REMARK VINA RESULT:      -7.2      1.997      5.288
REMARK  Name = NuBBE_145
REMARK  15 active torsions:
REMARK  status: ('A' for Active; 'I' for Inactive)
REMARK    1  A    between atoms: C_1  and  C_2
REMARK    2  A    between atoms: C_2  and  C_3
REMARK    3  A    between atoms: C_7  and  C_8
REMARK    4  A    between atoms: C_11  and  O_13
REMARK    5  A    between atoms: O_13  and  C_14
REMARK    6  A    between atoms: C_14  and  C_15
REMARK    7  A    between atoms: C_15  and  C_16
REMARK    8  A    between atoms: C_16  and  O_17
REMARK    9  A    between atoms: O_17  and  C_18
REMARK   10  A    between atoms: C_18  and  C_19
REMARK   11  A    between atoms: C_19  and  C_20
REMARK   12  A    between atoms: C_20  and  C_21
REMARK   13  A    between atoms: C_25  and  C_26
REMARK   14  A    between atoms: C_30  and  C_31
REMARK   15  A    between atoms: C_30  and  C_32
REMARK                            x       y       z     vdW  Elec       q    Type
REMARK                         _______ _______ _______ _____ _____    ______ ____
ROOT
ATOM      1  C   LIG A   1      -5.154   3.849 124.638  0.00  0.00    +0.011 C 
ATOM      2  C   LIG A   1      -5.017   3.681 126.176  0.00  0.00    -0.028 C 
ATOM      3  C   LIG A   1      -5.602   4.980 126.777  0.00  0.00    +0.011 C 
ATOM      4  C   LIG A   1      -3.473   3.609 126.390  0.00  0.00    +0.007 C 
ATOM      5  C   LIG A   1      -2.998   3.203 127.775  0.00  0.00    +0.001 C 
ATOM      6  C   LIG A   1      -3.709   1.953 128.277  0.00  0.00    +0.007 C 
ATOM      7  C   LIG A   1      -5.262   2.050 128.268  0.00  0.00    -0.020 C 
ATOM      8  C   LIG A   1      -5.683   3.177 129.246  0.00  0.00    +0.012 C 
ATOM      9  C   LIG A   1      -5.666   2.336 126.771  0.00  0.00    +0.042 C 
ATOM     10  C   LIG A   1      -7.177   2.074 126.503  0.00  0.00    +0.183 C 
ATOM     11  C   LIG A   1      -7.790   0.826 127.191  0.00  0.00    +0.080 C 
ATOM     12  C   LIG A   1      -7.419   0.562 128.655  0.00  0.00    +0.074 C 
ATOM     13  C   LIG A   1      -8.243   1.476 129.578  0.00  0.00    +0.042 C 
ATOM     14  C   LIG A   1      -5.886   0.702 128.833  0.00  0.00    +0.027 C 
ATOM     15  C   LIG A   1      -5.218  -0.594 128.339  0.00  0.00    +0.010 C 
ATOM     16  C   LIG A   1      -5.669  -1.713 129.256  0.00  0.00    +0.039 C 
ATOM     17  C   LIG A   1      -7.190  -1.894 129.255  0.00  0.00    +0.085 C 
ATOM     18  C   LIG A   1      -7.623  -2.372 130.656  0.00  0.00    +0.046 C 
ATOM     19  O   LIG A   1      -7.965  -0.727 129.001  0.00  0.00    -0.363 OA
ENDROOT
BRANCH  17  20
ATOM     20  C   LIG A   1      -7.565  -2.976 128.254  0.00  0.00    -0.001 C 
ATOM     21  C   LIG A   1      -8.741  -3.614 128.150  0.00  0.00    +0.007 C 
ENDBRANCH  17  20
BRANCH  10  22
ATOM     22  O   LIG A   1      -7.488   1.952 125.081  0.00  0.00    -0.461 OA
BRANCH  22  23
ATOM     23  C   LIG A   1      -8.524   2.719 124.582  0.00  0.00    +0.318 C 
ATOM     24  O   LIG A   1      -8.857   3.810 124.961  0.00  0.00    -0.250 OA
BRANCH  23  25
ATOM     25  C   LIG A   1      -9.184   2.009 123.436  0.00  0.00    +0.240 C 
BRANCH  25  26
ATOM     26  C   LIG A   1     -10.192   0.997 123.895  0.00  0.00    +0.318 C 
ATOM     27  O   LIG A   1     -11.376   1.220 124.021  0.00  0.00    -0.250 OA
BRANCH  26  28
ATOM     28  O   LIG A   1      -9.566  -0.192 124.174  0.00  0.00    -0.464 OA
BRANCH  28  29
ATOM     29  C   LIG A   1      -8.869  -0.803 123.068  0.00  0.00    +0.232 C 
BRANCH  29  30
ATOM     30  C   LIG A   1      -7.851  -1.814 123.596  0.00  0.00    +0.041 C 
BRANCH  30  31
ATOM     31  C   LIG A   1      -6.557  -1.182 124.110  0.00  0.00    +0.000 C 
ATOM     32  C   LIG A   1      -5.762  -2.087 125.039  0.00  0.00    +0.004 C 
ENDBRANCH  30  31
ENDBRANCH  29  30
ENDBRANCH  28  29
ENDBRANCH  26  28
ENDBRANCH  25  26
ENDBRANCH  23  25
ENDBRANCH  22  23
ENDBRANCH  10  22
TORSDOF 9
ENDMDL
MODEL 6
REMARK VINA RESULT:      -7.2      5.859      8.397
REMARK  Name = NuBBE_145
REMARK  15 active torsions:
REMARK  status: ('A' for Active; 'I' for Inactive)
REMARK    1  A    between atoms: C_1  and  C_2
REMARK    2  A    between atoms: C_2  and  C_3
REMARK    3  A    between atoms: C_7  and  C_8
REMARK    4  A    between atoms: C_11  and  O_13
REMARK    5  A    between atoms: O_13  and  C_14
REMARK    6  A    between atoms: C_14  and  C_15
REMARK    7  A    between atoms: C_15  and  C_16
REMARK    8  A    between atoms: C_16  and  O_17
REMARK    9  A    between atoms: O_17  and  C_18
REMARK   10  A    between atoms: C_18  and  C_19
REMARK   11  A    between atoms: C_19  and  C_20
REMARK   12  A    between atoms: C_20  and  C_21
REMARK   13  A    between atoms: C_25  and  C_26
REMARK   14  A    between atoms: C_30  and  C_31
REMARK   15  A    between atoms: C_30  and  C_32
REMARK                            x       y       z     vdW  Elec       q    Type
REMARK                         _______ _______ _______ _____ _____    ______ ____
ROOT
ATOM      1  C   LIG A   1      -4.796   2.892 130.428  0.00  0.00    +0.011 C 
ATOM      2  C   LIG A   1      -6.101   2.626 131.228  0.00  0.00    -0.028 C 
ATOM      3  C   LIG A   1      -5.639   2.393 132.684  0.00  0.00    +0.011 C 
ATOM      4  C   LIG A   1      -6.645   1.308 130.594  0.00  0.00    +0.007 C 
ATOM      5  C   LIG A   1      -8.051   0.894 130.991  0.00  0.00    +0.001 C 
ATOM      6  C   LIG A   1      -9.041   2.045 130.867  0.00  0.00    +0.007 C 
ATOM      7  C   LIG A   1      -8.636   3.328 131.651  0.00  0.00    -0.020 C 
ATOM      8  C   LIG A   1      -8.603   2.982 133.161  0.00  0.00    +0.012 C 
ATOM      9  C   LIG A   1      -7.233   3.757 131.074  0.00  0.00    +0.042 C 
ATOM     10  C   LIG A   1      -6.859   5.220 131.453  0.00  0.00    +0.183 C 
ATOM     11  C   LIG A   1      -8.010   6.259 131.401  0.00  0.00    +0.080 C 
ATOM     12  C   LIG A   1      -9.367   5.851 131.985  0.00  0.00    +0.074 C 
ATOM     13  C   LIG A   1      -9.334   5.963 133.519  0.00  0.00    +0.042 C 
ATOM     14  C   LIG A   1      -9.753   4.443 131.464  0.00  0.00    +0.027 C 
ATOM     15  C   LIG A   1     -10.312   4.588 130.037  0.00  0.00    +0.010 C 
ATOM     16  C   LIG A   1     -11.594   5.389 130.134  0.00  0.00    +0.039 C 
ATOM     17  C   LIG A   1     -11.373   6.780 130.735  0.00  0.00    +0.085 C 
ATOM     18  C   LIG A   1     -12.636   7.175 131.525  0.00  0.00    +0.046 C 
ATOM     19  O   LIG A   1     -10.298   6.904 131.662  0.00  0.00    -0.363 OA
ENDROOT
BRANCH  17  20
ATOM     20  C   LIG A   1     -11.187   7.788 129.611  0.00  0.00    -0.001 C 
ATOM     21  C   LIG A   1     -10.075   8.009 128.894  0.00  0.00    +0.007 C 
ENDBRANCH  17  20
BRANCH  10  22
ATOM     22  O   LIG A   1      -5.782   5.762 130.628  0.00  0.00    -0.461 OA
BRANCH  22  23
ATOM     23  C   LIG A   1      -4.844   6.568 131.245  0.00  0.00    +0.318 C 
ATOM     24  O   LIG A   1      -4.618   6.635 132.424  0.00  0.00    -0.250 OA
BRANCH  23  25
ATOM     25  C   LIG A   1      -4.082   7.352 130.215  0.00  0.00    +0.240 C 
BRANCH  25  26
ATOM     26  C   LIG A   1      -2.693   6.824 130.007  0.00  0.00    +0.318 C 
ATOM     27  O   LIG A   1      -1.948   6.490 130.902  0.00  0.00    -0.250 OA
BRANCH  26  28
ATOM     28  O   LIG A   1      -2.395   6.809 128.668  0.00  0.00    -0.464 OA
BRANCH  28  29
ATOM     29  C   LIG A   1      -3.223   5.951 127.856  0.00  0.00    +0.232 C 
BRANCH  29  30
ATOM     30  C   LIG A   1      -2.777   4.498 128.019  0.00  0.00    +0.041 C 
BRANCH  30  31
ATOM     31  C   LIG A   1      -2.745   3.708 126.711  0.00  0.00    +0.000 C 
ATOM     32  C   LIG A   1      -1.459   2.922 126.503  0.00  0.00    +0.004 C 
ENDBRANCH  30  31
ENDBRANCH  29  30
ENDBRANCH  28  29
ENDBRANCH  26  28
ENDBRANCH  25  26
ENDBRANCH  23  25
ENDBRANCH  22  23
ENDBRANCH  10  22
TORSDOF 9
ENDMDL
MODEL 7
REMARK VINA RESULT:      -7.2      4.420      7.434
REMARK  Name = NuBBE_145
REMARK  15 active torsions:
REMARK  status: ('A' for Active; 'I' for Inactive)
REMARK    1  A    between atoms: C_1  and  C_2
REMARK    2  A    between atoms: C_2  and  C_3
REMARK    3  A    between atoms: C_7  and  C_8
REMARK    4  A    between atoms: C_11  and  O_13
REMARK    5  A    between atoms: O_13  and  C_14
REMARK    6  A    between atoms: C_14  and  C_15
REMARK    7  A    between atoms: C_15  and  C_16
REMARK    8  A    between atoms: C_16  and  O_17
REMARK    9  A    between atoms: O_17  and  C_18
REMARK   10  A    between atoms: C_18  and  C_19
REMARK   11  A    between atoms: C_19  and  C_20
REMARK   12  A    between atoms: C_20  and  C_21
REMARK   13  A    between atoms: C_25  and  C_26
REMARK   14  A    between atoms: C_30  and  C_31
REMARK   15  A    between atoms: C_30  and  C_32
REMARK                            x       y       z     vdW  Elec       q    Type
REMARK                         _______ _______ _______ _____ _____    ______ ____
ROOT
ATOM      1  C   LIG A   1      -4.536   6.130 129.542  0.00  0.00    +0.011 C 
ATOM      2  C   LIG A   1      -4.186   4.666 129.155  0.00  0.00    -0.028 C 
ATOM      3  C   LIG A   1      -3.948   3.940 130.499  0.00  0.00    +0.011 C 
ATOM      4  C   LIG A   1      -2.855   4.818 128.356  0.00  0.00    +0.007 C 
ATOM      5  C   LIG A   1      -2.360   3.584 127.620  0.00  0.00    +0.001 C 
ATOM      6  C   LIG A   1      -3.460   2.935 126.791  0.00  0.00    +0.007 C 
ATOM      7  C   LIG A   1      -4.746   2.582 127.593  0.00  0.00    -0.020 C 
ATOM      8  C   LIG A   1      -4.373   1.528 128.667  0.00  0.00    +0.012 C 
ATOM      9  C   LIG A   1      -5.260   3.942 128.203  0.00  0.00    +0.042 C 
ATOM     10  C   LIG A   1      -6.733   3.852 128.699  0.00  0.00    +0.183 C 
ATOM     11  C   LIG A   1      -7.710   3.046 127.804  0.00  0.00    +0.080 C 
ATOM     12  C   LIG A   1      -7.221   1.710 127.234  0.00  0.00    +0.074 C 
ATOM     13  C   LIG A   1      -7.305   0.616 128.312  0.00  0.00    +0.042 C 
ATOM     14  C   LIG A   1      -5.806   1.893 126.630  0.00  0.00    +0.027 C 
ATOM     15  C   LIG A   1      -5.950   2.535 125.238  0.00  0.00    +0.010 C 
ATOM     16  C   LIG A   1      -6.681   1.543 124.357  0.00  0.00    +0.039 C 
ATOM     17  C   LIG A   1      -8.069   1.190 124.898  0.00  0.00    +0.085 C 
ATOM     18  C   LIG A   1      -8.383  -0.271 124.518  0.00  0.00    +0.046 C 
ATOM     19  O   LIG A   1      -8.231   1.252 126.312  0.00  0.00    -0.363 OA
ENDROOT
BRANCH  17  20
ATOM     20  C   LIG A   1      -9.108   2.081 124.234  0.00  0.00    -0.001 C 
ATOM     21  C   LIG A   1      -9.177   2.421 122.938  0.00  0.00    +0.007 C 
ENDBRANCH  17  20
BRANCH  10  22
ATOM     22  O   LIG A   1      -7.346   5.163 128.898  0.00  0.00    -0.461 OA
BRANCH  22  23
ATOM     23  C   LIG A   1      -8.152   5.333 130.007  0.00  0.00    +0.318 C 
ATOM     24  O   LIG A   1      -7.792   5.412 131.151  0.00  0.00    -0.250 OA
BRANCH  23  25
ATOM     25  C   LIG A   1      -9.588   5.454 129.586  0.00  0.00    +0.240 C 
BRANCH  25  26
ATOM     26  C   LIG A   1     -10.132   6.836 129.801  0.00  0.00    +0.318 C 
ATOM     27  O   LIG A   1     -10.859   7.149 130.718  0.00  0.00    -0.250 OA
BRANCH  26  28
ATOM     28  O   LIG A   1      -9.709   7.667 128.794  0.00  0.00    -0.464 OA
BRANCH  28  29
ATOM     29  C   LIG A   1     -10.756   8.336 128.059  0.00  0.00    +0.232 C 
BRANCH  29  30
ATOM     30  C   LIG A   1     -11.001   7.612 126.735  0.00  0.00    +0.041 C 
BRANCH  30  31
ATOM     31  C   LIG A   1     -12.418   7.060 126.582  0.00  0.00    +0.000 C 
ATOM     32  C   LIG A   1     -13.271   7.211 127.832  0.00  0.00    +0.004 C 
ENDBRANCH  30  31
ENDBRANCH  29  30
ENDBRANCH  28  29
ENDBRANCH  26  28
ENDBRANCH  25  26
ENDBRANCH  23  25
ENDBRANCH  22  23
ENDBRANCH  10  22
TORSDOF 9
ENDMDL
MODEL 8
REMARK VINA RESULT:      -7.1      2.023      3.675
REMARK  Name = NuBBE_145
REMARK  15 active torsions:
REMARK  status: ('A' for Active; 'I' for Inactive)
REMARK    1  A    between atoms: C_1  and  C_2
REMARK    2  A    between atoms: C_2  and  C_3
REMARK    3  A    between atoms: C_7  and  C_8
REMARK    4  A    between atoms: C_11  and  O_13
REMARK    5  A    between atoms: O_13  and  C_14
REMARK    6  A    between atoms: C_14  and  C_15
REMARK    7  A    between atoms: C_15  and  C_16
REMARK    8  A    between atoms: C_16  and  O_17
REMARK    9  A    between atoms: O_17  and  C_18
REMARK   10  A    between atoms: C_18  and  C_19
REMARK   11  A    between atoms: C_19  and  C_20
REMARK   12  A    between atoms: C_20  and  C_21
REMARK   13  A    between atoms: C_25  and  C_26
REMARK   14  A    between atoms: C_30  and  C_31
REMARK   15  A    between atoms: C_30  and  C_32
REMARK                            x       y       z     vdW  Elec       q    Type
REMARK                         _______ _______ _______ _____ _____    ______ ____
ROOT
ATOM      1  C   LIG A   1      -9.532   0.405 123.414  0.00  0.00    +0.011 C 
ATOM      2  C   LIG A   1      -8.521  -0.720 123.769  0.00  0.00    -0.028 C 
ATOM      3  C   LIG A   1      -7.249  -0.388 122.956  0.00  0.00    +0.011 C 
ATOM      4  C   LIG A   1      -9.215  -2.007 123.227  0.00  0.00    +0.007 C 
ATOM      5  C   LIG A   1      -8.593  -3.334 123.628  0.00  0.00    +0.001 C 
ATOM      6  C   LIG A   1      -8.328  -3.409 125.126  0.00  0.00    +0.007 C 
ATOM      7  C   LIG A   1      -7.465  -2.240 125.685  0.00  0.00    -0.020 C 
ATOM      8  C   LIG A   1      -6.066  -2.310 125.021  0.00  0.00    +0.012 C 
ATOM      9  C   LIG A   1      -8.257  -0.920 125.342  0.00  0.00    +0.042 C 
ATOM     10  C   LIG A   1      -7.751   0.304 126.160  0.00  0.00    +0.183 C 
ATOM     11  C   LIG A   1      -7.398   0.038 127.647  0.00  0.00    +0.080 C 
ATOM     12  C   LIG A   1      -6.606  -1.231 127.978  0.00  0.00    +0.074 C 
ATOM     13  C   LIG A   1      -5.115  -1.017 127.663  0.00  0.00    +0.042 C 
ATOM     14  C   LIG A   1      -7.238  -2.442 127.245  0.00  0.00    +0.027 C 
ATOM     15  C   LIG A   1      -8.474  -2.901 128.040  0.00  0.00    +0.010 C 
ATOM     16  C   LIG A   1      -7.986  -3.403 129.383  0.00  0.00    +0.039 C 
ATOM     17  C   LIG A   1      -7.243  -2.326 130.178  0.00  0.00    +0.085 C 
ATOM     18  C   LIG A   1      -6.151  -3.011 131.024  0.00  0.00    +0.046 C 
ATOM     19  O   LIG A   1      -6.560  -1.336 129.415  0.00  0.00    -0.363 OA
ENDROOT
BRANCH  17  20
ATOM     20  C   LIG A   1      -8.216  -1.646 131.130  0.00  0.00    -0.001 C 
ATOM     21  C   LIG A   1      -8.487  -0.335 131.214  0.00  0.00    +0.007 C 
ENDBRANCH  17  20
BRANCH  10  22
ATOM     22  O   LIG A   1      -8.696   1.418 126.157  0.00  0.00    -0.461 OA
BRANCH  22  23
ATOM     23  C   LIG A   1      -8.274   2.617 125.614  0.00  0.00    +0.318 C 
ATOM     24  O   LIG A   1      -8.959   3.435 125.060  0.00  0.00    -0.250 OA
BRANCH  23  25
ATOM     25  C   LIG A   1      -6.802   2.798 125.846  0.00  0.00    +0.240 C 
BRANCH  25  26
ATOM     26  C   LIG A   1      -6.506   3.922 126.795  0.00  0.00    +0.318 C 
ATOM     27  O   LIG A   1      -6.154   5.029 126.454  0.00  0.00    -0.250 OA
BRANCH  26  28
ATOM     28  O   LIG A   1      -6.665   3.494 128.089  0.00  0.00    -0.464 OA
BRANCH  28  29
ATOM     29  C   LIG A   1      -7.765   4.087 128.810  0.00  0.00    +0.232 C 
BRANCH  29  30
ATOM     30  C   LIG A   1      -8.661   2.987 129.380  0.00  0.00    +0.041 C 
BRANCH  30  31
ATOM     31  C   LIG A   1      -9.815   3.508 130.237  0.00  0.00    +0.000 C 
ATOM     32  C   LIG A   1      -9.800   2.987 131.666  0.00  0.00    +0.004 C 
ENDBRANCH  30  31
ENDBRANCH  29  30
ENDBRANCH  28  29
ENDBRANCH  26  28
ENDBRANCH  25  26
ENDBRANCH  23  25
ENDBRANCH  22  23
ENDBRANCH  10  22
TORSDOF 9
ENDMDL
MODEL 9
REMARK VINA RESULT:      -7.0      4.872      7.905
REMARK  Name = NuBBE_145
REMARK  15 active torsions:
REMARK  status: ('A' for Active; 'I' for Inactive)
REMARK    1  A    between atoms: C_1  and  C_2
REMARK    2  A    between atoms: C_2  and  C_3
REMARK    3  A    between atoms: C_7  and  C_8
REMARK    4  A    between atoms: C_11  and  O_13
REMARK    5  A    between atoms: O_13  and  C_14
REMARK    6  A    between atoms: C_14  and  C_15
REMARK    7  A    between atoms: C_15  and  C_16
REMARK    8  A    between atoms: C_16  and  O_17
REMARK    9  A    between atoms: O_17  and  C_18
REMARK   10  A    between atoms: C_18  and  C_19
REMARK   11  A    between atoms: C_19  and  C_20
REMARK   12  A    between atoms: C_20  and  C_21
REMARK   13  A    between atoms: C_25  and  C_26
REMARK   14  A    between atoms: C_30  and  C_31
REMARK   15  A    between atoms: C_30  and  C_32
REMARK                            x       y       z     vdW  Elec       q    Type
REMARK                         _______ _______ _______ _____ _____    ______ ____
ROOT
ATOM      1  C   LIG A   1      -7.135   1.070 128.863  0.00  0.00    +0.011 C 
ATOM      2  C   LIG A   1      -7.659   1.812 130.124  0.00  0.00    -0.028 C 
ATOM      3  C   LIG A   1      -6.398   2.119 130.963  0.00  0.00    +0.011 C 
ATOM      4  C   LIG A   1      -8.551   0.739 130.823  0.00  0.00    +0.007 C 
ATOM      5  C   LIG A   1      -9.415   1.222 131.975  0.00  0.00    +0.001 C 
ATOM      6  C   LIG A   1     -10.199   2.477 131.614  0.00  0.00    +0.007 C 
ATOM      7  C   LIG A   1      -9.323   3.653 131.093  0.00  0.00    -0.020 C 
ATOM      8  C   LIG A   1      -8.366   4.087 132.233  0.00  0.00    +0.012 C 
ATOM      9  C   LIG A   1      -8.572   3.099 129.821  0.00  0.00    +0.042 C 
ATOM     10  C   LIG A   1      -7.965   4.237 128.948  0.00  0.00    +0.183 C 
ATOM     11  C   LIG A   1      -8.835   5.510 128.777  0.00  0.00    +0.080 C 
ATOM     12  C   LIG A   1      -9.543   6.064 130.018  0.00  0.00    +0.074 C 
ATOM     13  C   LIG A   1      -8.547   6.860 130.880  0.00  0.00    +0.042 C 
ATOM     14  C   LIG A   1     -10.246   4.907 130.773  0.00  0.00    +0.027 C 
ATOM     15  C   LIG A   1     -11.568   4.588 130.053  0.00  0.00    +0.010 C 
ATOM     16  C   LIG A   1     -12.459   5.807 130.185  0.00  0.00    +0.039 C 
ATOM     17  C   LIG A   1     -11.834   7.060 129.566  0.00  0.00    +0.085 C 
ATOM     18  C   LIG A   1     -12.297   8.286 130.377  0.00  0.00    +0.046 C 
ATOM     19  O   LIG A   1     -10.411   7.124 129.569  0.00  0.00    -0.363 OA
ENDROOT
BRANCH  17  20
ATOM     20  C   LIG A   1     -12.342   7.221 128.141  0.00  0.00    -0.001 C 
ATOM     21  C   LIG A   1     -11.607   7.356 127.027  0.00  0.00    +0.007 C 
ENDBRANCH  17  20
BRANCH  10  22
ATOM     22  O   LIG A   1      -7.619   3.793 127.600  0.00  0.00    -0.461 OA
BRANCH  22  23
ATOM     23  C   LIG A   1      -6.518   4.371 126.997  0.00  0.00    +0.318 C 
ATOM     24  O   LIG A   1      -6.474   4.858 125.899  0.00  0.00    -0.250 OA
BRANCH  23  25
ATOM     25  C   LIG A   1      -5.346   4.352 127.935  0.00  0.00    +0.240 C 
BRANCH  25  26
ATOM     26  C   LIG A   1      -4.124   4.985 127.337  0.00  0.00    +0.318 C 
ATOM     27  O   LIG A   1      -3.257   4.376 126.749  0.00  0.00    -0.250 OA
BRANCH  26  28
ATOM     28  O   LIG A   1      -4.129   6.335 127.584  0.00  0.00    -0.464 OA
BRANCH  28  29
ATOM     29  C   LIG A   1      -2.922   6.862 128.174  0.00  0.00    +0.232 C 
BRANCH  29  30
ATOM     30  C   LIG A   1      -3.117   7.035 129.681  0.00  0.00    +0.041 C 
BRANCH  30  31
ATOM     31  C   LIG A   1      -2.240   6.115 130.530  0.00  0.00    +0.000 C 
ATOM     32  C   LIG A   1      -2.889   4.778 130.853  0.00  0.00    +0.004 C 
ENDBRANCH  30  31
ENDBRANCH  29  30
ENDBRANCH  28  29
ENDBRANCH  26  28
ENDBRANCH  25  26
ENDBRANCH  23  25
ENDBRANCH  22  23
ENDBRANCH  10  22
TORSDOF 9
ENDMDL
