MODEL 1
REMARK VINA RESULT:      -7.6      0.000      0.000
REMARK  Name = NuBBE_1842
REMARK  6 active torsions:
REMARK  status: ('A' for Active; 'I' for Inactive)
REMARK    1  A    between atoms: C_1  and  C_2
REMARK    2  A    between atoms: C_5  and  O_6
REMARK    3  A    between atoms: C_12  and  C_13
REMARK    4  A    between atoms: C_12  and  C_14
REMARK    5  A    between atoms: C_19  and  C_22
REMARK    6  A    between atoms: C_19  and  C_24
REMARK                            x       y       z     vdW  Elec       q    Type
REMARK                         _______ _______ _______ _____ _____    ______ ____
ROOT
ATOM      1  C   LIG A   1      -7.777   6.356 131.827  0.00  0.00    +0.012 C 
ATOM      2  C   LIG A   1      -8.536   5.157 132.444  0.00  0.00    -0.022 C 
ATOM      3  C   LIG A   1     -10.029   5.093 131.918  0.00  0.00    +0.034 C 
ATOM      4  C   LIG A   1     -10.204   4.626 130.448  0.00  0.00    +0.128 C 
ATOM      5  C   LIG A   1      -9.120   3.684 129.904  0.00  0.00    +0.165 C 
ATOM      6  O   LIG A   1      -9.333   3.029 128.875  0.00  0.00    -0.294 OA
ATOM      7  C   LIG A   1      -7.771   3.617 130.571  0.00  0.00    +0.082 C 
ATOM      8  C   LIG A   1      -7.880   3.773 132.094  0.00  0.00    +0.008 C 
ATOM      9  C   LIG A   1      -6.564   3.382 132.864  0.00  0.00    -0.031 C 
ATOM     10  C   LIG A   1      -6.337   1.850 132.749  0.00  0.00    +0.011 C 
ATOM     11  C   LIG A   1      -5.281   4.045 132.324  0.00  0.00    +0.011 C 
ATOM     12  C   LIG A   1      -6.717   3.694 134.373  0.00  0.00    +0.007 C 
ATOM     13  C   LIG A   1      -7.221   5.101 134.658  0.00  0.00    +0.001 C 
ATOM     14  C   LIG A   1      -8.566   5.343 133.986  0.00  0.00    +0.007 C 
ATOM     15  C   LIG A   1     -10.422   5.801 129.480  0.00  0.00    +0.053 C 
ATOM     16  C   LIG A   1     -11.674   6.671 129.812  0.00  0.00    -0.011 C 
ATOM     17  C   LIG A   1     -12.065   6.529 131.309  0.00  0.00    +0.011 C 
ATOM     18  C   LIG A   1     -10.843   6.382 132.215  0.00  0.00    +0.008 C 
ATOM     19  C   LIG A   1     -11.317   8.150 129.525  0.00  0.00    +0.015 C 
ENDROOT
BRANCH   4  20
ATOM     20  O   LIG A   1     -11.391   3.798 130.408  0.00  0.00    -0.381 OA
ATOM     21  H   LIG A   1     -11.511   3.442 131.313  0.00  0.00    +0.211 HD
ENDBRANCH   4  20
BRANCH  16  22
ATOM     22  C   LIG A   1     -12.808   6.329 128.845  0.00  0.00    -0.028 C 
ATOM     23  C   LIG A   1     -13.556   7.165 128.113  0.00  0.00    +0.004 C 
ENDBRANCH  16  22
TORSDOF 2
ENDMDL
MODEL 2
REMARK VINA RESULT:      -7.6      6.771      9.216
REMARK  Name = NuBBE_1842
REMARK  6 active torsions:
REMARK  status: ('A' for Active; 'I' for Inactive)
REMARK    1  A    between atoms: C_1  and  C_2
REMARK    2  A    between atoms: C_5  and  O_6
REMARK    3  A    between atoms: C_12  and  C_13
REMARK    4  A    between atoms: C_12  and  C_14
REMARK    5  A    between atoms: C_19  and  C_22
REMARK    6  A    between atoms: C_19  and  C_24
REMARK                            x       y       z     vdW  Elec       q    Type
REMARK                         _______ _______ _______ _____ _____    ______ ____
ROOT
ATOM      1  C   LIG A   1      -6.979   1.210 127.141  0.00  0.00    +0.012 C 
ATOM      2  C   LIG A   1      -6.046   1.158 125.907  0.00  0.00    -0.022 C 
ATOM      3  C   LIG A   1      -6.215  -0.207 125.120  0.00  0.00    +0.034 C 
ATOM      4  C   LIG A   1      -7.527  -0.355 124.305  0.00  0.00    +0.128 C 
ATOM      5  C   LIG A   1      -8.158   0.949 123.796  0.00  0.00    +0.165 C 
ATOM      6  O   LIG A   1      -9.010   0.912 122.898  0.00  0.00    -0.294 OA
ATOM      7  C   LIG A   1      -7.802   2.264 124.440  0.00  0.00    +0.082 C 
ATOM      8  C   LIG A   1      -6.332   2.306 124.875  0.00  0.00    +0.008 C 
ATOM      9  C   LIG A   1      -5.823   3.751 125.242  0.00  0.00    -0.031 C 
ATOM     10  C   LIG A   1      -5.766   4.618 123.955  0.00  0.00    +0.011 C 
ATOM     11  C   LIG A   1      -6.722   4.517 126.233  0.00  0.00    +0.011 C 
ATOM     12  C   LIG A   1      -4.378   3.682 125.793  0.00  0.00    +0.007 C 
ATOM     13  C   LIG A   1      -4.193   2.648 126.894  0.00  0.00    +0.001 C 
ATOM     14  C   LIG A   1      -4.579   1.259 126.405  0.00  0.00    +0.007 C 
ATOM     15  C   LIG A   1      -8.582  -1.203 125.037  0.00  0.00    +0.053 C 
ATOM     16  C   LIG A   1      -8.108  -2.654 125.368  0.00  0.00    -0.011 C 
ATOM     17  C   LIG A   1      -6.557  -2.732 125.418  0.00  0.00    +0.011 C 
ATOM     18  C   LIG A   1      -5.933  -1.461 125.992  0.00  0.00    +0.008 C 
ATOM     19  C   LIG A   1      -8.675  -3.036 126.757  0.00  0.00    +0.015 C 
ENDROOT
BRANCH   4  20
ATOM     20  O   LIG A   1      -7.187  -1.042 123.078  0.00  0.00    -0.381 OA
ATOM     21  H   LIG A   1      -6.519  -1.718 123.316  0.00  0.00    +0.211 HD
ENDBRANCH   4  20
BRANCH  16  22
ATOM     22  C   LIG A   1      -8.742  -3.637 124.383  0.00  0.00    -0.028 C 
ATOM     23  C   LIG A   1      -9.642  -3.386 123.423  0.00  0.00    +0.004 C 
ENDBRANCH  16  22
TORSDOF 2
ENDMDL
MODEL 3
REMARK VINA RESULT:      -7.5      7.674      9.034
REMARK  Name = NuBBE_1842
REMARK  6 active torsions:
REMARK  status: ('A' for Active; 'I' for Inactive)
REMARK    1  A    between atoms: C_1  and  C_2
REMARK    2  A    between atoms: C_5  and  O_6
REMARK    3  A    between atoms: C_12  and  C_13
REMARK    4  A    between atoms: C_12  and  C_14
REMARK    5  A    between atoms: C_19  and  C_22
REMARK    6  A    between atoms: C_19  and  C_24
REMARK                            x       y       z     vdW  Elec       q    Type
REMARK                         _______ _______ _______ _____ _____    ______ ____
ROOT
ATOM      1  C   LIG A   1      -4.767  -2.886 128.139  0.00  0.00    +0.012 C 
ATOM      2  C   LIG A   1      -5.781  -1.787 128.535  0.00  0.00    -0.022 C 
ATOM      3  C   LIG A   1      -6.607  -1.290 127.278  0.00  0.00    +0.034 C 
ATOM      4  C   LIG A   1      -7.679  -2.279 126.746  0.00  0.00    +0.128 C 
ATOM      5  C   LIG A   1      -8.287  -3.238 127.779  0.00  0.00    +0.165 C 
ATOM      6  O   LIG A   1      -9.342  -3.833 127.521  0.00  0.00    -0.294 OA
ATOM      7  C   LIG A   1      -7.562  -3.519 129.069  0.00  0.00    +0.082 C 
ATOM      8  C   LIG A   1      -6.831  -2.277 129.595  0.00  0.00    +0.008 C 
ATOM      9  C   LIG A   1      -6.344  -2.414 131.086  0.00  0.00    -0.031 C 
ATOM     10  C   LIG A   1      -7.577  -2.441 132.029  0.00  0.00    +0.011 C 
ATOM     11  C   LIG A   1      -5.549  -3.701 131.386  0.00  0.00    +0.011 C 
ATOM     12  C   LIG A   1      -5.506  -1.177 131.489  0.00  0.00    +0.007 C 
ATOM     13  C   LIG A   1      -4.407  -0.833 130.494  0.00  0.00    +0.001 C 
ATOM     14  C   LIG A   1      -4.988  -0.581 129.109  0.00  0.00    +0.007 C 
ATOM     15  C   LIG A   1      -7.195  -3.063 125.514  0.00  0.00    +0.053 C 
ATOM     16  C   LIG A   1      -6.797  -2.159 124.305  0.00  0.00    -0.011 C 
ATOM     17  C   LIG A   1      -6.427  -0.727 124.782  0.00  0.00    +0.011 C 
ATOM     18  C   LIG A   1      -5.715  -0.734 126.134  0.00  0.00    +0.008 C 
ATOM     19  C   LIG A   1      -5.561  -2.794 123.621  0.00  0.00    +0.015 C 
ENDROOT
BRANCH   4  20
ATOM     20  O   LIG A   1      -8.819  -1.486 126.340  0.00  0.00    -0.381 OA
ATOM     21  H   LIG A   1      -8.823  -1.487 125.361  0.00  0.00    +0.211 HD
ENDBRANCH   4  20
BRANCH  16  22
ATOM     22  C   LIG A   1      -7.907  -2.190 123.254  0.00  0.00    -0.028 C 
ATOM     23  C   LIG A   1      -9.007  -2.955 123.231  0.00  0.00    +0.004 C 
ENDBRANCH  16  22
TORSDOF 2
ENDMDL
MODEL 4
REMARK VINA RESULT:      -7.4      7.455     10.126
REMARK  Name = NuBBE_1842
REMARK  6 active torsions:
REMARK  status: ('A' for Active; 'I' for Inactive)
REMARK    1  A    between atoms: C_1  and  C_2
REMARK    2  A    between atoms: C_5  and  O_6
REMARK    3  A    between atoms: C_12  and  C_13
REMARK    4  A    between atoms: C_12  and  C_14
REMARK    5  A    between atoms: C_19  and  C_22
REMARK    6  A    between atoms: C_19  and  C_24
REMARK                            x       y       z     vdW  Elec       q    Type
REMARK                         _______ _______ _______ _____ _____    ______ ____
ROOT
ATOM      1  C   LIG A   1      -6.769  -3.387 125.554  0.00  0.00    +0.012 C 
ATOM      2  C   LIG A   1      -7.904  -2.354 125.755  0.00  0.00    -0.022 C 
ATOM      3  C   LIG A   1      -8.168  -2.086 127.294  0.00  0.00    +0.034 C 
ATOM      4  C   LIG A   1      -7.086  -1.245 128.024  0.00  0.00    +0.128 C 
ATOM      5  C   LIG A   1      -6.305  -0.247 127.157  0.00  0.00    +0.165 C 
ATOM      6  O   LIG A   1      -5.659   0.662 127.695  0.00  0.00    -0.294 OA
ATOM      7  C   LIG A   1      -6.258  -0.419 125.661  0.00  0.00    +0.082 C 
ATOM      8  C   LIG A   1      -7.583  -0.959 125.107  0.00  0.00    +0.008 C 
ATOM      9  C   LIG A   1      -7.707  -0.843 123.542  0.00  0.00    -0.031 C 
ATOM     10  C   LIG A   1      -7.821   0.654 123.145  0.00  0.00    +0.011 C 
ATOM     11  C   LIG A   1      -6.503  -1.403 122.758  0.00  0.00    +0.011 C 
ATOM     12  C   LIG A   1      -9.009  -1.528 123.059  0.00  0.00    +0.007 C 
ATOM     13  C   LIG A   1      -9.197  -2.936 123.605  0.00  0.00    +0.001 C 
ATOM     14  C   LIG A   1      -9.202  -2.932 125.128  0.00  0.00    +0.007 C 
ATOM     15  C   LIG A   1      -6.113  -2.117 128.836  0.00  0.00    +0.053 C 
ATOM     16  C   LIG A   1      -6.805  -2.985 129.934  0.00  0.00    -0.011 C 
ATOM     17  C   LIG A   1      -8.303  -3.218 129.592  0.00  0.00    +0.011 C 
ATOM     18  C   LIG A   1      -8.536  -3.368 128.089  0.00  0.00    +0.008 C 
ATOM     19  C   LIG A   1      -6.084  -4.354 129.986  0.00  0.00    +0.015 C 
ENDROOT
BRANCH   4  20
ATOM     20  O   LIG A   1      -7.780  -0.381 128.954  0.00  0.00    -0.381 OA
ATOM     21  H   LIG A   1      -8.092   0.390 128.435  0.00  0.00    +0.211 HD
ENDBRANCH   4  20
BRANCH  16  22
ATOM     22  C   LIG A   1      -6.579  -2.350 131.306  0.00  0.00    -0.028 C 
ATOM     23  C   LIG A   1      -7.489  -2.054 132.244  0.00  0.00    +0.004 C 
ENDBRANCH  16  22
TORSDOF 2
ENDMDL
MODEL 5
REMARK VINA RESULT:      -7.1      7.218     10.116
REMARK  Name = NuBBE_1842
REMARK  6 active torsions:
REMARK  status: ('A' for Active; 'I' for Inactive)
REMARK    1  A    between atoms: C_1  and  C_2
REMARK    2  A    between atoms: C_5  and  O_6
REMARK    3  A    between atoms: C_12  and  C_13
REMARK    4  A    between atoms: C_12  and  C_14
REMARK    5  A    between atoms: C_19  and  C_22
REMARK    6  A    between atoms: C_19  and  C_24
REMARK                            x       y       z     vdW  Elec       q    Type
REMARK                         _______ _______ _______ _____ _____    ______ ____
ROOT
ATOM      1  C   LIG A   1      -7.709   9.872 140.705  0.00  0.00    +0.012 C 
ATOM      2  C   LIG A   1      -7.903  10.710 139.419  0.00  0.00    -0.022 C 
ATOM      3  C   LIG A   1      -7.715   9.820 138.122  0.00  0.00    +0.034 C 
ATOM      4  C   LIG A   1      -8.869   8.829 137.814  0.00  0.00    +0.128 C 
ATOM      5  C   LIG A   1     -10.263   9.237 138.313  0.00  0.00    +0.165 C 
ATOM      6  O   LIG A   1     -11.269   8.679 137.856  0.00  0.00    -0.294 OA
ATOM      7  C   LIG A   1     -10.404  10.257 139.413  0.00  0.00    +0.082 C 
ATOM      8  C   LIG A   1      -9.333  11.352 139.316  0.00  0.00    +0.008 C 
ATOM      9  C   LIG A   1      -9.629  12.606 140.221  0.00  0.00    -0.031 C 
ATOM     10  C   LIG A   1     -10.863  13.364 139.661  0.00  0.00    +0.011 C 
ATOM     11  C   LIG A   1      -9.962  12.275 141.690  0.00  0.00    +0.011 C 
ATOM     12  C   LIG A   1      -8.440  13.596 140.165  0.00  0.00    +0.007 C 
ATOM     13  C   LIG A   1      -7.089  12.942 140.414  0.00  0.00    +0.001 C 
ATOM     14  C   LIG A   1      -6.828  11.831 139.405  0.00  0.00    +0.007 C 
ATOM     15  C   LIG A   1      -8.546   7.393 138.261  0.00  0.00    +0.053 C 
ATOM     16  C   LIG A   1      -7.268   6.795 137.593  0.00  0.00    -0.011 C 
ATOM     17  C   LIG A   1      -6.318   7.924 137.105  0.00  0.00    +0.011 C 
ATOM     18  C   LIG A   1      -6.325   9.130 138.043  0.00  0.00    +0.008 C 
ATOM     19  C   LIG A   1      -6.530   5.941 138.653  0.00  0.00    +0.015 C 
ENDROOT
BRANCH   4  20
ATOM     20  O   LIG A   1      -9.040   8.813 136.377  0.00  0.00    -0.381 OA
ATOM     21  H   LIG A   1      -9.287   7.896 136.138  0.00  0.00    +0.211 HD
ENDBRANCH   4  20
BRANCH  16  22
ATOM     22  C   LIG A   1      -7.676   5.816 136.491  0.00  0.00    -0.028 C 
ATOM     23  C   LIG A   1      -7.177   5.705 135.253  0.00  0.00    +0.004 C 
ENDBRANCH  16  22
TORSDOF 2
ENDMDL
MODEL 6
REMARK VINA RESULT:      -7.0      6.257      8.559
REMARK  Name = NuBBE_1842
REMARK  6 active torsions:
REMARK  status: ('A' for Active; 'I' for Inactive)
REMARK    1  A    between atoms: C_1  and  C_2
REMARK    2  A    between atoms: C_5  and  O_6
REMARK    3  A    between atoms: C_12  and  C_13
REMARK    4  A    between atoms: C_12  and  C_14
REMARK    5  A    between atoms: C_19  and  C_22
REMARK    6  A    between atoms: C_19  and  C_24
REMARK                            x       y       z     vdW  Elec       q    Type
REMARK                         _______ _______ _______ _____ _____    ______ ____
ROOT
ATOM      1  C   LIG A   1      -7.552  -2.788 128.142  0.00  0.00    +0.012 C 
ATOM      2  C   LIG A   1      -6.459  -1.766 127.748  0.00  0.00    -0.022 C 
ATOM      3  C   LIG A   1      -6.579  -1.358 126.222  0.00  0.00    +0.034 C 
ATOM      4  C   LIG A   1      -7.771  -0.428 125.868  0.00  0.00    +0.128 C 
ATOM      5  C   LIG A   1      -8.261   0.500 126.988  0.00  0.00    +0.165 C 
ATOM      6  O   LIG A   1      -8.980   1.471 126.714  0.00  0.00    -0.294 OA
ATOM      7  C   LIG A   1      -7.938   0.187 128.426  0.00  0.00    +0.082 C 
ATOM      8  C   LIG A   1      -6.542  -0.433 128.574  0.00  0.00    +0.008 C 
ATOM      9  C   LIG A   1      -6.022  -0.470 130.060  0.00  0.00    -0.031 C 
ATOM     10  C   LIG A   1      -5.744   0.980 130.544  0.00  0.00    +0.011 C 
ATOM     11  C   LIG A   1      -7.014  -1.075 131.074  0.00  0.00    +0.011 C 
ATOM     12  C   LIG A   1      -4.674  -1.227 130.134  0.00  0.00    +0.007 C 
ATOM     13  C   LIG A   1      -4.694  -2.579 129.438  0.00  0.00    +0.001 C 
ATOM     14  C   LIG A   1      -5.073  -2.430 127.971  0.00  0.00    +0.007 C 
ATOM     15  C   LIG A   1      -8.956  -1.197 125.259  0.00  0.00    +0.053 C 
ATOM     16  C   LIG A   1      -8.602  -1.970 123.949  0.00  0.00    -0.011 C 
ATOM     17  C   LIG A   1      -7.079  -2.268 123.876  0.00  0.00    +0.011 C 
ATOM     18  C   LIG A   1      -6.482  -2.567 125.251  0.00  0.00    +0.008 C 
ATOM     19  C   LIG A   1      -9.376  -3.312 123.964  0.00  0.00    +0.015 C 
ENDROOT
BRANCH   4  20
ATOM     20  O   LIG A   1      -7.294   0.505 124.870  0.00  0.00    -0.381 OA
ATOM     21  H   LIG A   1      -8.081   0.992 124.548  0.00  0.00    +0.211 HD
ENDBRANCH   4  20
BRANCH  16  22
ATOM     22  C   LIG A   1      -9.138  -1.203 122.740  0.00  0.00    -0.028 C 
ATOM     23  C   LIG A   1      -9.875  -0.084 122.727  0.00  0.00    +0.004 C 
ENDBRANCH  16  22
TORSDOF 2
ENDMDL
MODEL 7
REMARK VINA RESULT:      -7.0      6.435      8.717
REMARK  Name = NuBBE_1842
REMARK  6 active torsions:
REMARK  status: ('A' for Active; 'I' for Inactive)
REMARK    1  A    between atoms: C_1  and  C_2
REMARK    2  A    between atoms: C_5  and  O_6
REMARK    3  A    between atoms: C_12  and  C_13
REMARK    4  A    between atoms: C_12  and  C_14
REMARK    5  A    between atoms: C_19  and  C_22
REMARK    6  A    between atoms: C_19  and  C_24
REMARK                            x       y       z     vdW  Elec       q    Type
REMARK                         _______ _______ _______ _____ _____    ______ ____
ROOT
ATOM      1  C   LIG A   1      -5.909  -1.338 126.418  0.00  0.00    +0.012 C 
ATOM      2  C   LIG A   1      -7.414  -0.987 126.350  0.00  0.00    -0.022 C 
ATOM      3  C   LIG A   1      -7.646   0.572 126.517  0.00  0.00    +0.034 C 
ATOM      4  C   LIG A   1      -7.245   1.445 125.297  0.00  0.00    +0.128 C 
ATOM      5  C   LIG A   1      -7.322   0.764 123.923  0.00  0.00    +0.165 C 
ATOM      6  O   LIG A   1      -7.323   1.452 122.893  0.00  0.00    -0.294 OA
ATOM      7  C   LIG A   1      -7.316  -0.739 123.822  0.00  0.00    +0.082 C 
ATOM      8  C   LIG A   1      -8.076  -1.392 124.984  0.00  0.00    +0.008 C 
ATOM      9  C   LIG A   1      -8.386  -2.919 124.757  0.00  0.00    -0.031 C 
ATOM     10  C   LIG A   1      -9.428  -3.067 123.615  0.00  0.00    +0.011 C 
ATOM     11  C   LIG A   1      -7.169  -3.767 124.336  0.00  0.00    +0.011 C 
ATOM     12  C   LIG A   1      -9.032  -3.526 126.026  0.00  0.00    +0.007 C 
ATOM     13  C   LIG A   1      -8.268  -3.220 127.306  0.00  0.00    +0.001 C 
ATOM     14  C   LIG A   1      -8.136  -1.718 127.514  0.00  0.00    +0.007 C 
ATOM     15  C   LIG A   1      -5.873   2.116 125.480  0.00  0.00    +0.053 C 
ATOM     16  C   LIG A   1      -5.786   3.047 126.730  0.00  0.00    -0.011 C 
ATOM     17  C   LIG A   1      -6.850   2.651 127.791  0.00  0.00    +0.011 C 
ATOM     18  C   LIG A   1      -7.077   1.141 127.845  0.00  0.00    +0.008 C 
ATOM     19  C   LIG A   1      -4.376   2.885 127.349  0.00  0.00    +0.015 C 
ENDROOT
BRANCH   4  20
ATOM     20  O   LIG A   1      -8.235   2.494 125.186  0.00  0.00    -0.381 OA
ATOM     21  H   LIG A   1      -9.061   2.064 124.880  0.00  0.00    +0.211 HD
ENDBRANCH   4  20
BRANCH  16  22
ATOM     22  C   LIG A   1      -5.873   4.509 126.288  0.00  0.00    -0.028 C 
ATOM     23  C   LIG A   1      -5.887   4.999 125.041  0.00  0.00    +0.004 C 
ENDBRANCH  16  22
TORSDOF 2
ENDMDL
MODEL 8
REMARK VINA RESULT:      -6.9      4.700      6.846
REMARK  Name = NuBBE_1842
REMARK  6 active torsions:
REMARK  status: ('A' for Active; 'I' for Inactive)
REMARK    1  A    between atoms: C_1  and  C_2
REMARK    2  A    between atoms: C_5  and  O_6
REMARK    3  A    between atoms: C_12  and  C_13
REMARK    4  A    between atoms: C_12  and  C_14
REMARK    5  A    between atoms: C_19  and  C_22
REMARK    6  A    between atoms: C_19  and  C_24
REMARK                            x       y       z     vdW  Elec       q    Type
REMARK                         _______ _______ _______ _____ _____    ______ ____
ROOT
ATOM      1  C   LIG A   1      -4.770   1.704 128.281  0.00  0.00    +0.012 C 
ATOM      2  C   LIG A   1      -4.814   2.881 127.277  0.00  0.00    -0.022 C 
ATOM      3  C   LIG A   1      -6.020   2.723 126.262  0.00  0.00    +0.034 C 
ATOM      4  C   LIG A   1      -7.432   2.991 126.849  0.00  0.00    +0.128 C 
ATOM      5  C   LIG A   1      -7.498   3.971 128.030  0.00  0.00    +0.165 C 
ATOM      6  O   LIG A   1      -8.583   4.474 128.353  0.00  0.00    -0.294 OA
ATOM      7  C   LIG A   1      -6.264   4.260 128.844  0.00  0.00    +0.082 C 
ATOM      8  C   LIG A   1      -4.999   4.275 127.976  0.00  0.00    +0.008 C 
ATOM      9  C   LIG A   1      -3.744   4.893 128.700  0.00  0.00    -0.031 C 
ATOM     10  C   LIG A   1      -3.968   6.416 128.906  0.00  0.00    +0.011 C 
ATOM     11  C   LIG A   1      -3.457   4.311 130.098  0.00  0.00    +0.011 C 
ATOM     12  C   LIG A   1      -2.489   4.747 127.805  0.00  0.00    +0.007 C 
ATOM     13  C   LIG A   1      -2.280   3.338 127.271  0.00  0.00    +0.001 C 
ATOM     14  C   LIG A   1      -3.488   2.877 126.468  0.00  0.00    +0.007 C 
ATOM     15  C   LIG A   1      -8.181   1.693 127.195  0.00  0.00    +0.053 C 
ATOM     16  C   LIG A   1      -8.391   0.740 125.977  0.00  0.00    -0.011 C 
ATOM     17  C   LIG A   1      -7.335   1.016 124.870  0.00  0.00    +0.011 C 
ATOM     18  C   LIG A   1      -5.975   1.398 125.451  0.00  0.00    +0.008 C 
ATOM     19  C   LIG A   1      -8.225  -0.716 126.476  0.00  0.00    +0.015 C 
ENDROOT
BRANCH   4  20
ATOM     20  O   LIG A   1      -8.191   3.677 125.826  0.00  0.00    -0.381 OA
ATOM     21  H   LIG A   1      -7.973   3.237 124.978  0.00  0.00    +0.211 HD
ENDBRANCH   4  20
BRANCH  16  22
ATOM     22  C   LIG A   1      -9.836   0.843 125.487  0.00  0.00    -0.028 C 
ATOM     23  C   LIG A   1     -10.283   1.289 124.306  0.00  0.00    +0.004 C 
ENDBRANCH  16  22
TORSDOF 2
ENDMDL
MODEL 9
REMARK VINA RESULT:      -6.9      6.590      9.287
REMARK  Name = NuBBE_1842
REMARK  6 active torsions:
REMARK  status: ('A' for Active; 'I' for Inactive)
REMARK    1  A    between atoms: C_1  and  C_2
REMARK    2  A    between atoms: C_5  and  O_6
REMARK    3  A    between atoms: C_12  and  C_13
REMARK    4  A    between atoms: C_12  and  C_14
REMARK    5  A    between atoms: C_19  and  C_22
REMARK    6  A    between atoms: C_19  and  C_24
REMARK                            x       y       z     vdW  Elec       q    Type
REMARK                         _______ _______ _______ _____ _____    ______ ____
ROOT
ATOM      1  C   LIG A   1      -9.018   0.346 125.678  0.00  0.00    +0.012 C 
ATOM      2  C   LIG A   1      -7.849  -0.188 124.817  0.00  0.00    -0.022 C 
ATOM      3  C   LIG A   1      -6.544   0.689 125.015  0.00  0.00    +0.034 C 
ATOM      4  C   LIG A   1      -5.811   0.506 126.371  0.00  0.00    +0.128 C 
ATOM      5  C   LIG A   1      -5.967  -0.865 127.045  0.00  0.00    +0.165 C 
ATOM      6  O   LIG A   1      -5.188  -1.201 127.947  0.00  0.00    -0.294 OA
ATOM      7  C   LIG A   1      -7.113  -1.768 126.667  0.00  0.00    +0.082 C 
ATOM      8  C   LIG A   1      -7.452  -1.665 125.174  0.00  0.00    +0.008 C 
ATOM      9  C   LIG A   1      -8.400  -2.813 124.662  0.00  0.00    -0.031 C 
ATOM     10  C   LIG A   1      -7.634  -4.163 124.689  0.00  0.00    +0.011 C 
ATOM     11  C   LIG A   1      -9.670  -3.025 125.511  0.00  0.00    +0.011 C 
ATOM     12  C   LIG A   1      -8.795  -2.558 123.187  0.00  0.00    +0.007 C 
ATOM     13  C   LIG A   1      -9.309  -1.150 122.926  0.00  0.00    +0.001 C 
ATOM     14  C   LIG A   1      -8.271  -0.110 123.324  0.00  0.00    +0.007 C 
ATOM     15  C   LIG A   1      -6.137   1.628 127.372  0.00  0.00    +0.053 C 
ATOM     16  C   LIG A   1      -5.763   3.056 126.863  0.00  0.00    -0.011 C 
ATOM     17  C   LIG A   1      -5.700   3.093 125.311  0.00  0.00    +0.011 C 
ATOM     18  C   LIG A   1      -6.751   2.189 124.669  0.00  0.00    +0.008 C 
ATOM     19  C   LIG A   1      -6.860   4.037 127.345  0.00  0.00    +0.015 C 
ENDROOT
BRANCH   4  20
ATOM     20  O   LIG A   1      -4.392   0.562 126.094  0.00  0.00    -0.381 OA
ATOM     21  H   LIG A   1      -4.299   0.973 125.209  0.00  0.00    +0.211 HD
ENDBRANCH   4  20
BRANCH  16  22
ATOM     22  C   LIG A   1      -4.473   3.521 127.542  0.00  0.00    -0.028 C 
ATOM     23  C   LIG A   1      -3.525   4.332 127.056  0.00  0.00    +0.004 C 
ENDBRANCH  16  22
TORSDOF 2
ENDMDL
