MODEL 1
REMARK VINA RESULT:      -6.9      0.000      0.000
REMARK  Name = NuBBE_1215
REMARK  9 active torsions:
REMARK  status: ('A' for Active; 'I' for Inactive)
REMARK    1  A    between atoms: C_4  and  C_18
REMARK    2  A    between atoms: C_8  and  O_9
REMARK    3  A    between atoms: O_9  and  C_10
REMARK    4  A    between atoms: C_11  and  O_12
REMARK    5  A    between atoms: O_12  and  C_13
REMARK    6  A    between atoms: C_14  and  O_15
REMARK    7  A    between atoms: O_15  and  C_16
REMARK    8  A    between atoms: C_21  and  O_24
REMARK    9  A    between atoms: O_24  and  C_25
REMARK                            x       y       z     vdW  Elec       q    Type
REMARK                         _______ _______ _______ _____ _____    ______ ____
ROOT
ATOM      1  O   LIG A   1      -7.439   5.031 134.211  0.00  0.00    -0.287 OA
ATOM      2  C   LIG A   1      -7.429   5.604 133.138  0.00  0.00    +0.197 A 
ATOM      3  C   LIG A   1      -8.717   5.928 132.487  0.00  0.00    +0.098 A 
ATOM      4  C   LIG A   1      -8.730   6.651 131.359  0.00  0.00    +0.139 A 
ATOM      5  O   LIG A   1      -7.588   7.153 130.769  0.00  0.00    -0.454 OA
ATOM      6  C   LIG A   1      -6.369   6.809 131.283  0.00  0.00    +0.146 A 
ATOM      7  C   LIG A   1      -6.201   6.032 132.426  0.00  0.00    +0.109 A 
ATOM      8  C   LIG A   1      -4.901   5.695 132.822  0.00  0.00    +0.179 A 
ATOM      9  C   LIG A   1      -3.777   6.150 132.080  0.00  0.00    +0.204 A 
ATOM     10  C   LIG A   1      -3.979   6.940 130.928  0.00  0.00    +0.169 A 
ATOM     11  C   LIG A   1      -5.279   7.257 130.539  0.00  0.00    +0.096 A 
ENDROOT
BRANCH   4  12
ATOM     12  C   LIG A   1      -9.962   7.000 130.627  0.00  0.00    +0.018 A 
ATOM     13  C   LIG A   1      -9.944   7.731 129.433  0.00  0.00    +0.015 A 
ATOM     14  C   LIG A   1     -11.138   8.104 128.807  0.00  0.00    +0.046 A 
ATOM     15  C   LIG A   1     -12.370   7.763 129.367  0.00  0.00    +0.120 A 
ATOM     16  C   LIG A   1     -12.398   7.033 130.552  0.00  0.00    +0.046 A 
ATOM     17  C   LIG A   1     -11.208   6.657 131.174  0.00  0.00    +0.015 A 
BRANCH  15  18
ATOM     18  O   LIG A   1     -13.472   8.198 128.682  0.00  0.00    -0.495 OA
ATOM     19  C   LIG A   1     -13.571   9.607 128.507  0.00  0.00    +0.277 C 
ENDBRANCH  15  18
ENDBRANCH   4  12
BRANCH   8  20
ATOM     20  O   LIG A   1      -4.702   4.763 133.814  0.00  0.00    -0.490 OA
ATOM     21  C   LIG A   1      -4.557   3.439 133.303  0.00  0.00    +0.277 C 
ENDBRANCH   8  20
BRANCH   9  22
ATOM     22  O   LIG A   1      -2.562   5.751 132.589  0.00  0.00    -0.488 OA
ATOM     23  C   LIG A   1      -1.842   6.653 133.420  0.00  0.00    +0.277 C 
ENDBRANCH   9  22
BRANCH  10  24
ATOM     24  O   LIG A   1      -2.912   7.277 130.139  0.00  0.00    -0.491 OA
ATOM     25  C   LIG A   1      -2.929   6.836 128.787  0.00  0.00    +0.277 C 
ENDBRANCH  10  24
TORSDOF 5
ENDMDL
MODEL 2
REMARK VINA RESULT:      -6.7      1.591      1.873
REMARK  Name = NuBBE_1215
REMARK  9 active torsions:
REMARK  status: ('A' for Active; 'I' for Inactive)
REMARK    1  A    between atoms: C_4  and  C_18
REMARK    2  A    between atoms: C_8  and  O_9
REMARK    3  A    between atoms: O_9  and  C_10
REMARK    4  A    between atoms: C_11  and  O_12
REMARK    5  A    between atoms: O_12  and  C_13
REMARK    6  A    between atoms: C_14  and  O_15
REMARK    7  A    between atoms: O_15  and  C_16
REMARK    8  A    between atoms: C_21  and  O_24
REMARK    9  A    between atoms: O_24  and  C_25
REMARK                            x       y       z     vdW  Elec       q    Type
REMARK                         _______ _______ _______ _____ _____    ______ ____
ROOT
ATOM      1  O   LIG A   1      -9.119   3.187 132.290  0.00  0.00    -0.287 OA
ATOM      2  C   LIG A   1      -8.868   4.284 131.826  0.00  0.00    +0.197 A 
ATOM      3  C   LIG A   1      -9.965   5.081 131.236  0.00  0.00    +0.098 A 
ATOM      4  C   LIG A   1      -9.729   6.332 130.817  0.00  0.00    +0.139 A 
ATOM      5  O   LIG A   1      -8.502   6.950 130.935  0.00  0.00    -0.454 OA
ATOM      6  C   LIG A   1      -7.436   6.228 131.393  0.00  0.00    +0.146 A 
ATOM      7  C   LIG A   1      -7.523   4.907 131.826  0.00  0.00    +0.109 A 
ATOM      8  C   LIG A   1      -6.349   4.252 132.218  0.00  0.00    +0.179 A 
ATOM      9  C   LIG A   1      -5.098   4.927 132.188  0.00  0.00    +0.204 A 
ATOM     10  C   LIG A   1      -5.042   6.267 131.748  0.00  0.00    +0.169 A 
ATOM     11  C   LIG A   1      -6.217   6.902 131.351  0.00  0.00    +0.096 A 
ENDROOT
BRANCH   4  12
ATOM     12  C   LIG A   1     -10.754   7.190 130.193  0.00  0.00    +0.018 A 
ATOM     13  C   LIG A   1     -10.534   7.863 128.985  0.00  0.00    +0.015 A 
ATOM     14  C   LIG A   1     -11.504   8.726 128.462  0.00  0.00    +0.046 A 
ATOM     15  C   LIG A   1     -12.704   8.938 129.140  0.00  0.00    +0.120 A 
ATOM     16  C   LIG A   1     -12.934   8.269 130.340  0.00  0.00    +0.046 A 
ATOM     17  C   LIG A   1     -11.969   7.407 130.859  0.00  0.00    +0.015 A 
BRANCH  15  18
ATOM     18  O   LIG A   1     -13.570   9.817 128.548  0.00  0.00    -0.495 OA
ATOM     19  C   LIG A   1     -13.849  10.999 129.291  0.00  0.00    +0.277 C 
ENDBRANCH  15  18
ENDBRANCH   4  12
BRANCH   8  20
ATOM     20  O   LIG A   1      -6.361   2.896 132.448  0.00  0.00    -0.490 OA
ATOM     21  C   LIG A   1      -6.025   2.139 131.287  0.00  0.00    +0.277 C 
ENDBRANCH   8  20
BRANCH   9  22
ATOM     22  O   LIG A   1      -4.032   4.164 132.609  0.00  0.00    -0.488 OA
ATOM     23  C   LIG A   1      -3.561   4.327 133.940  0.00  0.00    +0.277 C 
ENDBRANCH   9  22
BRANCH  10  24
ATOM     24  O   LIG A   1      -3.829   6.883 131.598  0.00  0.00    -0.491 OA
ATOM     25  C   LIG A   1      -3.729   7.905 130.614  0.00  0.00    +0.277 C 
ENDBRANCH  10  24
TORSDOF 5
ENDMDL
MODEL 3
REMARK VINA RESULT:      -6.7      8.374     10.633
REMARK  Name = NuBBE_1215
REMARK  9 active torsions:
REMARK  status: ('A' for Active; 'I' for Inactive)
REMARK    1  A    between atoms: C_4  and  C_18
REMARK    2  A    between atoms: C_8  and  O_9
REMARK    3  A    between atoms: O_9  and  C_10
REMARK    4  A    between atoms: C_11  and  O_12
REMARK    5  A    between atoms: O_12  and  C_13
REMARK    6  A    between atoms: C_14  and  O_15
REMARK    7  A    between atoms: O_15  and  C_16
REMARK    8  A    between atoms: C_21  and  O_24
REMARK    9  A    between atoms: O_24  and  C_25
REMARK                            x       y       z     vdW  Elec       q    Type
REMARK                         _______ _______ _______ _____ _____    ______ ____
ROOT
ATOM      1  O   LIG A   1      -9.602   2.024 125.367  0.00  0.00    -0.287 OA
ATOM      2  C   LIG A   1      -8.426   1.709 125.376  0.00  0.00    +0.197 A 
ATOM      3  C   LIG A   1      -7.443   2.630 125.986  0.00  0.00    +0.098 A 
ATOM      4  C   LIG A   1      -6.162   2.255 126.101  0.00  0.00    +0.139 A 
ATOM      5  O   LIG A   1      -5.697   1.018 125.706  0.00  0.00    -0.454 OA
ATOM      6  C   LIG A   1      -6.547   0.165 125.059  0.00  0.00    +0.146 A 
ATOM      7  C   LIG A   1      -7.894   0.436 124.834  0.00  0.00    +0.109 A 
ATOM      8  C   LIG A   1      -8.651  -0.490 124.106  0.00  0.00    +0.179 A 
ATOM      9  C   LIG A   1      -8.059  -1.688 123.621  0.00  0.00    +0.204 A 
ATOM     10  C   LIG A   1      -6.692  -1.937 123.870  0.00  0.00    +0.169 A 
ATOM     11  C   LIG A   1      -5.949  -1.001 124.585  0.00  0.00    +0.096 A 
ENDROOT
BRANCH   4  12
ATOM     12  C   LIG A   1      -5.108   3.116 126.670  0.00  0.00    +0.018 A 
ATOM     13  C   LIG A   1      -5.375   4.397 127.172  0.00  0.00    +0.015 A 
ATOM     14  C   LIG A   1      -4.337   5.211 127.636  0.00  0.00    +0.046 A 
ATOM     15  C   LIG A   1      -3.015   4.767 127.599  0.00  0.00    +0.120 A 
ATOM     16  C   LIG A   1      -2.740   3.494 127.106  0.00  0.00    +0.046 A 
ATOM     17  C   LIG A   1      -3.775   2.680 126.647  0.00  0.00    +0.015 A 
BRANCH  15  18
ATOM     18  O   LIG A   1      -2.080   5.654 128.059  0.00  0.00    -0.495 OA
ATOM     19  C   LIG A   1      -2.527   6.998 128.206  0.00  0.00    +0.277 C 
ENDBRANCH  15  18
ENDBRANCH   4  12
BRANCH   8  20
ATOM     20  O   LIG A   1      -9.918  -0.163 123.683  0.00  0.00    -0.490 OA
ATOM     21  C   LIG A   1      -9.928   0.446 122.393  0.00  0.00    +0.277 C 
ENDBRANCH   8  20
BRANCH   9  22
ATOM     22  O   LIG A   1      -8.923  -2.509 122.931  0.00  0.00    -0.488 OA
ATOM     23  C   LIG A   1      -9.586  -3.549 123.639  0.00  0.00    +0.277 C 
ENDBRANCH   9  22
BRANCH  10  24
ATOM     24  O   LIG A   1      -6.086  -3.026 123.302  0.00  0.00    -0.491 OA
ATOM     25  C   LIG A   1      -4.691  -3.192 123.528  0.00  0.00    +0.277 C 
ENDBRANCH  10  24
TORSDOF 5
ENDMDL
MODEL 4
REMARK VINA RESULT:      -6.6      3.185      4.063
REMARK  Name = NuBBE_1215
REMARK  9 active torsions:
REMARK  status: ('A' for Active; 'I' for Inactive)
REMARK    1  A    between atoms: C_4  and  C_18
REMARK    2  A    between atoms: C_8  and  O_9
REMARK    3  A    between atoms: O_9  and  C_10
REMARK    4  A    between atoms: C_11  and  O_12
REMARK    5  A    between atoms: O_12  and  C_13
REMARK    6  A    between atoms: C_14  and  O_15
REMARK    7  A    between atoms: O_15  and  C_16
REMARK    8  A    between atoms: C_21  and  O_24
REMARK    9  A    between atoms: O_24  and  C_25
REMARK                            x       y       z     vdW  Elec       q    Type
REMARK                         _______ _______ _______ _____ _____    ______ ____
ROOT
ATOM      1  O   LIG A   1      -6.730   5.850 132.584  0.00  0.00    -0.287 OA
ATOM      2  C   LIG A   1      -7.568   5.512 131.769  0.00  0.00    +0.197 A 
ATOM      3  C   LIG A   1      -8.600   6.487 131.356  0.00  0.00    +0.098 A 
ATOM      4  C   LIG A   1      -9.465   6.169 130.384  0.00  0.00    +0.139 A 
ATOM      5  O   LIG A   1      -9.432   4.970 129.703  0.00  0.00    -0.454 OA
ATOM      6  C   LIG A   1      -8.554   4.003 130.106  0.00  0.00    +0.146 A 
ATOM      7  C   LIG A   1      -7.623   4.177 131.126  0.00  0.00    +0.109 A 
ATOM      8  C   LIG A   1      -6.816   3.092 131.490  0.00  0.00    +0.179 A 
ATOM      9  C   LIG A   1      -6.935   1.844 130.819  0.00  0.00    +0.204 A 
ATOM     10  C   LIG A   1      -7.885   1.700 129.785  0.00  0.00    +0.169 A 
ATOM     11  C   LIG A   1      -8.689   2.785 129.442  0.00  0.00    +0.096 A 
ENDROOT
BRANCH   4  12
ATOM     12  C   LIG A   1     -10.543   7.067 129.925  0.00  0.00    +0.018 A 
ATOM     13  C   LIG A   1     -10.405   7.892 128.802  0.00  0.00    +0.015 A 
ATOM     14  C   LIG A   1     -11.422   8.783 128.442  0.00  0.00    +0.046 A 
ATOM     15  C   LIG A   1     -12.588   8.872 129.201  0.00  0.00    +0.120 A 
ATOM     16  C   LIG A   1     -12.737   8.053 130.318  0.00  0.00    +0.046 A 
ATOM     17  C   LIG A   1     -11.725   7.163 130.675  0.00  0.00    +0.015 A 
BRANCH  15  18
ATOM     18  O   LIG A   1     -13.506   9.792 128.770  0.00  0.00    -0.495 OA
ATOM     19  C   LIG A   1     -13.597  10.981 129.547  0.00  0.00    +0.277 C 
ENDBRANCH  15  18
ENDBRANCH   4  12
BRANCH   8  20
ATOM     20  O   LIG A   1      -6.041   3.159 132.624  0.00  0.00    -0.490 OA
ATOM     21  C   LIG A   1      -6.711   2.658 133.779  0.00  0.00    +0.277 C 
ENDBRANCH   8  20
BRANCH   9  22
ATOM     22  O   LIG A   1      -6.074   0.871 131.273  0.00  0.00    -0.488 OA
ATOM     23  C   LIG A   1      -4.891   0.607 130.530  0.00  0.00    +0.277 C 
ENDBRANCH   9  22
BRANCH  10  24
ATOM     24  O   LIG A   1      -8.092   0.470 129.219  0.00  0.00    -0.491 OA
ATOM     25  C   LIG A   1      -7.561   0.248 127.918  0.00  0.00    +0.277 C 
ENDBRANCH  10  24
TORSDOF 5
ENDMDL
MODEL 5
REMARK VINA RESULT:      -6.6      8.559     11.286
REMARK  Name = NuBBE_1215
REMARK  9 active torsions:
REMARK  status: ('A' for Active; 'I' for Inactive)
REMARK    1  A    between atoms: C_4  and  C_18
REMARK    2  A    between atoms: C_8  and  O_9
REMARK    3  A    between atoms: O_9  and  C_10
REMARK    4  A    between atoms: C_11  and  O_12
REMARK    5  A    between atoms: O_12  and  C_13
REMARK    6  A    between atoms: C_14  and  O_15
REMARK    7  A    between atoms: O_15  and  C_16
REMARK    8  A    between atoms: C_21  and  O_24
REMARK    9  A    between atoms: O_24  and  C_25
REMARK                            x       y       z     vdW  Elec       q    Type
REMARK                         _______ _______ _______ _____ _____    ______ ____
ROOT
ATOM      1  O   LIG A   1      -9.736  -2.068 124.805  0.00  0.00    -0.287 OA
ATOM      2  C   LIG A   1      -8.845  -1.553 125.453  0.00  0.00    +0.197 A 
ATOM      3  C   LIG A   1      -8.179  -2.344 126.511  0.00  0.00    +0.098 A 
ATOM      4  C   LIG A   1      -7.126  -1.831 127.162  0.00  0.00    +0.139 A 
ATOM      5  O   LIG A   1      -6.591  -0.592 126.879  0.00  0.00    -0.454 OA
ATOM      6  C   LIG A   1      -7.222   0.212 125.971  0.00  0.00    +0.146 A 
ATOM      7  C   LIG A   1      -8.347  -0.172 125.246  0.00  0.00    +0.109 A 
ATOM      8  C   LIG A   1      -8.942   0.761 124.388  0.00  0.00    +0.179 A 
ATOM      9  C   LIG A   1      -8.397   2.068 124.249  0.00  0.00    +0.204 A 
ATOM     10  C   LIG A   1      -7.253   2.426 124.994  0.00  0.00    +0.169 A 
ATOM     11  C   LIG A   1      -6.679   1.490 125.852  0.00  0.00    +0.096 A 
ENDROOT
BRANCH   4  12
ATOM     12  C   LIG A   1      -6.417  -2.535 128.248  0.00  0.00    +0.018 A 
ATOM     13  C   LIG A   1      -7.094  -3.215 129.268  0.00  0.00    +0.015 A 
ATOM     14  C   LIG A   1      -6.388  -3.809 130.320  0.00  0.00    +0.046 A 
ATOM     15  C   LIG A   1      -4.997  -3.725 130.376  0.00  0.00    +0.120 A 
ATOM     16  C   LIG A   1      -4.314  -3.055 129.364  0.00  0.00    +0.046 A 
ATOM     17  C   LIG A   1      -5.018  -2.467 128.314  0.00  0.00    +0.015 A 
BRANCH  15  18
ATOM     18  O   LIG A   1      -4.412  -4.323 131.460  0.00  0.00    -0.495 OA
ATOM     19  C   LIG A   1      -5.289  -5.068 132.299  0.00  0.00    +0.277 C 
ENDBRANCH  15  18
ENDBRANCH   4  12
BRANCH   8  20
ATOM     20  O   LIG A   1     -10.167   0.495 123.822  0.00  0.00    -0.490 OA
ATOM     21  C   LIG A   1     -10.063   0.051 122.471  0.00  0.00    +0.277 C 
ENDBRANCH   8  20
BRANCH   9  22
ATOM     22  O   LIG A   1      -9.078   2.875 123.366  0.00  0.00    -0.488 OA
ATOM     23  C   LIG A   1      -8.504   3.125 122.090  0.00  0.00    +0.277 C 
ENDBRANCH   9  22
BRANCH  10  24
ATOM     24  O   LIG A   1      -6.797   3.716 124.961  0.00  0.00    -0.491 OA
ATOM     25  C   LIG A   1      -5.624   3.978 124.200  0.00  0.00    +0.277 C 
ENDBRANCH  10  24
TORSDOF 5
ENDMDL
MODEL 6
REMARK VINA RESULT:      -6.5      8.994     10.070
REMARK  Name = NuBBE_1215
REMARK  9 active torsions:
REMARK  status: ('A' for Active; 'I' for Inactive)
REMARK    1  A    between atoms: C_4  and  C_18
REMARK    2  A    between atoms: C_8  and  O_9
REMARK    3  A    between atoms: O_9  and  C_10
REMARK    4  A    between atoms: C_11  and  O_12
REMARK    5  A    between atoms: O_12  and  C_13
REMARK    6  A    between atoms: C_14  and  O_15
REMARK    7  A    between atoms: O_15  and  C_16
REMARK    8  A    between atoms: C_21  and  O_24
REMARK    9  A    between atoms: O_24  and  C_25
REMARK                            x       y       z     vdW  Elec       q    Type
REMARK                         _______ _______ _______ _____ _____    ______ ____
ROOT
ATOM      1  O   LIG A   1      -7.350   2.995 127.306  0.00  0.00    -0.287 OA
ATOM      2  C   LIG A   1      -7.411   2.375 126.260  0.00  0.00    +0.197 A 
ATOM      3  C   LIG A   1      -7.335   3.117 124.982  0.00  0.00    +0.098 A 
ATOM      4  C   LIG A   1      -7.293   2.444 123.824  0.00  0.00    +0.139 A 
ATOM      5  O   LIG A   1      -7.285   1.068 123.748  0.00  0.00    -0.454 OA
ATOM      6  C   LIG A   1      -7.440   0.339 124.894  0.00  0.00    +0.146 A 
ATOM      7  C   LIG A   1      -7.536   0.901 126.164  0.00  0.00    +0.109 A 
ATOM      8  C   LIG A   1      -7.754   0.055 127.258  0.00  0.00    +0.179 A 
ATOM      9  C   LIG A   1      -7.861  -1.351 127.075  0.00  0.00    +0.204 A 
ATOM     10  C   LIG A   1      -7.756  -1.893 125.776  0.00  0.00    +0.169 A 
ATOM     11  C   LIG A   1      -7.550  -1.037 124.696  0.00  0.00    +0.096 A 
ENDROOT
BRANCH   4  12
ATOM     12  C   LIG A   1      -7.243   3.099 122.503  0.00  0.00    +0.018 A 
ATOM     13  C   LIG A   1      -8.391   3.316 121.730  0.00  0.00    +0.015 A 
ATOM     14  C   LIG A   1      -8.294   3.874 120.451  0.00  0.00    +0.046 A 
ATOM     15  C   LIG A   1      -7.051   4.214 119.918  0.00  0.00    +0.120 A 
ATOM     16  C   LIG A   1      -5.904   4.006 120.680  0.00  0.00    +0.046 A 
ATOM     17  C   LIG A   1      -6.001   3.454 121.957  0.00  0.00    +0.015 A 
BRANCH  15  18
ATOM     18  O   LIG A   1      -7.072   4.732 118.651  0.00  0.00    -0.495 OA
ATOM     19  C   LIG A   1      -6.030   5.651 118.344  0.00  0.00    +0.277 C 
ENDBRANCH  15  18
ENDBRANCH   4  12
BRANCH   8  20
ATOM     20  O   LIG A   1      -8.064   0.584 128.489  0.00  0.00    -0.490 OA
ATOM     21  C   LIG A   1      -6.939   0.638 129.363  0.00  0.00    +0.277 C 
ENDBRANCH   8  20
BRANCH   9  22
ATOM     22  O   LIG A   1      -8.066  -2.060 128.237  0.00  0.00    -0.488 OA
ATOM     23  C   LIG A   1      -7.001  -2.848 128.752  0.00  0.00    +0.277 C 
ENDBRANCH   9  22
BRANCH  10  24
ATOM     24  O   LIG A   1      -7.981  -3.229 125.576  0.00  0.00    -0.491 OA
ATOM     25  C   LIG A   1      -8.603  -3.614 124.357  0.00  0.00    +0.277 C 
ENDBRANCH  10  24
TORSDOF 5
ENDMDL
MODEL 7
REMARK VINA RESULT:      -6.5      9.557     10.880
REMARK  Name = NuBBE_1215
REMARK  9 active torsions:
REMARK  status: ('A' for Active; 'I' for Inactive)
REMARK    1  A    between atoms: C_4  and  C_18
REMARK    2  A    between atoms: C_8  and  O_9
REMARK    3  A    between atoms: O_9  and  C_10
REMARK    4  A    between atoms: C_11  and  O_12
REMARK    5  A    between atoms: O_12  and  C_13
REMARK    6  A    between atoms: C_14  and  O_15
REMARK    7  A    between atoms: O_15  and  C_16
REMARK    8  A    between atoms: C_21  and  O_24
REMARK    9  A    between atoms: O_24  and  C_25
REMARK                            x       y       z     vdW  Elec       q    Type
REMARK                         _______ _______ _______ _____ _____    ______ ____
ROOT
ATOM      1  O   LIG A   1      -2.629  -2.279 130.252  0.00  0.00    -0.287 OA
ATOM      2  C   LIG A   1      -3.787  -2.603 130.439  0.00  0.00    +0.197 A 
ATOM      3  C   LIG A   1      -4.745  -2.521 129.315  0.00  0.00    +0.098 A 
ATOM      4  C   LIG A   1      -5.997  -2.973 129.472  0.00  0.00    +0.139 A 
ATOM      5  O   LIG A   1      -6.450  -3.555 130.637  0.00  0.00    -0.454 OA
ATOM      6  C   LIG A   1      -5.631  -3.577 131.731  0.00  0.00    +0.146 A 
ATOM      7  C   LIG A   1      -4.320  -3.108 131.727  0.00  0.00    +0.109 A 
ATOM      8  C   LIG A   1      -3.598  -3.127 132.927  0.00  0.00    +0.179 A 
ATOM      9  C   LIG A   1      -4.187  -3.630 134.119  0.00  0.00    +0.204 A 
ATOM     10  C   LIG A   1      -5.517  -4.102 134.091  0.00  0.00    +0.169 A 
ATOM     11  C   LIG A   1      -6.227  -4.066 132.892  0.00  0.00    +0.096 A 
ENDROOT
BRANCH   4  12
ATOM     12  C   LIG A   1      -7.026  -2.907 128.417  0.00  0.00    +0.018 A 
ATOM     13  C   LIG A   1      -8.192  -3.682 128.458  0.00  0.00    +0.015 A 
ATOM     14  C   LIG A   1      -9.110  -3.645 127.403  0.00  0.00    +0.046 A 
ATOM     15  C   LIG A   1      -8.874  -2.844 126.285  0.00  0.00    +0.120 A 
ATOM     16  C   LIG A   1      -7.720  -2.067 126.237  0.00  0.00    +0.046 A 
ATOM     17  C   LIG A   1      -6.807  -2.100 127.291  0.00  0.00    +0.015 A 
BRANCH  15  18
ATOM     18  O   LIG A   1      -9.827  -2.902 125.304  0.00  0.00    -0.495 OA
ATOM     19  C   LIG A   1      -9.363  -3.303 124.020  0.00  0.00    +0.277 C 
ENDBRANCH  15  18
ENDBRANCH   4  12
BRANCH   8  20
ATOM     20  O   LIG A   1      -2.386  -2.482 133.012  0.00  0.00    -0.490 OA
ATOM     21  C   LIG A   1      -2.510  -1.132 133.454  0.00  0.00    +0.277 C 
ENDBRANCH   8  20
BRANCH   9  22
ATOM     22  O   LIG A   1      -3.359  -3.596 135.219  0.00  0.00    -0.488 OA
ATOM     23  C   LIG A   1      -2.694  -4.791 135.607  0.00  0.00    +0.277 C 
ENDBRANCH   9  22
BRANCH  10  24
ATOM     24  O   LIG A   1      -6.132  -4.472 135.257  0.00  0.00    -0.491 OA
ATOM     25  C   LIG A   1      -6.468  -5.845 135.415  0.00  0.00    +0.277 C 
ENDBRANCH  10  24
TORSDOF 5
ENDMDL
MODEL 8
REMARK VINA RESULT:      -6.5      3.353      4.110
REMARK  Name = NuBBE_1215
REMARK  9 active torsions:
REMARK  status: ('A' for Active; 'I' for Inactive)
REMARK    1  A    between atoms: C_4  and  C_18
REMARK    2  A    between atoms: C_8  and  O_9
REMARK    3  A    between atoms: O_9  and  C_10
REMARK    4  A    between atoms: C_11  and  O_12
REMARK    5  A    between atoms: O_12  and  C_13
REMARK    6  A    between atoms: C_14  and  O_15
REMARK    7  A    between atoms: O_15  and  C_16
REMARK    8  A    between atoms: C_21  and  O_24
REMARK    9  A    between atoms: O_24  and  C_25
REMARK                            x       y       z     vdW  Elec       q    Type
REMARK                         _______ _______ _______ _____ _____    ______ ____
ROOT
ATOM      1  O   LIG A   1      -9.393   2.408 130.165  0.00  0.00    -0.287 OA
ATOM      2  C   LIG A   1      -9.439   3.459 130.778  0.00  0.00    +0.197 A 
ATOM      3  C   LIG A   1     -10.242   4.573 130.230  0.00  0.00    +0.098 A 
ATOM      4  C   LIG A   1     -10.391   5.699 130.941  0.00  0.00    +0.139 A 
ATOM      5  O   LIG A   1      -9.856   5.876 132.199  0.00  0.00    -0.454 OA
ATOM      6  C   LIG A   1      -9.036   4.910 132.713  0.00  0.00    +0.146 A 
ATOM      7  C   LIG A   1      -8.758   3.707 132.071  0.00  0.00    +0.109 A 
ATOM      8  C   LIG A   1      -7.854   2.821 132.670  0.00  0.00    +0.179 A 
ATOM      9  C   LIG A   1      -7.244   3.139 133.915  0.00  0.00    +0.204 A 
ATOM     10  C   LIG A   1      -7.549   4.365 134.544  0.00  0.00    +0.169 A 
ATOM     11  C   LIG A   1      -8.442   5.241 133.930  0.00  0.00    +0.096 A 
ENDROOT
BRANCH   4  12
ATOM     12  C   LIG A   1     -11.151   6.870 130.464  0.00  0.00    +0.018 A 
ATOM     13  C   LIG A   1     -12.282   7.354 131.132  0.00  0.00    +0.015 A 
ATOM     14  C   LIG A   1     -13.018   8.423 130.609  0.00  0.00    +0.046 A 
ATOM     15  C   LIG A   1     -12.643   9.019 129.405  0.00  0.00    +0.120 A 
ATOM     16  C   LIG A   1     -11.517   8.548 128.734  0.00  0.00    +0.046 A 
ATOM     17  C   LIG A   1     -10.782   7.485 129.258  0.00  0.00    +0.015 A 
BRANCH  15  18
ATOM     18  O   LIG A   1     -13.447  10.041 128.975  0.00  0.00    -0.495 OA
ATOM     19  C   LIG A   1     -13.591  11.131 129.879  0.00  0.00    +0.277 C 
ENDBRANCH  15  18
ENDBRANCH   4  12
BRANCH   8  20
ATOM     20  O   LIG A   1      -7.394   1.729 131.971  0.00  0.00    -0.490 OA
ATOM     21  C   LIG A   1      -6.273   2.035 131.145  0.00  0.00    +0.277 C 
ENDBRANCH   8  20
BRANCH   9  22
ATOM     22  O   LIG A   1      -6.385   2.173 134.389  0.00  0.00    -0.488 OA
ATOM     23  C   LIG A   1      -4.989   2.443 134.387  0.00  0.00    +0.277 C 
ENDBRANCH   9  22
BRANCH  10  24
ATOM     24  O   LIG A   1      -6.875   4.733 135.677  0.00  0.00    -0.491 OA
ATOM     25  C   LIG A   1      -5.957   5.815 135.573  0.00  0.00    +0.277 C 
ENDBRANCH  10  24
TORSDOF 5
ENDMDL
MODEL 9
REMARK VINA RESULT:      -6.4      7.597      8.612
REMARK  Name = NuBBE_1215
REMARK  9 active torsions:
REMARK  status: ('A' for Active; 'I' for Inactive)
REMARK    1  A    between atoms: C_4  and  C_18
REMARK    2  A    between atoms: C_8  and  O_9
REMARK    3  A    between atoms: O_9  and  C_10
REMARK    4  A    between atoms: C_11  and  O_12
REMARK    5  A    between atoms: O_12  and  C_13
REMARK    6  A    between atoms: C_14  and  O_15
REMARK    7  A    between atoms: O_15  and  C_16
REMARK    8  A    between atoms: C_21  and  O_24
REMARK    9  A    between atoms: O_24  and  C_25
REMARK                            x       y       z     vdW  Elec       q    Type
REMARK                         _______ _______ _______ _____ _____    ______ ____
ROOT
ATOM      1  O   LIG A   1      -6.845  -1.215 129.056  0.00  0.00    -0.287 OA
ATOM      2  C   LIG A   1      -7.533  -0.347 128.551  0.00  0.00    +0.197 A 
ATOM      3  C   LIG A   1      -7.875   0.851 129.349  0.00  0.00    +0.098 A 
ATOM      4  C   LIG A   1      -8.541   1.863 128.778  0.00  0.00    +0.139 A 
ATOM      5  O   LIG A   1      -8.909   1.873 127.449  0.00  0.00    -0.454 OA
ATOM      6  C   LIG A   1      -8.693   0.755 126.693  0.00  0.00    +0.146 A 
ATOM      7  C   LIG A   1      -8.049  -0.386 127.162  0.00  0.00    +0.109 A 
ATOM      8  C   LIG A   1      -7.939  -1.492 126.311  0.00  0.00    +0.179 A 
ATOM      9  C   LIG A   1      -8.462  -1.444 124.989  0.00  0.00    +0.204 A 
ATOM     10  C   LIG A   1      -9.107  -0.272 124.540  0.00  0.00    +0.169 A 
ATOM     11  C   LIG A   1      -9.218   0.817 125.403  0.00  0.00    +0.096 A 
ENDROOT
BRANCH   4  12
ATOM     12  C   LIG A   1      -8.947   3.083 129.501  0.00  0.00    +0.018 A 
ATOM     13  C   LIG A   1      -9.927   3.071 130.502  0.00  0.00    +0.015 A 
ATOM     14  C   LIG A   1     -10.337   4.260 131.114  0.00  0.00    +0.046 A 
ATOM     15  C   LIG A   1      -9.783   5.482 130.731  0.00  0.00    +0.120 A 
ATOM     16  C   LIG A   1      -8.805   5.505 129.740  0.00  0.00    +0.046 A 
ATOM     17  C   LIG A   1      -8.394   4.319 129.133  0.00  0.00    +0.015 A 
BRANCH  15  18
ATOM     18  O   LIG A   1     -10.273   6.583 131.381  0.00  0.00    -0.495 OA
ATOM     19  C   LIG A   1     -11.664   6.549 131.685  0.00  0.00    +0.277 C 
ENDBRANCH  15  18
ENDBRANCH   4  12
BRANCH   8  20
ATOM     20  O   LIG A   1      -7.503  -2.700 126.802  0.00  0.00    -0.490 OA
ATOM     21  C   LIG A   1      -8.553  -3.469 127.385  0.00  0.00    +0.277 C 
ENDBRANCH   8  20
BRANCH   9  22
ATOM     22  O   LIG A   1      -8.275  -2.598 124.262  0.00  0.00    -0.488 OA
ATOM     23  C   LIG A   1      -9.419  -3.333 123.845  0.00  0.00    +0.277 C 
ENDBRANCH   9  22
BRANCH  10  24
ATOM     24  O   LIG A   1      -9.721  -0.260 123.317  0.00  0.00    -0.491 OA
ATOM     25  C   LIG A   1      -9.992   1.008 122.730  0.00  0.00    +0.277 C 
ENDBRANCH  10  24
TORSDOF 5
ENDMDL
