MODEL 1
REMARK VINA RESULT:      -6.5      0.000      0.000
REMARK  Name = NuBBE_1538
REMARK  4 active torsions:
REMARK  status: ('A' for Active; 'I' for Inactive)
REMARK    1  A    between atoms: C_1  and  C_2
REMARK    2  A    between atoms: C_13  and  C_17
REMARK    3  A    between atoms: C_17  and  C_18
REMARK    4  A    between atoms: C_17  and  C_19
REMARK                            x       y       z     vdW  Elec       q    Type
REMARK                         _______ _______ _______ _____ _____    ______ ____
ROOT
ATOM      1  C   LIG A   1      -9.028  -2.788 123.851  0.00  0.00    +0.008 C 
ATOM      2  C   LIG A   1      -8.507  -3.432 125.138  0.00  0.00    -0.007 C 
ATOM      3  C   LIG A   1      -7.191  -2.827 125.579  0.00  0.00    -0.016 C 
ATOM      4  C   LIG A   1      -6.940  -2.556 127.057  0.00  0.00    +0.007 C 
ATOM      5  C   LIG A   1      -7.087  -1.407 126.089  0.00  0.00    +0.025 C 
ATOM      6  C   LIG A   1      -5.887  -0.821 125.476  0.00  0.00    -0.073 C 
ATOM      7  C   LIG A   1      -5.258   0.294 125.866  0.00  0.00    +0.008 C 
ATOM      8  C   LIG A   1      -5.402  -1.715 124.359  0.00  0.00    +0.031 C 
ATOM      9  C   LIG A   1      -5.978  -3.098 124.703  0.00  0.00    +0.012 C 
ATOM     10  C   LIG A   1      -8.021  -2.763 128.104  0.00  0.00    -0.004 C 
ATOM     11  C   LIG A   1      -9.049  -3.787 127.590  0.00  0.00    +0.004 C 
ATOM     12  C   LIG A   1      -9.589  -3.370 126.224  0.00  0.00    +0.004 C 
ENDROOT
BRANCH  10  13
ATOM     13  C   LIG A   1      -7.403  -3.159 129.479  0.00  0.00    -0.014 C 
ATOM     14  C   LIG A   1      -7.801  -2.211 130.615  0.00  0.00    +0.007 C 
ATOM     15  C   LIG A   1      -5.869  -3.200 129.397  0.00  0.00    +0.007 C 
ENDBRANCH  10  13
TORSDOF 1
ENDMDL
MODEL 2
REMARK VINA RESULT:      -6.4      1.516      3.038
REMARK  Name = NuBBE_1538
REMARK  4 active torsions:
REMARK  status: ('A' for Active; 'I' for Inactive)
REMARK    1  A    between atoms: C_1  and  C_2
REMARK    2  A    between atoms: C_13  and  C_17
REMARK    3  A    between atoms: C_17  and  C_18
REMARK    4  A    between atoms: C_17  and  C_19
REMARK                            x       y       z     vdW  Elec       q    Type
REMARK                         _______ _______ _______ _____ _____    ______ ____
ROOT
ATOM      1  C   LIG A   1      -6.766   1.262 124.180  0.00  0.00    +0.008 C 
ATOM      2  C   LIG A   1      -7.569   0.228 124.974  0.00  0.00    -0.007 C 
ATOM      3  C   LIG A   1      -7.226  -1.189 124.565  0.00  0.00    -0.016 C 
ATOM      4  C   LIG A   1      -7.095  -2.272 125.628  0.00  0.00    +0.007 C 
ATOM      5  C   LIG A   1      -5.879  -1.810 124.862  0.00  0.00    +0.025 C 
ATOM      6  C   LIG A   1      -5.468  -2.535 123.652  0.00  0.00    -0.073 C 
ATOM      7  C   LIG A   1      -4.503  -3.459 123.567  0.00  0.00    +0.008 C 
ATOM      8  C   LIG A   1      -6.360  -2.140 122.498  0.00  0.00    +0.031 C 
ATOM      9  C   LIG A   1      -7.643  -1.626 123.169  0.00  0.00    +0.012 C 
ATOM     10  C   LIG A   1      -7.181  -1.954 127.111  0.00  0.00    -0.004 C 
ATOM     11  C   LIG A   1      -7.981  -0.655 127.315  0.00  0.00    +0.004 C 
ATOM     12  C   LIG A   1      -7.392   0.478 126.477  0.00  0.00    +0.004 C 
ENDROOT
BRANCH  10  13
ATOM     13  C   LIG A   1      -7.762  -3.158 127.911  0.00  0.00    -0.014 C 
ATOM     14  C   LIG A   1      -9.060  -3.709 127.311  0.00  0.00    +0.007 C 
ATOM     15  C   LIG A   1      -8.031  -2.767 129.373  0.00  0.00    +0.007 C 
ENDBRANCH  10  13
TORSDOF 1
ENDMDL
MODEL 3
REMARK VINA RESULT:      -6.1      2.401      5.574
REMARK  Name = NuBBE_1538
REMARK  4 active torsions:
REMARK  status: ('A' for Active; 'I' for Inactive)
REMARK    1  A    between atoms: C_1  and  C_2
REMARK    2  A    between atoms: C_13  and  C_17
REMARK    3  A    between atoms: C_17  and  C_18
REMARK    4  A    between atoms: C_17  and  C_19
REMARK                            x       y       z     vdW  Elec       q    Type
REMARK                         _______ _______ _______ _____ _____    ______ ____
ROOT
ATOM      1  C   LIG A   1      -5.585  -1.567 127.192  0.00  0.00    +0.008 C 
ATOM      2  C   LIG A   1      -5.439  -0.600 126.013  0.00  0.00    -0.007 C 
ATOM      3  C   LIG A   1      -6.087  -1.141 124.756  0.00  0.00    -0.016 C 
ATOM      4  C   LIG A   1      -6.876  -0.205 123.849  0.00  0.00    +0.007 C 
ATOM      5  C   LIG A   1      -7.586  -1.290 124.621  0.00  0.00    +0.025 C 
ATOM      6  C   LIG A   1      -7.829  -2.591 123.983  0.00  0.00    -0.073 C 
ATOM      7  C   LIG A   1      -8.971  -2.997 123.414  0.00  0.00    +0.008 C 
ATOM      8  C   LIG A   1      -6.555  -3.404 123.991  0.00  0.00    +0.031 C 
ATOM      9  C   LIG A   1      -5.437  -2.356 124.112  0.00  0.00    +0.012 C 
ATOM     10  C   LIG A   1      -7.138   1.244 124.226  0.00  0.00    -0.004 C 
ATOM     11  C   LIG A   1      -6.058   1.725 125.211  0.00  0.00    +0.004 C 
ATOM     12  C   LIG A   1      -5.966   0.785 126.411  0.00  0.00    +0.004 C 
ENDROOT
BRANCH  10  13
ATOM     13  C   LIG A   1      -7.249   2.142 122.958  0.00  0.00    -0.014 C 
ATOM     14  C   LIG A   1      -6.350   3.382 123.018  0.00  0.00    +0.007 C 
ATOM     15  C   LIG A   1      -8.698   2.604 122.738  0.00  0.00    +0.007 C 
ENDBRANCH  10  13
TORSDOF 1
ENDMDL
MODEL 4
REMARK VINA RESULT:      -6.0      8.568     10.460
REMARK  Name = NuBBE_1538
REMARK  4 active torsions:
REMARK  status: ('A' for Active; 'I' for Inactive)
REMARK    1  A    between atoms: C_1  and  C_2
REMARK    2  A    between atoms: C_13  and  C_17
REMARK    3  A    between atoms: C_17  and  C_18
REMARK    4  A    between atoms: C_17  and  C_19
REMARK                            x       y       z     vdW  Elec       q    Type
REMARK                         _______ _______ _______ _____ _____    ______ ____
ROOT
ATOM      1  C   LIG A   1      -8.863   3.042 131.907  0.00  0.00    +0.008 C 
ATOM      2  C   LIG A   1      -9.705   4.311 131.748  0.00  0.00    -0.007 C 
ATOM      3  C   LIG A   1      -8.858   5.563 131.819  0.00  0.00    -0.016 C 
ATOM      4  C   LIG A   1      -9.140   6.722 130.871  0.00  0.00    +0.007 C 
ATOM      5  C   LIG A   1      -7.864   5.927 130.739  0.00  0.00    +0.025 C 
ATOM      6  C   LIG A   1      -6.647   6.393 131.419  0.00  0.00    -0.073 C 
ATOM      7  C   LIG A   1      -5.640   7.081 130.866  0.00  0.00    +0.008 C 
ATOM      8  C   LIG A   1      -6.724   6.046 132.888  0.00  0.00    +0.031 C 
ATOM      9  C   LIG A   1      -8.229   5.896 133.163  0.00  0.00    +0.012 C 
ATOM     10  C   LIG A   1     -10.176   6.619 129.765  0.00  0.00    -0.004 C 
ATOM     11  C   LIG A   1     -11.219   5.548 130.133  0.00  0.00    +0.004 C 
ATOM     12  C   LIG A   1     -10.537   4.221 130.462  0.00  0.00    +0.004 C 
ENDROOT
BRANCH  10  13
ATOM     13  C   LIG A   1     -10.812   8.008 129.460  0.00  0.00    -0.014 C 
ATOM     14  C   LIG A   1     -12.292   8.091 129.848  0.00  0.00    +0.007 C 
ATOM     15  C   LIG A   1     -10.681   8.354 127.968  0.00  0.00    +0.007 C 
ENDBRANCH  10  13
TORSDOF 1
ENDMDL
MODEL 5
REMARK VINA RESULT:      -6.0      2.531      4.974
REMARK  Name = NuBBE_1538
REMARK  4 active torsions:
REMARK  status: ('A' for Active; 'I' for Inactive)
REMARK    1  A    between atoms: C_1  and  C_2
REMARK    2  A    between atoms: C_13  and  C_17
REMARK    3  A    between atoms: C_17  and  C_18
REMARK    4  A    between atoms: C_17  and  C_19
REMARK                            x       y       z     vdW  Elec       q    Type
REMARK                         _______ _______ _______ _____ _____    ______ ____
ROOT
ATOM      1  C   LIG A   1      -6.953  -2.183 127.833  0.00  0.00    +0.008 C 
ATOM      2  C   LIG A   1      -7.114  -0.944 126.948  0.00  0.00    -0.007 C 
ATOM      3  C   LIG A   1      -7.535  -1.308 125.540  0.00  0.00    -0.016 C 
ATOM      4  C   LIG A   1      -8.574  -0.458 124.817  0.00  0.00    +0.007 C 
ATOM      5  C   LIG A   1      -8.902  -1.873 125.227  0.00  0.00    +0.025 C 
ATOM      6  C   LIG A   1      -8.701  -2.969 124.269  0.00  0.00    -0.073 C 
ATOM      7  C   LIG A   1      -9.641  -3.544 123.509  0.00  0.00    +0.008 C 
ATOM      8  C   LIG A   1      -7.232  -3.318 124.200  0.00  0.00    +0.031 C 
ATOM      9  C   LIG A   1      -6.517  -2.046 124.684  0.00  0.00    +0.012 C 
ATOM     10  C   LIG A   1      -9.298   0.683 125.511  0.00  0.00    -0.004 C 
ATOM     11  C   LIG A   1      -8.445   1.198 126.684  0.00  0.00    +0.004 C 
ATOM     12  C   LIG A   1      -8.067   0.052 127.620  0.00  0.00    +0.004 C 
ENDROOT
BRANCH  10  13
ATOM     13  C   LIG A   1      -9.678   1.804 124.498  0.00  0.00    -0.014 C 
ATOM     14  C   LIG A   1      -9.768   1.304 123.052  0.00  0.00    +0.007 C 
ATOM     15  C   LIG A   1      -8.663   2.957 124.549  0.00  0.00    +0.007 C 
ENDBRANCH  10  13
TORSDOF 1
ENDMDL
MODEL 6
REMARK VINA RESULT:      -5.9      1.693      4.489
REMARK  Name = NuBBE_1538
REMARK  4 active torsions:
REMARK  status: ('A' for Active; 'I' for Inactive)
REMARK    1  A    between atoms: C_1  and  C_2
REMARK    2  A    between atoms: C_13  and  C_17
REMARK    3  A    between atoms: C_17  and  C_18
REMARK    4  A    between atoms: C_17  and  C_19
REMARK                            x       y       z     vdW  Elec       q    Type
REMARK                         _______ _______ _______ _____ _____    ______ ____
ROOT
ATOM      1  C   LIG A   1      -8.081   1.166 128.162  0.00  0.00    +0.008 C 
ATOM      2  C   LIG A   1      -7.850   0.264 126.946  0.00  0.00    -0.007 C 
ATOM      3  C   LIG A   1      -7.164  -1.030 127.325  0.00  0.00    -0.016 C 
ATOM      4  C   LIG A   1      -7.608  -2.339 126.683  0.00  0.00    +0.007 C 
ATOM      5  C   LIG A   1      -7.850  -2.095 128.152  0.00  0.00    +0.025 C 
ATOM      6  C   LIG A   1      -6.867  -2.570 129.136  0.00  0.00    -0.073 C 
ATOM      7  C   LIG A   1      -6.946  -3.692 129.861  0.00  0.00    +0.008 C 
ATOM      8  C   LIG A   1      -5.684  -1.630 129.164  0.00  0.00    +0.031 C 
ATOM      9  C   LIG A   1      -5.720  -0.935 127.792  0.00  0.00    +0.012 C 
ATOM     10  C   LIG A   1      -8.807  -2.408 125.752  0.00  0.00    -0.004 C 
ATOM     11  C   LIG A   1      -9.053  -1.025 125.123  0.00  0.00    +0.004 C 
ATOM     12  C   LIG A   1      -9.176   0.046 126.205  0.00  0.00    +0.004 C 
ENDROOT
BRANCH  10  13
ATOM     13  C   LIG A   1      -8.630  -3.536 124.692  0.00  0.00    -0.014 C 
ATOM     14  C   LIG A   1      -7.173  -3.735 124.261  0.00  0.00    +0.007 C 
ATOM     15  C   LIG A   1      -9.472  -3.246 123.439  0.00  0.00    +0.007 C 
ENDBRANCH  10  13
TORSDOF 1
ENDMDL
MODEL 7
REMARK VINA RESULT:      -5.9      1.470      2.744
REMARK  Name = NuBBE_1538
REMARK  4 active torsions:
REMARK  status: ('A' for Active; 'I' for Inactive)
REMARK    1  A    between atoms: C_1  and  C_2
REMARK    2  A    between atoms: C_13  and  C_17
REMARK    3  A    between atoms: C_17  and  C_18
REMARK    4  A    between atoms: C_17  and  C_19
REMARK                            x       y       z     vdW  Elec       q    Type
REMARK                         _______ _______ _______ _____ _____    ______ ____
ROOT
ATOM      1  C   LIG A   1      -8.898  -0.104 124.943  0.00  0.00    +0.008 C 
ATOM      2  C   LIG A   1      -8.582  -0.844 126.246  0.00  0.00    -0.007 C 
ATOM      3  C   LIG A   1      -7.769  -2.097 126.000  0.00  0.00    -0.016 C 
ATOM      4  C   LIG A   1      -6.629  -2.457 126.946  0.00  0.00    +0.007 C 
ATOM      5  C   LIG A   1      -6.334  -2.047 125.524  0.00  0.00    +0.025 C 
ATOM      6  C   LIG A   1      -6.193  -3.080 124.488  0.00  0.00    -0.073 C 
ATOM      7  C   LIG A   1      -5.045  -3.578 124.012  0.00  0.00    +0.008 C 
ATOM      8  C   LIG A   1      -7.561  -3.571 124.074  0.00  0.00    +0.031 C 
ATOM      9  C   LIG A   1      -8.462  -3.239 125.274  0.00  0.00    +0.012 C 
ATOM     10  C   LIG A   1      -6.199  -1.531 128.071  0.00  0.00    -0.004 C 
ATOM     11  C   LIG A   1      -7.372  -0.615 128.463  0.00  0.00    +0.004 C 
ATOM     12  C   LIG A   1      -7.916   0.118 127.238  0.00  0.00    +0.004 C 
ENDROOT
BRANCH  10  13
ATOM     13  C   LIG A   1      -5.630  -2.339 129.275  0.00  0.00    -0.014 C 
ATOM     14  C   LIG A   1      -4.274  -2.988 128.979  0.00  0.00    +0.007 C 
ATOM     15  C   LIG A   1      -6.610  -3.440 129.709  0.00  0.00    +0.007 C 
ENDBRANCH  10  13
TORSDOF 1
ENDMDL
MODEL 8
REMARK VINA RESULT:      -5.7      7.201     10.338
REMARK  Name = NuBBE_1538
REMARK  4 active torsions:
REMARK  status: ('A' for Active; 'I' for Inactive)
REMARK    1  A    between atoms: C_1  and  C_2
REMARK    2  A    between atoms: C_13  and  C_17
REMARK    3  A    between atoms: C_17  and  C_18
REMARK    4  A    between atoms: C_17  and  C_19
REMARK                            x       y       z     vdW  Elec       q    Type
REMARK                         _______ _______ _______ _____ _____    ______ ____
ROOT
ATOM      1  C   LIG A   1      -3.447   7.656 131.909  0.00  0.00    +0.008 C 
ATOM      2  C   LIG A   1      -2.814   7.074 130.642  0.00  0.00    -0.007 C 
ATOM      3  C   LIG A   1      -2.612   5.577 130.749  0.00  0.00    -0.016 C 
ATOM      4  C   LIG A   1      -2.901   4.687 129.546  0.00  0.00    +0.007 C 
ATOM      5  C   LIG A   1      -3.772   4.607 130.776  0.00  0.00    +0.025 C 
ATOM      6  C   LIG A   1      -3.470   3.610 131.813  0.00  0.00    -0.073 C 
ATOM      7  C   LIG A   1      -4.066   2.422 131.972  0.00  0.00    +0.008 C 
ATOM      8  C   LIG A   1      -2.310   4.091 132.653  0.00  0.00    +0.031 C 
ATOM      9  C   LIG A   1      -1.573   5.090 131.746  0.00  0.00    +0.012 C 
ATOM     10  C   LIG A   1      -3.503   5.240 128.266  0.00  0.00    -0.004 C 
ATOM     11  C   LIG A   1      -3.190   6.743 128.156  0.00  0.00    +0.004 C 
ATOM     12  C   LIG A   1      -3.640   7.482 129.416  0.00  0.00    +0.004 C 
ENDROOT
BRANCH  10  13
ATOM     13  C   LIG A   1      -3.027   4.428 127.025  0.00  0.00    -0.014 C 
ATOM     14  C   LIG A   1      -4.179   3.982 126.118  0.00  0.00    +0.007 C 
ATOM     15  C   LIG A   1      -2.239   3.180 127.456  0.00  0.00    +0.007 C 
ENDBRANCH  10  13
TORSDOF 1
ENDMDL
MODEL 9
REMARK VINA RESULT:      -5.7      2.659      4.858
REMARK  Name = NuBBE_1538
REMARK  4 active torsions:
REMARK  status: ('A' for Active; 'I' for Inactive)
REMARK    1  A    between atoms: C_1  and  C_2
REMARK    2  A    between atoms: C_13  and  C_17
REMARK    3  A    between atoms: C_17  and  C_18
REMARK    4  A    between atoms: C_17  and  C_19
REMARK                            x       y       z     vdW  Elec       q    Type
REMARK                         _______ _______ _______ _____ _____    ______ ____
ROOT
ATOM      1  C   LIG A   1      -8.321   1.184 127.426  0.00  0.00    +0.008 C 
ATOM      2  C   LIG A   1      -8.241  -0.048 126.521  0.00  0.00    -0.007 C 
ATOM      3  C   LIG A   1      -8.147   0.331 125.058  0.00  0.00    -0.016 C 
ATOM      4  C   LIG A   1      -7.209  -0.438 124.136  0.00  0.00    +0.007 C 
ATOM      5  C   LIG A   1      -6.923   1.004 124.477  0.00  0.00    +0.025 C 
ATOM      6  C   LIG A   1      -7.405   2.067 123.584  0.00  0.00    -0.073 C 
ATOM      7  C   LIG A   1      -6.689   2.708 122.652  0.00  0.00    +0.008 C 
ATOM      8  C   LIG A   1      -8.881   2.293 123.818  0.00  0.00    +0.031 C 
ATOM      9  C   LIG A   1      -9.374   0.972 124.430  0.00  0.00    +0.012 C 
ATOM     10  C   LIG A   1      -6.267  -1.508 124.662  0.00  0.00    -0.004 C 
ATOM     11  C   LIG A   1      -6.818  -2.077 125.982  0.00  0.00    +0.004 C 
ATOM     12  C   LIG A   1      -7.092  -0.954 126.981  0.00  0.00    +0.004 C 
ENDROOT
BRANCH  10  13
ATOM     13  C   LIG A   1      -6.008  -2.606 123.588  0.00  0.00    -0.014 C 
ATOM     14  C   LIG A   1      -4.603  -3.211 123.671  0.00  0.00    +0.007 C 
ATOM     15  C   LIG A   1      -6.212  -2.045 122.171  0.00  0.00    +0.007 C 
ENDBRANCH  10  13
TORSDOF 1
ENDMDL
