MODEL 1
REMARK VINA RESULT:      -6.9      0.000      0.000
REMARK  Name = NuBBE_2213
REMARK  4 active torsions:
REMARK  status: ('A' for Active; 'I' for Inactive)
REMARK    1  A    between atoms: C_1  and  O_3
REMARK    2  A    between atoms: C_1  and  C_4
REMARK    3  A    between atoms: C_10  and  C_13
REMARK    4  A    between atoms: C_14  and  O_17
REMARK                            x       y       z     vdW  Elec       q    Type
REMARK                         _______ _______ _______ _____ _____    ______ ____
ROOT
ATOM      1  C   LIG A   1     -11.105   7.467 127.888  0.00  0.00    +0.063 A 
ATOM      2  C   LIG A   1     -10.724   6.814 129.074  0.00  0.00    -0.012 A 
ATOM      3  C   LIG A   1     -11.428   7.102 130.257  0.00  0.00    +0.104 A 
ATOM      4  C   LIG A   1     -11.095   6.394 131.519  0.00  0.00    +0.343 C 
ATOM      5  O   LIG A   1     -11.832   6.497 132.494  0.00  0.00    -0.245 OA
ATOM      6  O   LIG A   1      -9.977   5.630 131.538  0.00  0.00    -0.458 OA
ATOM      7  C   LIG A   1      -8.988   5.740 130.496  0.00  0.00    +0.178 C 
ATOM      8  C   LIG A   1      -9.649   5.763 129.121  0.00  0.00    +0.081 C 
ATOM      9  C   LIG A   1      -8.078   6.936 130.768  0.00  0.00    +0.052 C 
ATOM     10  C   LIG A   1     -12.475   8.039 130.241  0.00  0.00    +0.131 A 
ATOM     11  C   LIG A   1     -12.818   8.702 129.066  0.00  0.00    +0.047 A 
ATOM     12  C   LIG A   1     -12.135   8.418 127.887  0.00  0.00    +0.019 A 
ENDROOT
BRANCH   1  13
ATOM     13  C   LIG A   1     -10.426   7.189 126.606  0.00  0.00    +0.337 C 
ATOM     14  O   LIG A   1      -9.660   6.258 126.439  0.00  0.00    -0.245 OA
BRANCH  13  15
ATOM     15  O   LIG A   1     -10.788   8.064 125.646  0.00  0.00    -0.477 OA
ATOM     16  H   LIG A   1     -11.121   8.922 125.974  0.00  0.00    +0.295 HD
ENDBRANCH  13  15
ENDBRANCH   1  13
BRANCH  10  17
ATOM     17  O   LIG A   1     -13.218   8.360 131.344  0.00  0.00    -0.506 OA
ATOM     18  H   LIG A   1     -13.979   8.919 131.066  0.00  0.00    +0.292 HD
ENDBRANCH  10  17
TORSDOF 3
ENDMDL
MODEL 2
REMARK VINA RESULT:      -6.8      1.717      3.759
REMARK  Name = NuBBE_2213
REMARK  4 active torsions:
REMARK  status: ('A' for Active; 'I' for Inactive)
REMARK    1  A    between atoms: C_1  and  O_3
REMARK    2  A    between atoms: C_1  and  C_4
REMARK    3  A    between atoms: C_10  and  C_13
REMARK    4  A    between atoms: C_14  and  O_17
REMARK                            x       y       z     vdW  Elec       q    Type
REMARK                         _______ _______ _______ _____ _____    ______ ____
ROOT
ATOM      1  C   LIG A   1     -10.017   5.815 130.013  0.00  0.00    +0.063 A 
ATOM      2  C   LIG A   1     -10.651   6.873 129.338  0.00  0.00    -0.012 A 
ATOM      3  C   LIG A   1     -11.713   7.538 129.975  0.00  0.00    +0.104 A 
ATOM      4  C   LIG A   1     -12.373   8.697 129.321  0.00  0.00    +0.343 C 
ATOM      5  O   LIG A   1     -13.157   9.396 129.955  0.00  0.00    -0.245 OA
ATOM      6  O   LIG A   1     -12.060   8.954 128.029  0.00  0.00    -0.458 OA
ATOM      7  C   LIG A   1     -11.366   7.978 127.227  0.00  0.00    +0.178 C 
ATOM      8  C   LIG A   1     -10.193   7.379 127.997  0.00  0.00    +0.081 C 
ATOM      9  C   LIG A   1     -12.356   6.943 126.697  0.00  0.00    +0.052 C 
ATOM     10  C   LIG A   1     -12.134   7.129 131.252  0.00  0.00    +0.131 A 
ATOM     11  C   LIG A   1     -11.518   6.057 131.893  0.00  0.00    +0.047 A 
ATOM     12  C   LIG A   1     -10.459   5.398 131.277  0.00  0.00    +0.019 A 
ENDROOT
BRANCH   1  13
ATOM     13  C   LIG A   1      -8.876   5.093 129.413  0.00  0.00    +0.337 C 
ATOM     14  O   LIG A   1      -7.733   5.508 129.436  0.00  0.00    -0.245 OA
BRANCH  13  15
ATOM     15  O   LIG A   1      -9.254   3.915 128.877  0.00  0.00    -0.477 OA
ATOM     16  H   LIG A   1      -8.661   3.164 129.071  0.00  0.00    +0.295 HD
ENDBRANCH  13  15
ENDBRANCH   1  13
BRANCH  10  17
ATOM     17  O   LIG A   1     -13.146   7.736 131.944  0.00  0.00    -0.506 OA
ATOM     18  H   LIG A   1     -12.932   7.719 132.905  0.00  0.00    +0.292 HD
ENDBRANCH  10  17
TORSDOF 3
ENDMDL
MODEL 3
REMARK VINA RESULT:      -6.7     10.560     11.847
REMARK  Name = NuBBE_2213
REMARK  4 active torsions:
REMARK  status: ('A' for Active; 'I' for Inactive)
REMARK    1  A    between atoms: C_1  and  O_3
REMARK    2  A    between atoms: C_1  and  C_4
REMARK    3  A    between atoms: C_10  and  C_13
REMARK    4  A    between atoms: C_14  and  O_17
REMARK                            x       y       z     vdW  Elec       q    Type
REMARK                         _______ _______ _______ _____ _____    ______ ____
ROOT
ATOM      1  C   LIG A   1      -6.450  -2.349 127.170  0.00  0.00    +0.063 A 
ATOM      2  C   LIG A   1      -6.409  -2.314 125.765  0.00  0.00    -0.012 A 
ATOM      3  C   LIG A   1      -7.589  -2.593 125.051  0.00  0.00    +0.104 A 
ATOM      4  C   LIG A   1      -7.605  -2.512 123.568  0.00  0.00    +0.343 C 
ATOM      5  O   LIG A   1      -8.670  -2.558 122.962  0.00  0.00    -0.245 OA
ATOM      6  O   LIG A   1      -6.418  -2.367 122.932  0.00  0.00    -0.458 OA
ATOM      7  C   LIG A   1      -5.174  -2.593 123.624  0.00  0.00    +0.178 C 
ATOM      8  C   LIG A   1      -5.183  -1.916 124.990  0.00  0.00    +0.081 C 
ATOM      9  C   LIG A   1      -4.873  -4.090 123.674  0.00  0.00    +0.052 C 
ATOM     10  C   LIG A   1      -8.769  -2.917 125.742  0.00  0.00    +0.131 A 
ATOM     11  C   LIG A   1      -8.783  -2.980 127.133  0.00  0.00    +0.047 A 
ATOM     12  C   LIG A   1      -7.625  -2.696 127.851  0.00  0.00    +0.019 A 
ENDROOT
BRANCH   1  13
ATOM     13  C   LIG A   1      -5.254  -2.038 127.981  0.00  0.00    +0.337 C 
ATOM     14  O   LIG A   1      -4.527  -2.889 128.459  0.00  0.00    -0.245 OA
BRANCH  13  15
ATOM     15  O   LIG A   1      -5.055  -0.709 128.091  0.00  0.00    -0.477 OA
ATOM     16  H   LIG A   1      -5.679  -0.245 128.681  0.00  0.00    +0.295 HD
ENDBRANCH  13  15
ENDBRANCH   1  13
BRANCH  10  17
ATOM     17  O   LIG A   1      -9.959  -3.182 125.121  0.00  0.00    -0.506 OA
ATOM     18  H   LIG A   1     -10.697  -2.928 125.722  0.00  0.00    +0.292 HD
ENDBRANCH  10  17
TORSDOF 3
ENDMDL
MODEL 4
REMARK VINA RESULT:      -6.6      1.348      3.970
REMARK  Name = NuBBE_2213
REMARK  4 active torsions:
REMARK  status: ('A' for Active; 'I' for Inactive)
REMARK    1  A    between atoms: C_1  and  O_3
REMARK    2  A    between atoms: C_1  and  C_4
REMARK    3  A    between atoms: C_10  and  C_13
REMARK    4  A    between atoms: C_14  and  O_17
REMARK                            x       y       z     vdW  Elec       q    Type
REMARK                         _______ _______ _______ _____ _____    ______ ____
ROOT
ATOM      1  C   LIG A   1     -12.593   7.913 129.684  0.00  0.00    +0.063 A 
ATOM      2  C   LIG A   1     -11.363   7.262 129.483  0.00  0.00    -0.012 A 
ATOM      3  C   LIG A   1     -11.010   6.878 128.176  0.00  0.00    +0.104 A 
ATOM      4  C   LIG A   1      -9.696   6.238 127.911  0.00  0.00    +0.343 C 
ATOM      5  O   LIG A   1      -9.309   6.088 126.757  0.00  0.00    -0.245 OA
ATOM      6  O   LIG A   1      -8.954   5.857 128.977  0.00  0.00    -0.458 OA
ATOM      7  C   LIG A   1      -9.534   5.784 130.295  0.00  0.00    +0.178 C 
ATOM      8  C   LIG A   1     -10.371   7.026 130.588  0.00  0.00    +0.081 C 
ATOM      9  C   LIG A   1     -10.294   4.470 130.456  0.00  0.00    +0.052 C 
ATOM     10  C   LIG A   1     -11.888   7.131 127.109  0.00  0.00    +0.131 A 
ATOM     11  C   LIG A   1     -13.117   7.746 127.329  0.00  0.00    +0.047 A 
ATOM     12  C   LIG A   1     -13.473   8.140 128.616  0.00  0.00    +0.019 A 
ENDROOT
BRANCH   1  13
ATOM     13  C   LIG A   1     -13.011   8.368 131.026  0.00  0.00    +0.337 C 
ATOM     14  O   LIG A   1     -13.240   7.611 131.950  0.00  0.00    -0.245 OA
BRANCH  13  15
ATOM     15  O   LIG A   1     -13.069   9.713 131.104  0.00  0.00    -0.477 OA
ATOM     16  H   LIG A   1     -12.203  10.161 131.166  0.00  0.00    +0.295 HD
ENDBRANCH  13  15
ENDBRANCH   1  13
BRANCH  10  17
ATOM     17  O   LIG A   1     -11.611   6.805 125.809  0.00  0.00    -0.506 OA
ATOM     18  H   LIG A   1     -11.333   5.862 125.767  0.00  0.00    +0.292 HD
ENDBRANCH  10  17
TORSDOF 3
ENDMDL
MODEL 5
REMARK VINA RESULT:      -6.3      7.568      9.096
REMARK  Name = NuBBE_2213
REMARK  4 active torsions:
REMARK  status: ('A' for Active; 'I' for Inactive)
REMARK    1  A    between atoms: C_1  and  O_3
REMARK    2  A    between atoms: C_1  and  C_4
REMARK    3  A    between atoms: C_10  and  C_13
REMARK    4  A    between atoms: C_14  and  O_17
REMARK                            x       y       z     vdW  Elec       q    Type
REMARK                         _______ _______ _______ _____ _____    ______ ____
ROOT
ATOM      1  C   LIG A   1      -8.988  -1.258 124.055  0.00  0.00    +0.063 A 
ATOM      2  C   LIG A   1      -8.692  -0.818 125.357  0.00  0.00    -0.012 A 
ATOM      3  C   LIG A   1      -8.848   0.547 125.659  0.00  0.00    +0.104 A 
ATOM      4  C   LIG A   1      -8.600   1.044 127.036  0.00  0.00    +0.343 C 
ATOM      5  O   LIG A   1      -8.926   2.185 127.345  0.00  0.00    -0.245 OA
ATOM      6  O   LIG A   1      -8.031   0.192 127.921  0.00  0.00    -0.458 OA
ATOM      7  C   LIG A   1      -7.407  -1.030 127.477  0.00  0.00    +0.178 C 
ATOM      8  C   LIG A   1      -8.291  -1.753 126.466  0.00  0.00    +0.081 C 
ATOM      9  C   LIG A   1      -5.995  -0.738 126.972  0.00  0.00    +0.052 C 
ATOM     10  C   LIG A   1      -9.273   1.442 124.663  0.00  0.00    +0.131 A 
ATOM     11  C   LIG A   1      -9.530   0.997 123.369  0.00  0.00    +0.047 A 
ATOM     12  C   LIG A   1      -9.389  -0.353 123.061  0.00  0.00    +0.019 A 
ENDROOT
BRANCH   1  13
ATOM     13  C   LIG A   1      -8.874  -2.682 123.680  0.00  0.00    +0.337 C 
ATOM     14  O   LIG A   1      -7.811  -3.263 123.566  0.00  0.00    -0.245 OA
BRANCH  13  15
ATOM     15  O   LIG A   1     -10.082  -3.257 123.518  0.00  0.00    -0.477 OA
ATOM     16  H   LIG A   1     -10.809  -2.639 123.306  0.00  0.00    +0.295 HD
ENDBRANCH  13  15
ENDBRANCH   1  13
BRANCH  10  17
ATOM     17  O   LIG A   1      -9.466   2.779 124.882  0.00  0.00    -0.506 OA
ATOM     18  H   LIG A   1      -8.681   3.143 125.351  0.00  0.00    +0.292 HD
ENDBRANCH  10  17
TORSDOF 3
ENDMDL
MODEL 6
REMARK VINA RESULT:      -6.2      8.502     10.427
REMARK  Name = NuBBE_2213
REMARK  4 active torsions:
REMARK  status: ('A' for Active; 'I' for Inactive)
REMARK    1  A    between atoms: C_1  and  O_3
REMARK    2  A    between atoms: C_1  and  C_4
REMARK    3  A    between atoms: C_10  and  C_13
REMARK    4  A    between atoms: C_14  and  O_17
REMARK                            x       y       z     vdW  Elec       q    Type
REMARK                         _______ _______ _______ _____ _____    ______ ____
ROOT
ATOM      1  C   LIG A   1      -7.785  -2.391 128.592  0.00  0.00    +0.063 A 
ATOM      2  C   LIG A   1      -7.790  -1.382 127.612  0.00  0.00    -0.012 A 
ATOM      3  C   LIG A   1      -8.515  -1.600 126.426  0.00  0.00    +0.104 A 
ATOM      4  C   LIG A   1      -8.594  -0.539 125.389  0.00  0.00    +0.343 C 
ATOM      5  O   LIG A   1      -9.381  -0.650 124.456  0.00  0.00    -0.245 OA
ATOM      6  O   LIG A   1      -7.789   0.541 125.530  0.00  0.00    -0.458 OA
ATOM      7  C   LIG A   1      -6.688   0.528 126.461  0.00  0.00    +0.178 C 
ATOM      8  C   LIG A   1      -7.121  -0.049 127.805  0.00  0.00    +0.081 C 
ATOM      9  C   LIG A   1      -5.490  -0.183 125.836  0.00  0.00    +0.052 C 
ATOM     10  C   LIG A   1      -9.199  -2.812 126.232  0.00  0.00    +0.131 A 
ATOM     11  C   LIG A   1      -9.156  -3.814 127.198  0.00  0.00    +0.047 A 
ATOM     12  C   LIG A   1      -8.450  -3.607 128.380  0.00  0.00    +0.019 A 
ENDROOT
BRANCH   1  13
ATOM     13  C   LIG A   1      -7.068  -2.215 129.871  0.00  0.00    +0.337 C 
ATOM     14  O   LIG A   1      -5.894  -2.494 130.027  0.00  0.00    -0.245 OA
BRANCH  13  15
ATOM     15  O   LIG A   1      -7.861  -1.679 130.821  0.00  0.00    -0.477 OA
ATOM     16  H   LIG A   1      -8.413  -0.930 130.524  0.00  0.00    +0.295 HD
ENDBRANCH  13  15
ENDBRANCH   1  13
BRANCH  10  17
ATOM     17  O   LIG A   1      -9.940  -3.092 125.117  0.00  0.00    -0.506 OA
ATOM     18  H   LIG A   1     -10.510  -2.317 124.909  0.00  0.00    +0.292 HD
ENDBRANCH  10  17
TORSDOF 3
ENDMDL
MODEL 7
REMARK VINA RESULT:      -6.1      8.103     10.166
REMARK  Name = NuBBE_2213
REMARK  4 active torsions:
REMARK  status: ('A' for Active; 'I' for Inactive)
REMARK    1  A    between atoms: C_1  and  O_3
REMARK    2  A    between atoms: C_1  and  C_4
REMARK    3  A    between atoms: C_10  and  C_13
REMARK    4  A    between atoms: C_14  and  O_17
REMARK                            x       y       z     vdW  Elec       q    Type
REMARK                         _______ _______ _______ _____ _____    ______ ____
ROOT
ATOM      1  C   LIG A   1      -6.889  -0.029 126.160  0.00  0.00    +0.063 A 
ATOM      2  C   LIG A   1      -7.302  -0.719 125.006  0.00  0.00    -0.012 A 
ATOM      3  C   LIG A   1      -8.568  -0.430 124.466  0.00  0.00    +0.104 A 
ATOM      4  C   LIG A   1      -9.020  -1.095 123.217  0.00  0.00    +0.343 C 
ATOM      5  O   LIG A   1     -10.028  -0.700 122.642  0.00  0.00    -0.245 OA
ATOM      6  O   LIG A   1      -8.273  -2.119 122.742  0.00  0.00    -0.458 OA
ATOM      7  C   LIG A   1      -7.266  -2.745 123.563  0.00  0.00    +0.178 C 
ATOM      8  C   LIG A   1      -6.420  -1.696 124.277  0.00  0.00    +0.081 C 
ATOM      9  C   LIG A   1      -7.918  -3.760 124.499  0.00  0.00    +0.052 C 
ATOM     10  C   LIG A   1      -9.398   0.517 125.089  0.00  0.00    +0.131 A 
ATOM     11  C   LIG A   1      -8.989   1.167 126.250  0.00  0.00    +0.047 A 
ATOM     12  C   LIG A   1      -7.734   0.897 126.789  0.00  0.00    +0.019 A 
ENDROOT
BRANCH   1  13
ATOM     13  C   LIG A   1      -5.560  -0.263 126.761  0.00  0.00    +0.337 C 
ATOM     14  O   LIG A   1      -5.327  -1.164 127.545  0.00  0.00    -0.245 OA
BRANCH  13  15
ATOM     15  O   LIG A   1      -4.642   0.614 126.308  0.00  0.00    -0.477 OA
ATOM     16  H   LIG A   1      -3.970   0.236 125.709  0.00  0.00    +0.295 HD
ENDBRANCH  13  15
ENDBRANCH   1  13
BRANCH  10  17
ATOM     17  O   LIG A   1     -10.634   0.866 124.616  0.00  0.00    -0.506 OA
ATOM     18  H   LIG A   1     -10.876   0.262 123.877  0.00  0.00    +0.292 HD
ENDBRANCH  10  17
TORSDOF 3
ENDMDL
MODEL 8
REMARK VINA RESULT:      -6.1      8.234     10.019
REMARK  Name = NuBBE_2213
REMARK  4 active torsions:
REMARK  status: ('A' for Active; 'I' for Inactive)
REMARK    1  A    between atoms: C_1  and  O_3
REMARK    2  A    between atoms: C_1  and  C_4
REMARK    3  A    between atoms: C_10  and  C_13
REMARK    4  A    between atoms: C_14  and  O_17
REMARK                            x       y       z     vdW  Elec       q    Type
REMARK                         _______ _______ _______ _____ _____    ______ ____
ROOT
ATOM      1  C   LIG A   1      -8.453  -2.999 126.511  0.00  0.00    +0.063 A 
ATOM      2  C   LIG A   1      -7.862  -1.758 126.809  0.00  0.00    -0.012 A 
ATOM      3  C   LIG A   1      -7.625  -1.431 128.157  0.00  0.00    +0.104 A 
ATOM      4  C   LIG A   1      -6.951  -0.157 128.513  0.00  0.00    +0.343 C 
ATOM      5  O   LIG A   1      -6.568   0.036 129.662  0.00  0.00    -0.245 OA
ATOM      6  O   LIG A   1      -6.764   0.754 127.528  0.00  0.00    -0.458 OA
ATOM      7  C   LIG A   1      -7.457   0.636 126.269  0.00  0.00    +0.178 C 
ATOM      8  C   LIG A   1      -7.397  -0.797 125.750  0.00  0.00    +0.081 C 
ATOM      9  C   LIG A   1      -8.873   1.191 126.403  0.00  0.00    +0.052 C 
ATOM     10  C   LIG A   1      -7.996  -2.328 129.173  0.00  0.00    +0.131 A 
ATOM     11  C   LIG A   1      -8.612  -3.538 128.863  0.00  0.00    +0.047 A 
ATOM     12  C   LIG A   1      -8.842  -3.877 127.533  0.00  0.00    +0.019 A 
ENDROOT
BRANCH   1  13
ATOM     13  C   LIG A   1      -8.702  -3.416 125.116  0.00  0.00    +0.337 C 
ATOM     14  O   LIG A   1      -7.906  -4.055 124.454  0.00  0.00    -0.245 OA
BRANCH  13  15
ATOM     15  O   LIG A   1      -9.922  -3.034 124.689  0.00  0.00    -0.477 OA
ATOM     16  H   LIG A   1     -10.430  -3.725 124.220  0.00  0.00    +0.295 HD
ENDBRANCH  13  15
ENDBRANCH   1  13
BRANCH  10  17
ATOM     17  O   LIG A   1      -7.783  -2.092 130.504  0.00  0.00    -0.506 OA
ATOM     18  H   LIG A   1      -6.883  -2.408 130.745  0.00  0.00    +0.292 HD
ENDBRANCH  10  17
TORSDOF 3
ENDMDL
MODEL 9
REMARK VINA RESULT:      -6.1      7.717      9.748
REMARK  Name = NuBBE_2213
REMARK  4 active torsions:
REMARK  status: ('A' for Active; 'I' for Inactive)
REMARK    1  A    between atoms: C_1  and  O_3
REMARK    2  A    between atoms: C_1  and  C_4
REMARK    3  A    between atoms: C_10  and  C_13
REMARK    4  A    between atoms: C_14  and  O_17
REMARK                            x       y       z     vdW  Elec       q    Type
REMARK                         _______ _______ _______ _____ _____    ______ ____
ROOT
ATOM      1  C   LIG A   1      -8.633   1.462 123.674  0.00  0.00    +0.063 A 
ATOM      2  C   LIG A   1      -7.562   0.678 124.138  0.00  0.00    -0.012 A 
ATOM      3  C   LIG A   1      -7.554  -0.696 123.837  0.00  0.00    +0.104 A 
ATOM      4  C   LIG A   1      -6.415  -1.550 124.260  0.00  0.00    +0.343 C 
ATOM      5  O   LIG A   1      -6.312  -2.694 123.829  0.00  0.00    -0.245 OA
ATOM      6  O   LIG A   1      -5.505  -1.013 125.107  0.00  0.00    -0.458 OA
ATOM      7  C   LIG A   1      -5.783   0.211 125.814  0.00  0.00    +0.178 C 
ATOM      8  C   LIG A   1      -6.385   1.254 124.876  0.00  0.00    +0.081 C 
ATOM      9  C   LIG A   1      -6.637  -0.083 127.045  0.00  0.00    +0.052 C 
ATOM     10  C   LIG A   1      -8.611  -1.261 123.103  0.00  0.00    +0.131 A 
ATOM     11  C   LIG A   1      -9.680  -0.477 122.679  0.00  0.00    +0.047 A 
ATOM     12  C   LIG A   1      -9.695   0.886 122.962  0.00  0.00    +0.019 A 
ENDROOT
BRANCH   1  13
ATOM     13  C   LIG A   1      -8.688   2.916 123.930  0.00  0.00    +0.337 C 
ATOM     14  O   LIG A   1      -9.013   3.397 125.000  0.00  0.00    -0.245 OA
BRANCH  13  15
ATOM     15  O   LIG A   1      -8.302   3.631 122.854  0.00  0.00    -0.477 OA
ATOM     16  H   LIG A   1      -7.474   3.328 122.434  0.00  0.00    +0.295 HD
ENDBRANCH  13  15
ENDBRANCH   1  13
BRANCH  10  17
ATOM     17  O   LIG A   1      -8.667  -2.583 122.754  0.00  0.00    -0.506 OA
ATOM     18  H   LIG A   1      -9.553  -2.939 122.993  0.00  0.00    +0.292 HD
ENDBRANCH  10  17
TORSDOF 3
ENDMDL
