MODEL 1
REMARK VINA RESULT:      -6.4      0.000      0.000
REMARK  Name = NuBBE_1945
REMARK  3 active torsions:
REMARK  status: ('A' for Active; 'I' for Inactive)
REMARK    1  A    between atoms: C_1  and  C_2
REMARK    2  A    between atoms: C_11  and  C_15
REMARK    3  A    between atoms: C_11  and  C_16
REMARK                            x       y       z     vdW  Elec       q    Type
REMARK                         _______ _______ _______ _____ _____    ______ ____
ROOT
ATOM      1  C   LIG A   1      -8.220  -2.735 128.565  0.00  0.00    +0.012 C 
ATOM      2  C   LIG A   1      -7.853  -2.545 127.077  0.00  0.00    -0.022 C 
ATOM      3  C   LIG A   1      -6.270  -2.607 126.832  0.00  0.00    +0.025 C 
ATOM      4  C   LIG A   1      -6.516  -1.688 125.578  0.00  0.00    +0.006 C 
ATOM      5  C   LIG A   1      -7.710  -1.093 126.462  0.00  0.00    +0.000 C 
ATOM      6  C   LIG A   1      -7.244  -0.040 127.486  0.00  0.00    +0.009 C 
ATOM      7  C   LIG A   1      -5.808  -0.334 127.950  0.00  0.00    +0.031 C 
ATOM      8  C   LIG A   1      -5.482  -1.815 127.870  0.00  0.00    -0.073 C 
ATOM      9  C   LIG A   1      -4.610  -2.420 128.679  0.00  0.00    +0.008 C 
ATOM     10  C   LIG A   1      -6.669  -2.284 124.159  0.00  0.00    -0.031 C 
ATOM     11  C   LIG A   1      -7.680  -3.433 124.065  0.00  0.00    +0.007 C 
ATOM     12  C   LIG A   1      -8.978  -3.195 124.803  0.00  0.00    +0.001 C 
ATOM     13  C   LIG A   1      -8.828  -3.461 126.293  0.00  0.00    +0.007 C 
ATOM     14  C   LIG A   1      -5.308  -2.847 123.690  0.00  0.00    +0.011 C 
ATOM     15  C   LIG A   1      -7.050  -1.127 123.213  0.00  0.00    +0.011 C 
ENDROOT
TORSDOF 0
ENDMDL
MODEL 2
REMARK VINA RESULT:      -6.3      1.029      4.114
REMARK  Name = NuBBE_1945
REMARK  3 active torsions:
REMARK  status: ('A' for Active; 'I' for Inactive)
REMARK    1  A    between atoms: C_1  and  C_2
REMARK    2  A    between atoms: C_11  and  C_15
REMARK    3  A    between atoms: C_11  and  C_16
REMARK                            x       y       z     vdW  Elec       q    Type
REMARK                         _______ _______ _______ _____ _____    ______ ____
ROOT
ATOM      1  C   LIG A   1      -9.346  -3.002 123.884  0.00  0.00    +0.012 C 
ATOM      2  C   LIG A   1      -8.498  -2.712 125.142  0.00  0.00    -0.022 C 
ATOM      3  C   LIG A   1      -8.067  -1.172 125.239  0.00  0.00    +0.025 C 
ATOM      4  C   LIG A   1      -6.818  -1.663 126.061  0.00  0.00    +0.006 C 
ATOM      5  C   LIG A   1      -6.935  -2.963 125.135  0.00  0.00    +0.000 C 
ATOM      6  C   LIG A   1      -6.294  -2.781 123.746  0.00  0.00    +0.009 C 
ATOM      7  C   LIG A   1      -6.386  -1.313 123.295  0.00  0.00    +0.031 C 
ATOM      8  C   LIG A   1      -7.585  -0.610 123.907  0.00  0.00    -0.073 C 
ATOM      9  C   LIG A   1      -8.225   0.399 123.313  0.00  0.00    +0.008 C 
ATOM     10  C   LIG A   1      -6.821  -1.668 127.608  0.00  0.00    -0.031 C 
ATOM     11  C   LIG A   1      -8.049  -2.341 128.233  0.00  0.00    +0.007 C 
ATOM     12  C   LIG A   1      -8.449  -3.649 127.588  0.00  0.00    +0.001 C 
ATOM     13  C   LIG A   1      -9.238  -3.419 126.307  0.00  0.00    +0.007 C 
ATOM     14  C   LIG A   1      -6.799  -0.211 128.125  0.00  0.00    +0.011 C 
ATOM     15  C   LIG A   1      -5.517  -2.349 128.068  0.00  0.00    +0.011 C 
ENDROOT
TORSDOF 0
ENDMDL
MODEL 3
REMARK VINA RESULT:      -6.3      8.543     10.777
REMARK  Name = NuBBE_1945
REMARK  3 active torsions:
REMARK  status: ('A' for Active; 'I' for Inactive)
REMARK    1  A    between atoms: C_1  and  C_2
REMARK    2  A    between atoms: C_11  and  C_15
REMARK    3  A    between atoms: C_11  and  C_16
REMARK                            x       y       z     vdW  Elec       q    Type
REMARK                         _______ _______ _______ _____ _____    ______ ____
ROOT
ATOM      1  C   LIG A   1     -11.494   6.481 132.347  0.00  0.00    +0.012 C 
ATOM      2  C   LIG A   1     -11.610   6.974 130.888  0.00  0.00    -0.022 C 
ATOM      3  C   LIG A   1     -11.727   5.761 129.847  0.00  0.00    +0.025 C 
ATOM      4  C   LIG A   1     -11.080   6.725 128.784  0.00  0.00    +0.006 C 
ATOM      5  C   LIG A   1     -10.313   7.330 130.052  0.00  0.00    +0.000 C 
ATOM      6  C   LIG A   1      -9.077   6.509 130.466  0.00  0.00    +0.009 C 
ATOM      7  C   LIG A   1      -9.277   5.022 130.129  0.00  0.00    +0.031 C 
ATOM      8  C   LIG A   1     -10.745   4.633 130.145  0.00  0.00    -0.073 C 
ATOM      9  C   LIG A   1     -11.177   3.408 130.449  0.00  0.00    +0.008 C 
ATOM     10  C   LIG A   1     -11.950   7.538 127.797  0.00  0.00    -0.031 C 
ATOM     11  C   LIG A   1     -13.090   8.320 128.461  0.00  0.00    +0.007 C 
ATOM     12  C   LIG A   1     -12.703   9.052 129.725  0.00  0.00    +0.001 C 
ATOM     13  C   LIG A   1     -12.662   8.113 130.922  0.00  0.00    +0.007 C 
ATOM     14  C   LIG A   1     -12.602   6.577 126.777  0.00  0.00    +0.011 C 
ATOM     15  C   LIG A   1     -11.007   8.479 127.020  0.00  0.00    +0.011 C 
ENDROOT
TORSDOF 0
ENDMDL
MODEL 4
REMARK VINA RESULT:      -6.2      2.081      4.348
REMARK  Name = NuBBE_1945
REMARK  3 active torsions:
REMARK  status: ('A' for Active; 'I' for Inactive)
REMARK    1  A    between atoms: C_1  and  C_2
REMARK    2  A    between atoms: C_11  and  C_15
REMARK    3  A    between atoms: C_11  and  C_16
REMARK                            x       y       z     vdW  Elec       q    Type
REMARK                         _______ _______ _______ _____ _____    ______ ____
ROOT
ATOM      1  C   LIG A   1      -6.420   1.354 124.720  0.00  0.00    +0.012 C 
ATOM      2  C   LIG A   1      -7.063  -0.042 124.881  0.00  0.00    -0.022 C 
ATOM      3  C   LIG A   1      -8.300  -0.255 123.886  0.00  0.00    +0.025 C 
ATOM      4  C   LIG A   1      -8.867  -1.271 124.946  0.00  0.00    +0.006 C 
ATOM      5  C   LIG A   1      -8.150  -0.303 126.002  0.00  0.00    +0.000 C 
ATOM      6  C   LIG A   1      -8.984   0.946 126.346  0.00  0.00    +0.009 C 
ATOM      7  C   LIG A   1      -9.852   1.365 125.148  0.00  0.00    +0.031 C 
ATOM      8  C   LIG A   1      -9.225   0.956 123.827  0.00  0.00    -0.073 C 
ATOM      9  C   LIG A   1      -9.410   1.625 122.688  0.00  0.00    +0.008 C 
ATOM     10  C   LIG A   1      -8.618  -2.792 124.820  0.00  0.00    -0.031 C 
ATOM     11  C   LIG A   1      -7.150  -3.172 124.589  0.00  0.00    +0.007 C 
ATOM     12  C   LIG A   1      -6.161  -2.432 125.461  0.00  0.00    +0.001 C 
ATOM     13  C   LIG A   1      -5.876  -1.039 124.919  0.00  0.00    +0.007 C 
ATOM     14  C   LIG A   1      -9.417  -3.344 123.617  0.00  0.00    +0.011 C 
ATOM     15  C   LIG A   1      -9.172  -3.456 126.097  0.00  0.00    +0.011 C 
ENDROOT
TORSDOF 0
ENDMDL
MODEL 5
REMARK VINA RESULT:      -6.0      2.382      3.717
REMARK  Name = NuBBE_1945
REMARK  3 active torsions:
REMARK  status: ('A' for Active; 'I' for Inactive)
REMARK    1  A    between atoms: C_1  and  C_2
REMARK    2  A    between atoms: C_11  and  C_15
REMARK    3  A    between atoms: C_11  and  C_16
REMARK                            x       y       z     vdW  Elec       q    Type
REMARK                         _______ _______ _______ _____ _____    ______ ____
ROOT
ATOM      1  C   LIG A   1      -8.279   1.323 127.100  0.00  0.00    +0.012 C 
ATOM      2  C   LIG A   1      -8.215   0.170 126.074  0.00  0.00    -0.022 C 
ATOM      3  C   LIG A   1      -7.256   0.514 124.837  0.00  0.00    +0.025 C 
ATOM      4  C   LIG A   1      -8.142  -0.471 123.988  0.00  0.00    +0.006 C 
ATOM      5  C   LIG A   1      -9.320   0.033 124.948  0.00  0.00    +0.000 C 
ATOM      6  C   LIG A   1      -9.921   1.384 124.515  0.00  0.00    +0.009 C 
ATOM      7  C   LIG A   1      -8.859   2.252 123.820  0.00  0.00    +0.031 C 
ATOM      8  C   LIG A   1      -7.458   1.930 124.310  0.00  0.00    -0.073 C 
ATOM      9  C   LIG A   1      -6.468   2.824 124.340  0.00  0.00    +0.008 C 
ATOM     10  C   LIG A   1      -7.733  -1.948 123.780  0.00  0.00    -0.031 C 
ATOM     11  C   LIG A   1      -7.371  -2.689 125.073  0.00  0.00    +0.007 C 
ATOM     12  C   LIG A   1      -8.314  -2.443 126.228  0.00  0.00    +0.001 C 
ATOM     13  C   LIG A   1      -8.019  -1.118 126.915  0.00  0.00    +0.007 C 
ATOM     14  C   LIG A   1      -6.488  -2.012 122.865  0.00  0.00    +0.011 C 
ATOM     15  C   LIG A   1      -8.893  -2.648 123.043  0.00  0.00    +0.011 C 
ENDROOT
TORSDOF 0
ENDMDL
MODEL 6
REMARK VINA RESULT:      -6.0      1.565      2.180
REMARK  Name = NuBBE_1945
REMARK  3 active torsions:
REMARK  status: ('A' for Active; 'I' for Inactive)
REMARK    1  A    between atoms: C_1  and  C_2
REMARK    2  A    between atoms: C_11  and  C_15
REMARK    3  A    between atoms: C_11  and  C_16
REMARK                            x       y       z     vdW  Elec       q    Type
REMARK                         _______ _______ _______ _____ _____    ______ ____
ROOT
ATOM      1  C   LIG A   1      -7.597  -0.963 128.251  0.00  0.00    +0.012 C 
ATOM      2  C   LIG A   1      -7.795  -1.437 126.794  0.00  0.00    -0.022 C 
ATOM      3  C   LIG A   1      -6.700  -0.816 125.802  0.00  0.00    +0.025 C 
ATOM      4  C   LIG A   1      -7.772  -0.974 124.660  0.00  0.00    +0.006 C 
ATOM      5  C   LIG A   1      -8.819  -0.697 125.839  0.00  0.00    +0.000 C 
ATOM      6  C   LIG A   1      -8.985   0.799 126.166  0.00  0.00    +0.009 C 
ATOM      7  C   LIG A   1      -7.679   1.563 125.890  0.00  0.00    +0.031 C 
ATOM      8  C   LIG A   1      -6.461   0.670 126.045  0.00  0.00    -0.073 C 
ATOM      9  C   LIG A   1      -5.262   1.121 126.420  0.00  0.00    +0.008 C 
ATOM     10  C   LIG A   1      -7.784  -2.210 123.730  0.00  0.00    -0.031 C 
ATOM     11  C   LIG A   1      -7.729  -3.554 124.469  0.00  0.00    +0.007 C 
ATOM     12  C   LIG A   1      -8.637  -3.650 125.673  0.00  0.00    +0.001 C 
ATOM     13  C   LIG A   1      -8.025  -2.968 126.888  0.00  0.00    +0.007 C 
ATOM     14  C   LIG A   1      -6.551  -2.162 122.798  0.00  0.00    +0.011 C 
ATOM     15  C   LIG A   1      -9.044  -2.110 122.848  0.00  0.00    +0.011 C 
ENDROOT
TORSDOF 0
ENDMDL
MODEL 7
REMARK VINA RESULT:      -6.0      2.244      4.530
REMARK  Name = NuBBE_1945
REMARK  3 active torsions:
REMARK  status: ('A' for Active; 'I' for Inactive)
REMARK    1  A    between atoms: C_1  and  C_2
REMARK    2  A    between atoms: C_11  and  C_15
REMARK    3  A    between atoms: C_11  and  C_16
REMARK                            x       y       z     vdW  Elec       q    Type
REMARK                         _______ _______ _______ _____ _____    ______ ____
ROOT
ATOM      1  C   LIG A   1      -8.225  -2.075 126.516  0.00  0.00    +0.012 C 
ATOM      2  C   LIG A   1      -8.108  -0.768 125.700  0.00  0.00    -0.022 C 
ATOM      3  C   LIG A   1      -8.794  -0.894 124.257  0.00  0.00    +0.025 C 
ATOM      4  C   LIG A   1      -7.778   0.208 123.774  0.00  0.00    +0.006 C 
ATOM      5  C   LIG A   1      -6.804  -0.461 124.855  0.00  0.00    +0.000 C 
ATOM      6  C   LIG A   1      -6.099  -1.730 124.338  0.00  0.00    +0.009 C 
ATOM      7  C   LIG A   1      -6.982  -2.459 123.311  0.00  0.00    +0.031 C 
ATOM      8  C   LIG A   1      -8.459  -2.206 123.557  0.00  0.00    -0.073 C 
ATOM      9  C   LIG A   1      -9.416  -3.081 123.242  0.00  0.00    +0.008 C 
ATOM     10  C   LIG A   1      -8.169   1.703 123.732  0.00  0.00    -0.031 C 
ATOM     11  C   LIG A   1      -8.798   2.226 125.030  0.00  0.00    +0.007 C 
ATOM     12  C   LIG A   1      -8.099   1.783 126.294  0.00  0.00    +0.001 C 
ATOM     13  C   LIG A   1      -8.496   0.366 126.683  0.00  0.00    +0.007 C 
ATOM     14  C   LIG A   1      -9.207   1.930 122.609  0.00  0.00    +0.011 C 
ATOM     15  C   LIG A   1      -6.901   2.501 123.367  0.00  0.00    +0.011 C 
ENDROOT
TORSDOF 0
ENDMDL
MODEL 8
REMARK VINA RESULT:      -6.0      1.046      2.507
REMARK  Name = NuBBE_1945
REMARK  3 active torsions:
REMARK  status: ('A' for Active; 'I' for Inactive)
REMARK    1  A    between atoms: C_1  and  C_2
REMARK    2  A    between atoms: C_11  and  C_15
REMARK    3  A    between atoms: C_11  and  C_16
REMARK                            x       y       z     vdW  Elec       q    Type
REMARK                         _______ _______ _______ _____ _____    ______ ____
ROOT
ATOM      1  C   LIG A   1      -7.761   0.179 128.203  0.00  0.00    +0.012 C 
ATOM      2  C   LIG A   1      -7.523  -0.664 126.931  0.00  0.00    -0.022 C 
ATOM      3  C   LIG A   1      -7.911  -2.204 127.145  0.00  0.00    +0.025 C 
ATOM      4  C   LIG A   1      -6.851  -2.537 126.030  0.00  0.00    +0.006 C 
ATOM      5  C   LIG A   1      -6.089  -1.256 126.614  0.00  0.00    +0.000 C 
ATOM      6  C   LIG A   1      -5.262  -1.563 127.878  0.00  0.00    +0.009 C 
ATOM      7  C   LIG A   1      -5.908  -2.702 128.684  0.00  0.00    +0.031 C 
ATOM      8  C   LIG A   1      -7.411  -2.759 128.474  0.00  0.00    -0.073 C 
ATOM      9  C   LIG A   1      -8.265  -3.208 129.396  0.00  0.00    +0.008 C 
ATOM     10  C   LIG A   1      -7.267  -2.729 124.553  0.00  0.00    -0.031 C 
ATOM     11  C   LIG A   1      -8.151  -1.605 123.996  0.00  0.00    +0.007 C 
ATOM     12  C   LIG A   1      -7.699  -0.208 124.357  0.00  0.00    +0.001 C 
ATOM     13  C   LIG A   1      -8.125   0.167 125.769  0.00  0.00    +0.007 C 
ATOM     14  C   LIG A   1      -8.072  -4.041 124.414  0.00  0.00    +0.011 C 
ATOM     15  C   LIG A   1      -5.974  -2.882 123.726  0.00  0.00    +0.011 C 
ENDROOT
TORSDOF 0
ENDMDL
MODEL 9
REMARK VINA RESULT:      -5.6      1.370      3.225
REMARK  Name = NuBBE_1945
REMARK  3 active torsions:
REMARK  status: ('A' for Active; 'I' for Inactive)
REMARK    1  A    between atoms: C_1  and  C_2
REMARK    2  A    between atoms: C_11  and  C_15
REMARK    3  A    between atoms: C_11  and  C_16
REMARK                            x       y       z     vdW  Elec       q    Type
REMARK                         _______ _______ _______ _____ _____    ______ ____
ROOT
ATOM      1  C   LIG A   1      -5.265  -1.081 126.705  0.00  0.00    +0.012 C 
ATOM      2  C   LIG A   1      -6.284  -1.491 125.618  0.00  0.00    -0.022 C 
ATOM      3  C   LIG A   1      -7.516  -0.470 125.529  0.00  0.00    +0.025 C 
ATOM      4  C   LIG A   1      -8.366  -1.678 124.985  0.00  0.00    +0.006 C 
ATOM      5  C   LIG A   1      -7.417  -2.551 125.936  0.00  0.00    +0.000 C 
ATOM      6  C   LIG A   1      -7.862  -2.545 127.411  0.00  0.00    +0.009 C 
ATOM      7  C   LIG A   1      -8.555  -1.218 127.762  0.00  0.00    +0.031 C 
ATOM      8  C   LIG A   1      -8.053  -0.073 126.900  0.00  0.00    -0.073 C 
ATOM      9  C   LIG A   1      -8.021   1.196 127.310  0.00  0.00    +0.008 C 
ATOM     10  C   LIG A   1      -8.562  -1.909 123.469  0.00  0.00    -0.031 C 
ATOM     11  C   LIG A   1      -7.262  -1.886 122.655  0.00  0.00    +0.007 C 
ATOM     12  C   LIG A   1      -6.115  -2.651 123.276  0.00  0.00    +0.001 C 
ATOM     13  C   LIG A   1      -5.434  -1.843 124.370  0.00  0.00    +0.007 C 
ATOM     14  C   LIG A   1      -9.468  -0.796 122.894  0.00  0.00    +0.011 C 
ATOM     15  C   LIG A   1      -9.302  -3.251 123.299  0.00  0.00    +0.011 C 
ENDROOT
TORSDOF 0
ENDMDL
