MODEL 1
REMARK VINA RESULT:      -6.7      0.000      0.000
REMARK  Name = NuBBE_1613
REMARK  9 active torsions:
REMARK  status: ('A' for Active; 'I' for Inactive)
REMARK    1  A    between atoms: C_11  and  O_15
REMARK    2  A    between atoms: C_12  and  O_13
REMARK    3  A    between atoms: O_13  and  C_14
REMARK    4  A    between atoms: O_15  and  C_16
REMARK    5  A    between atoms: C_18  and  O_24
REMARK    6  A    between atoms: C_19  and  O_22
REMARK    7  A    between atoms: C_20  and  O_21
REMARK    8  A    between atoms: O_22  and  C_23
REMARK    9  A    between atoms: O_24  and  C_25
REMARK                            x       y       z     vdW  Elec       q    Type
REMARK                         _______ _______ _______ _____ _____    ______ ____
ROOT
ATOM      1  O   LIG A   1     -10.022   5.417 133.389  0.00  0.00    -0.286 OA
ATOM      2  C   LIG A   1      -9.599   6.002 132.401  0.00  0.00    +0.201 A 
ATOM      3  C   LIG A   1      -8.135   6.152 132.193  0.00  0.00    +0.091 A 
ATOM      4  C   LIG A   1      -7.697   6.818 131.043  0.00  0.00    +0.058 A 
ATOM      5  N   LIG A   1      -8.625   7.383 130.159  0.00  0.00    -0.351 N 
ATOM      6  H   LIG A   1      -8.322   7.713 129.249  0.00  0.00    +0.166 HD
ATOM      7  C   LIG A   1     -10.022   7.236 130.296  0.00  0.00    +0.097 A 
ATOM      8  C   LIG A   1     -10.537   6.567 131.410  0.00  0.00    +0.050 A 
ATOM      9  C   LIG A   1     -11.907   6.428 131.595  0.00  0.00    +0.017 A 
ATOM     10  C   LIG A   1     -12.784   6.991 130.668  0.00  0.00    +0.050 A 
ATOM     11  C   LIG A   1     -12.301   7.708 129.562  0.00  0.00    +0.164 A 
ATOM     12  C   LIG A   1     -10.907   7.834 129.377  0.00  0.00    +0.185 A 
ATOM     13  C   LIG A   1      -6.325   6.989 130.842  0.00  0.00    +0.076 A 
ATOM     14  C   LIG A   1      -5.396   6.463 131.753  0.00  0.00    +0.167 A 
ATOM     15  C   LIG A   1      -5.845   5.768 132.904  0.00  0.00    +0.204 A 
ATOM     16  C   LIG A   1      -7.225   5.637 133.127  0.00  0.00    +0.175 A 
ENDROOT
BRANCH  12  17
ATOM     17  O   LIG A   1     -10.267   8.461 128.331  0.00  0.00    -0.489 OA
ATOM     18  C   LIG A   1     -10.526   7.972 127.022  0.00  0.00    +0.277 C 
ENDBRANCH  12  17
BRANCH  11  19
ATOM     19  O   LIG A   1     -13.127   8.290 128.638  0.00  0.00    -0.491 OA
ATOM     20  C   LIG A   1     -13.449   9.668 128.792  0.00  0.00    +0.277 C 
ENDBRANCH  11  19
BRANCH  16  21
ATOM     21  O   LIG A   1      -7.685   5.033 134.271  0.00  0.00    -0.503 OA
ATOM     22  H   LIG A   1      -6.943   4.540 134.690  0.00  0.00    +0.292 HD
ENDBRANCH  16  21
BRANCH  15  23
ATOM     23  O   LIG A   1      -4.861   5.309 133.750  0.00  0.00    -0.488 OA
ATOM     24  C   LIG A   1      -4.526   3.928 133.656  0.00  0.00    +0.277 C 
ENDBRANCH  15  23
BRANCH  14  25
ATOM     25  O   LIG A   1      -4.033   6.570 131.594  0.00  0.00    -0.491 OA
ATOM     26  C   LIG A   1      -3.521   7.790 131.069  0.00  0.00    +0.277 C 
ENDBRANCH  14  25
TORSDOF 5
ENDMDL
MODEL 2
REMARK VINA RESULT:      -6.5      8.221     10.421
REMARK  Name = NuBBE_1613
REMARK  9 active torsions:
REMARK  status: ('A' for Active; 'I' for Inactive)
REMARK    1  A    between atoms: C_11  and  O_15
REMARK    2  A    between atoms: C_12  and  O_13
REMARK    3  A    between atoms: O_13  and  C_14
REMARK    4  A    between atoms: O_15  and  C_16
REMARK    5  A    between atoms: C_18  and  O_24
REMARK    6  A    between atoms: C_19  and  O_22
REMARK    7  A    between atoms: C_20  and  O_21
REMARK    8  A    between atoms: O_22  and  C_23
REMARK    9  A    between atoms: O_24  and  C_25
REMARK                            x       y       z     vdW  Elec       q    Type
REMARK                         _______ _______ _______ _____ _____    ______ ____
ROOT
ATOM      1  O   LIG A   1      -9.426  -1.824 124.580  0.00  0.00    -0.286 OA
ATOM      2  C   LIG A   1      -8.942  -1.176 125.498  0.00  0.00    +0.201 A 
ATOM      3  C   LIG A   1      -8.727   0.286 125.344  0.00  0.00    +0.091 A 
ATOM      4  C   LIG A   1      -8.182   0.990 126.425  0.00  0.00    +0.058 A 
ATOM      5  N   LIG A   1      -7.791   0.308 127.585  0.00  0.00    -0.351 N 
ATOM      6  H   LIG A   1      -7.558   0.828 128.423  0.00  0.00    +0.166 HD
ATOM      7  C   LIG A   1      -8.009  -1.071 127.789  0.00  0.00    +0.097 A 
ATOM      8  C   LIG A   1      -8.566  -1.839 126.762  0.00  0.00    +0.050 A 
ATOM      9  C   LIG A   1      -8.768  -3.205 126.914  0.00  0.00    +0.017 A 
ATOM     10  C   LIG A   1      -8.381  -3.826 128.102  0.00  0.00    +0.050 A 
ATOM     11  C   LIG A   1      -7.777  -3.093 129.136  0.00  0.00    +0.164 A 
ATOM     12  C   LIG A   1      -7.587  -1.703 128.976  0.00  0.00    +0.185 A 
ATOM     13  C   LIG A   1      -7.949   2.361 126.291  0.00  0.00    +0.076 A 
ATOM     14  C   LIG A   1      -8.299   3.035 125.110  0.00  0.00    +0.167 A 
ATOM     15  C   LIG A   1      -8.872   2.323 124.029  0.00  0.00    +0.204 A 
ATOM     16  C   LIG A   1      -9.063   0.936 124.148  0.00  0.00    +0.175 A 
ENDROOT
BRANCH  12  17
ATOM     17  O   LIG A   1      -7.054  -0.831 129.900  0.00  0.00    -0.489 OA
ATOM     18  C   LIG A   1      -7.901  -0.411 130.961  0.00  0.00    +0.277 C 
ENDBRANCH  12  17
BRANCH  11  19
ATOM     19  O   LIG A   1      -7.368  -3.666 130.310  0.00  0.00    -0.491 OA
ATOM     20  C   LIG A   1      -6.065  -4.234 130.367  0.00  0.00    +0.277 C 
ENDBRANCH  11  19
BRANCH  16  21
ATOM     21  O   LIG A   1      -9.548   0.212 123.088  0.00  0.00    -0.503 OA
ATOM     22  H   LIG A   1      -8.803   0.001 122.480  0.00  0.00    +0.292 HD
ENDBRANCH  16  21
BRANCH  15  23
ATOM     23  O   LIG A   1      -9.159   3.065 122.906  0.00  0.00    -0.488 OA
ATOM     24  C   LIG A   1      -8.140   3.150 121.914  0.00  0.00    +0.277 C 
ENDBRANCH  15  23
BRANCH  14  25
ATOM     25  O   LIG A   1      -8.125   4.389 124.931  0.00  0.00    -0.491 OA
ATOM     26  C   LIG A   1      -6.848   4.940 125.234  0.00  0.00    +0.277 C 
ENDBRANCH  14  25
TORSDOF 5
ENDMDL
MODEL 3
REMARK VINA RESULT:      -6.2      9.102     11.448
REMARK  Name = NuBBE_1613
REMARK  9 active torsions:
REMARK  status: ('A' for Active; 'I' for Inactive)
REMARK    1  A    between atoms: C_11  and  O_15
REMARK    2  A    between atoms: C_12  and  O_13
REMARK    3  A    between atoms: O_13  and  C_14
REMARK    4  A    between atoms: O_15  and  C_16
REMARK    5  A    between atoms: C_18  and  O_24
REMARK    6  A    between atoms: C_19  and  O_22
REMARK    7  A    between atoms: C_20  and  O_21
REMARK    8  A    between atoms: O_22  and  C_23
REMARK    9  A    between atoms: O_24  and  C_25
REMARK                            x       y       z     vdW  Elec       q    Type
REMARK                         _______ _______ _______ _____ _____    ______ ____
ROOT
ATOM      1  O   LIG A   1      -9.223  -3.552 127.071  0.00  0.00    -0.286 OA
ATOM      2  C   LIG A   1      -8.274  -2.785 127.159  0.00  0.00    +0.201 A 
ATOM      3  C   LIG A   1      -7.960  -1.857 126.042  0.00  0.00    +0.091 A 
ATOM      4  C   LIG A   1      -6.873  -0.988 126.191  0.00  0.00    +0.058 A 
ATOM      5  N   LIG A   1      -6.071  -1.054 127.338  0.00  0.00    -0.351 N 
ATOM      6  H   LIG A   1      -5.395  -0.322 127.525  0.00  0.00    +0.166 HD
ATOM      7  C   LIG A   1      -6.351  -1.892 128.438  0.00  0.00    +0.097 A 
ATOM      8  C   LIG A   1      -7.432  -2.776 128.371  0.00  0.00    +0.050 A 
ATOM      9  C   LIG A   1      -7.721  -3.638 129.422  0.00  0.00    +0.017 A 
ATOM     10  C   LIG A   1      -6.901  -3.642 130.550  0.00  0.00    +0.050 A 
ATOM     11  C   LIG A   1      -5.781  -2.800 130.631  0.00  0.00    +0.164 A 
ATOM     12  C   LIG A   1      -5.502  -1.919 129.563  0.00  0.00    +0.185 A 
ATOM     13  C   LIG A   1      -6.548  -0.125 125.142  0.00  0.00    +0.076 A 
ATOM     14  C   LIG A   1      -7.325  -0.093 123.973  0.00  0.00    +0.167 A 
ATOM     15  C   LIG A   1      -8.439  -0.957 123.837  0.00  0.00    +0.204 A 
ATOM     16  C   LIG A   1      -8.737  -1.856 124.874  0.00  0.00    +0.175 A 
ENDROOT
BRANCH  12  17
ATOM     17  O   LIG A   1      -4.478  -1.001 129.496  0.00  0.00    -0.489 OA
ATOM     18  C   LIG A   1      -4.629   0.198 130.244  0.00  0.00    +0.277 C 
ENDBRANCH  12  17
BRANCH  11  19
ATOM     19  O   LIG A   1      -4.941  -2.784 131.712  0.00  0.00    -0.491 OA
ATOM     20  C   LIG A   1      -3.881  -3.731 131.758  0.00  0.00    +0.277 C 
ENDBRANCH  11  19
BRANCH  16  21
ATOM     21  O   LIG A   1      -9.766  -2.754 124.735  0.00  0.00    -0.503 OA
ATOM     22  H   LIG A   1      -9.948  -3.167 125.610  0.00  0.00    +0.292 HD
ENDBRANCH  16  21
BRANCH  15  23
ATOM     23  O   LIG A   1      -9.125  -0.869 122.647  0.00  0.00    -0.488 OA
ATOM     24  C   LIG A   1     -10.166   0.101 122.575  0.00  0.00    +0.277 C 
ENDBRANCH  15  23
BRANCH  14  25
ATOM     25  O   LIG A   1      -7.075   0.758 122.920  0.00  0.00    -0.491 OA
ATOM     26  C   LIG A   1      -7.021   2.154 123.192  0.00  0.00    +0.277 C 
ENDBRANCH  14  25
TORSDOF 5
ENDMDL
MODEL 4
REMARK VINA RESULT:      -6.1      7.903      8.979
REMARK  Name = NuBBE_1613
REMARK  9 active torsions:
REMARK  status: ('A' for Active; 'I' for Inactive)
REMARK    1  A    between atoms: C_11  and  O_15
REMARK    2  A    between atoms: C_12  and  O_13
REMARK    3  A    between atoms: O_13  and  C_14
REMARK    4  A    between atoms: O_15  and  C_16
REMARK    5  A    between atoms: C_18  and  O_24
REMARK    6  A    between atoms: C_19  and  O_22
REMARK    7  A    between atoms: C_20  and  O_21
REMARK    8  A    between atoms: O_22  and  C_23
REMARK    9  A    between atoms: O_24  and  C_25
REMARK                            x       y       z     vdW  Elec       q    Type
REMARK                         _______ _______ _______ _____ _____    ______ ____
ROOT
ATOM      1  O   LIG A   1      -8.818   3.447 125.450  0.00  0.00    -0.286 OA
ATOM      2  C   LIG A   1      -7.937   2.602 125.371  0.00  0.00    +0.201 A 
ATOM      3  C   LIG A   1      -6.596   2.868 125.952  0.00  0.00    +0.091 A 
ATOM      4  C   LIG A   1      -5.622   1.867 125.849  0.00  0.00    +0.058 A 
ATOM      5  N   LIG A   1      -5.899   0.684 125.152  0.00  0.00    -0.351 N 
ATOM      6  H   LIG A   1      -5.264  -0.103 125.220  0.00  0.00    +0.166 HD
ATOM      7  C   LIG A   1      -7.166   0.373 124.616  0.00  0.00    +0.097 A 
ATOM      8  C   LIG A   1      -8.196   1.315 124.695  0.00  0.00    +0.050 A 
ATOM      9  C   LIG A   1      -9.449   1.058 124.152  0.00  0.00    +0.017 A 
ATOM     10  C   LIG A   1      -9.674  -0.149 123.490  0.00  0.00    +0.050 A 
ATOM     11  C   LIG A   1      -8.649  -1.097 123.352  0.00  0.00    +0.164 A 
ATOM     12  C   LIG A   1      -7.383  -0.832 123.918  0.00  0.00    +0.185 A 
ATOM     13  C   LIG A   1      -4.348   2.108 126.368  0.00  0.00    +0.076 A 
ATOM     14  C   LIG A   1      -4.058   3.313 127.026  0.00  0.00    +0.167 A 
ATOM     15  C   LIG A   1      -5.055   4.313 127.149  0.00  0.00    +0.204 A 
ATOM     16  C   LIG A   1      -6.321   4.088 126.586  0.00  0.00    +0.175 A 
ENDROOT
BRANCH  12  17
ATOM     17  O   LIG A   1      -6.286  -1.665 123.914  0.00  0.00    -0.489 OA
ATOM     18  C   LIG A   1      -6.249  -2.696 124.891  0.00  0.00    +0.277 C 
ENDBRANCH  12  17
BRANCH  11  19
ATOM     19  O   LIG A   1      -8.822  -2.287 122.697  0.00  0.00    -0.491 OA
ATOM     20  C   LIG A   1      -9.538  -3.324 123.357  0.00  0.00    +0.277 C 
ENDBRANCH  11  19
BRANCH  16  21
ATOM     21  O   LIG A   1      -7.280   5.070 126.628  0.00  0.00    -0.503 OA
ATOM     22  H   LIG A   1      -7.065   5.692 127.359  0.00  0.00    +0.292 HD
ENDBRANCH  16  21
BRANCH  15  23
ATOM     23  O   LIG A   1      -4.669   5.469 127.789  0.00  0.00    -0.488 OA
ATOM     24  C   LIG A   1      -4.790   5.489 129.209  0.00  0.00    +0.277 C 
ENDBRANCH  15  23
BRANCH  14  25
ATOM     25  O   LIG A   1      -2.832   3.595 127.587  0.00  0.00    -0.491 OA
ATOM     26  C   LIG A   1      -1.671   3.110 126.923  0.00  0.00    +0.277 C 
ENDBRANCH  14  25
TORSDOF 5
ENDMDL
MODEL 5
REMARK VINA RESULT:      -6.0      8.301     10.265
REMARK  Name = NuBBE_1613
REMARK  9 active torsions:
REMARK  status: ('A' for Active; 'I' for Inactive)
REMARK    1  A    between atoms: C_11  and  O_15
REMARK    2  A    between atoms: C_12  and  O_13
REMARK    3  A    between atoms: O_13  and  C_14
REMARK    4  A    between atoms: O_15  and  C_16
REMARK    5  A    between atoms: C_18  and  O_24
REMARK    6  A    between atoms: C_19  and  O_22
REMARK    7  A    between atoms: C_20  and  O_21
REMARK    8  A    between atoms: O_22  and  C_23
REMARK    9  A    between atoms: O_24  and  C_25
REMARK                            x       y       z     vdW  Elec       q    Type
REMARK                         _______ _______ _______ _____ _____    ______ ____
ROOT
ATOM      1  O   LIG A   1      -7.588   1.798 123.676  0.00  0.00    -0.286 OA
ATOM      2  C   LIG A   1      -7.051   1.425 124.710  0.00  0.00    +0.201 A 
ATOM      3  C   LIG A   1      -7.456   0.140 125.337  0.00  0.00    +0.091 A 
ATOM      4  C   LIG A   1      -6.807  -0.254 126.513  0.00  0.00    +0.058 A 
ATOM      5  N   LIG A   1      -5.855   0.585 127.107  0.00  0.00    -0.351 N 
ATOM      6  H   LIG A   1      -5.267   0.233 127.854  0.00  0.00    +0.166 HD
ATOM      7  C   LIG A   1      -5.413   1.794 126.530  0.00  0.00    +0.097 A 
ATOM      8  C   LIG A   1      -6.002   2.246 125.345  0.00  0.00    +0.050 A 
ATOM      9  C   LIG A   1      -5.615   3.447 124.763  0.00  0.00    +0.017 A 
ATOM     10  C   LIG A   1      -4.644   4.230 125.387  0.00  0.00    +0.050 A 
ATOM     11  C   LIG A   1      -4.065   3.828 126.601  0.00  0.00    +0.164 A 
ATOM     12  C   LIG A   1      -4.456   2.600 127.179  0.00  0.00    +0.185 A 
ATOM     13  C   LIG A   1      -7.191  -1.447 127.130  0.00  0.00    +0.076 A 
ATOM     14  C   LIG A   1      -8.178  -2.265 126.558  0.00  0.00    +0.167 A 
ATOM     15  C   LIG A   1      -8.815  -1.873 125.355  0.00  0.00    +0.204 A 
ATOM     16  C   LIG A   1      -8.460  -0.651 124.760  0.00  0.00    +0.175 A 
ENDROOT
BRANCH  12  17
ATOM     17  O   LIG A   1      -3.962   2.037 128.335  0.00  0.00    -0.489 OA
ATOM     18  C   LIG A   1      -4.443   2.556 129.568  0.00  0.00    +0.277 C 
ENDBRANCH  12  17
BRANCH  11  19
ATOM     19  O   LIG A   1      -3.121   4.573 127.256  0.00  0.00    -0.491 OA
ATOM     20  C   LIG A   1      -3.513   5.823 127.812  0.00  0.00    +0.277 C 
ENDBRANCH  11  19
BRANCH  16  21
ATOM     21  O   LIG A   1      -9.115  -0.215 123.635  0.00  0.00    -0.503 OA
ATOM     22  H   LIG A   1      -8.555  -0.406 122.848  0.00  0.00    +0.292 HD
ENDBRANCH  16  21
BRANCH  15  23
ATOM     23  O   LIG A   1      -9.786  -2.727 124.884  0.00  0.00    -0.488 OA
ATOM     24  C   LIG A   1      -9.480  -3.458 123.700  0.00  0.00    +0.277 C 
ENDBRANCH  15  23
BRANCH  14  25
ATOM     25  O   LIG A   1      -8.575  -3.466 127.101  0.00  0.00    -0.491 OA
ATOM     26  C   LIG A   1      -8.630  -3.567 128.519  0.00  0.00    +0.277 C 
ENDBRANCH  14  25
TORSDOF 5
ENDMDL
MODEL 6
REMARK VINA RESULT:      -6.0      8.515     11.458
REMARK  Name = NuBBE_1613
REMARK  9 active torsions:
REMARK  status: ('A' for Active; 'I' for Inactive)
REMARK    1  A    between atoms: C_11  and  O_15
REMARK    2  A    between atoms: C_12  and  O_13
REMARK    3  A    between atoms: O_13  and  C_14
REMARK    4  A    between atoms: O_15  and  C_16
REMARK    5  A    between atoms: C_18  and  O_24
REMARK    6  A    between atoms: C_19  and  O_22
REMARK    7  A    between atoms: C_20  and  O_21
REMARK    8  A    between atoms: O_22  and  C_23
REMARK    9  A    between atoms: O_24  and  C_25
REMARK                            x       y       z     vdW  Elec       q    Type
REMARK                         _______ _______ _______ _____ _____    ______ ____
ROOT
ATOM      1  O   LIG A   1      -6.412   1.394 128.361  0.00  0.00    -0.286 OA
ATOM      2  C   LIG A   1      -6.402   0.171 128.346  0.00  0.00    +0.201 A 
ATOM      3  C   LIG A   1      -7.308  -0.570 127.431  0.00  0.00    +0.091 A 
ATOM      4  C   LIG A   1      -7.254  -1.969 127.439  0.00  0.00    +0.058 A 
ATOM      5  N   LIG A   1      -6.416  -2.637 128.342  0.00  0.00    -0.351 N 
ATOM      6  H   LIG A   1      -6.249  -3.631 128.236  0.00  0.00    +0.166 HD
ATOM      7  C   LIG A   1      -5.514  -1.976 129.203  0.00  0.00    +0.097 A 
ATOM      8  C   LIG A   1      -5.496  -0.579 129.239  0.00  0.00    +0.050 A 
ATOM      9  C   LIG A   1      -4.644   0.107 130.095  0.00  0.00    +0.017 A 
ATOM     10  C   LIG A   1      -3.813  -0.612 130.955  0.00  0.00    +0.050 A 
ATOM     11  C   LIG A   1      -3.839  -2.015 130.977  0.00  0.00    +0.164 A 
ATOM     12  C   LIG A   1      -4.700  -2.703 130.095  0.00  0.00    +0.185 A 
ATOM     13  C   LIG A   1      -8.115  -2.684 126.603  0.00  0.00    +0.076 A 
ATOM     14  C   LIG A   1      -8.988  -2.014 125.731  0.00  0.00    +0.167 A 
ATOM     15  C   LIG A   1      -9.020  -0.598 125.709  0.00  0.00    +0.204 A 
ATOM     16  C   LIG A   1      -8.187   0.119 126.584  0.00  0.00    +0.175 A 
ENDROOT
BRANCH  12  17
ATOM     17  O   LIG A   1      -4.820  -4.068 129.955  0.00  0.00    -0.489 OA
ATOM     18  C   LIG A   1      -5.600  -4.755 130.924  0.00  0.00    +0.277 C 
ENDBRANCH  12  17
BRANCH  11  19
ATOM     19  O   LIG A   1      -3.053  -2.759 131.816  0.00  0.00    -0.491 OA
ATOM     20  C   LIG A   1      -3.340  -2.734 133.210  0.00  0.00    +0.277 C 
ENDBRANCH  11  19
BRANCH  16  21
ATOM     21  O   LIG A   1      -8.254   1.489 126.634  0.00  0.00    -0.503 OA
ATOM     22  H   LIG A   1      -8.618   1.758 127.508  0.00  0.00    +0.292 HD
ENDBRANCH  16  21
BRANCH  15  23
ATOM     23  O   LIG A   1      -9.925  -0.031 124.840  0.00  0.00    -0.488 OA
ATOM     24  C   LIG A   1      -9.419   0.408 123.582  0.00  0.00    +0.277 C 
ENDBRANCH  15  23
BRANCH  14  25
ATOM     25  O   LIG A   1      -9.836  -2.661 124.861  0.00  0.00    -0.491 OA
ATOM     26  C   LIG A   1      -9.256  -3.333 123.748  0.00  0.00    +0.277 C 
ENDBRANCH  14  25
TORSDOF 5
ENDMDL
MODEL 7
REMARK VINA RESULT:      -5.9      7.847      9.628
REMARK  Name = NuBBE_1613
REMARK  9 active torsions:
REMARK  status: ('A' for Active; 'I' for Inactive)
REMARK    1  A    between atoms: C_11  and  O_15
REMARK    2  A    between atoms: C_12  and  O_13
REMARK    3  A    between atoms: O_13  and  C_14
REMARK    4  A    between atoms: O_15  and  C_16
REMARK    5  A    between atoms: C_18  and  O_24
REMARK    6  A    between atoms: C_19  and  O_22
REMARK    7  A    between atoms: C_20  and  O_21
REMARK    8  A    between atoms: O_22  and  C_23
REMARK    9  A    between atoms: O_24  and  C_25
REMARK                            x       y       z     vdW  Elec       q    Type
REMARK                         _______ _______ _______ _____ _____    ______ ____
ROOT
ATOM      1  O   LIG A   1      -8.266   2.593 127.168  0.00  0.00    -0.286 OA
ATOM      2  C   LIG A   1      -7.129   2.176 126.996  0.00  0.00    +0.201 A 
ATOM      3  C   LIG A   1      -6.909   0.863 126.338  0.00  0.00    +0.091 A 
ATOM      4  C   LIG A   1      -5.591   0.431 126.150  0.00  0.00    +0.058 A 
ATOM      5  N   LIG A   1      -4.523   1.194 126.639  0.00  0.00    -0.351 N 
ATOM      6  H   LIG A   1      -3.574   0.974 126.360  0.00  0.00    +0.166 HD
ATOM      7  C   LIG A   1      -4.681   2.463 127.238  0.00  0.00    +0.097 A 
ATOM      8  C   LIG A   1      -5.968   2.971 127.443  0.00  0.00    +0.050 A 
ATOM      9  C   LIG A   1      -6.165   4.202 128.056  0.00  0.00    +0.017 A 
ATOM     10  C   LIG A   1      -5.061   4.930 128.500  0.00  0.00    +0.050 A 
ATOM     11  C   LIG A   1      -3.759   4.429 128.351  0.00  0.00    +0.164 A 
ATOM     12  C   LIG A   1      -3.568   3.182 127.717  0.00  0.00    +0.185 A 
ATOM     13  C   LIG A   1      -5.365  -0.813 125.555  0.00  0.00    +0.076 A 
ATOM     14  C   LIG A   1      -6.438  -1.599 125.108  0.00  0.00    +0.167 A 
ATOM     15  C   LIG A   1      -7.770  -1.146 125.278  0.00  0.00    +0.204 A 
ATOM     16  C   LIG A   1      -7.997   0.083 125.918  0.00  0.00    +0.175 A 
ENDROOT
BRANCH  12  17
ATOM     17  O   LIG A   1      -2.365   2.567 127.451  0.00  0.00    -0.489 OA
ATOM     18  C   LIG A   1      -1.610   3.062 126.353  0.00  0.00    +0.277 C 
ENDBRANCH  12  17
BRANCH  11  19
ATOM     19  O   LIG A   1      -2.650   5.103 128.788  0.00  0.00    -0.491 OA
ATOM     20  C   LIG A   1      -2.424   6.421 128.300  0.00  0.00    +0.277 C 
ENDBRANCH  11  19
BRANCH  16  21
ATOM     21  O   LIG A   1      -9.279   0.509 126.160  0.00  0.00    -0.503 OA
ATOM     22  H   LIG A   1      -9.793   0.464 125.322  0.00  0.00    +0.292 HD
ENDBRANCH  16  21
BRANCH  15  23
ATOM     23  O   LIG A   1      -8.755  -1.995 124.828  0.00  0.00    -0.488 OA
ATOM     24  C   LIG A   1      -9.395  -2.811 125.805  0.00  0.00    +0.277 C 
ENDBRANCH  15  23
BRANCH  14  25
ATOM     25  O   LIG A   1      -6.278  -2.816 124.485  0.00  0.00    -0.491 OA
ATOM     26  C   LIG A   1      -5.096  -3.018 123.717  0.00  0.00    +0.277 C 
ENDBRANCH  14  25
TORSDOF 5
ENDMDL
MODEL 8
REMARK VINA RESULT:      -5.9      5.508      7.167
REMARK  Name = NuBBE_1613
REMARK  9 active torsions:
REMARK  status: ('A' for Active; 'I' for Inactive)
REMARK    1  A    between atoms: C_11  and  O_15
REMARK    2  A    between atoms: C_12  and  O_13
REMARK    3  A    between atoms: O_13  and  C_14
REMARK    4  A    between atoms: O_15  and  C_16
REMARK    5  A    between atoms: C_18  and  O_24
REMARK    6  A    between atoms: C_19  and  O_22
REMARK    7  A    between atoms: C_20  and  O_21
REMARK    8  A    between atoms: O_22  and  C_23
REMARK    9  A    between atoms: O_24  and  C_25
REMARK                            x       y       z     vdW  Elec       q    Type
REMARK                         _______ _______ _______ _____ _____    ______ ____
ROOT
ATOM      1  O   LIG A   1      -9.202   1.472 132.451  0.00  0.00    -0.286 OA
ATOM      2  C   LIG A   1      -8.893   1.764 131.304  0.00  0.00    +0.201 A 
ATOM      3  C   LIG A   1      -9.029   3.166 130.830  0.00  0.00    +0.091 A 
ATOM      4  C   LIG A   1      -8.652   3.456 129.513  0.00  0.00    +0.058 A 
ATOM      5  N   LIG A   1      -8.227   2.430 128.659  0.00  0.00    -0.351 N 
ATOM      6  H   LIG A   1      -7.796   2.658 127.770  0.00  0.00    +0.166 HD
ATOM      7  C   LIG A   1      -8.048   1.094 129.075  0.00  0.00    +0.097 A 
ATOM      8  C   LIG A   1      -8.386   0.729 130.382  0.00  0.00    +0.050 A 
ATOM      9  C   LIG A   1      -8.253  -0.583 130.819  0.00  0.00    +0.017 A 
ATOM     10  C   LIG A   1      -7.801  -1.559 129.930  0.00  0.00    +0.050 A 
ATOM     11  C   LIG A   1      -7.496  -1.236 128.599  0.00  0.00    +0.164 A 
ATOM     12  C   LIG A   1      -7.624   0.102 128.167  0.00  0.00    +0.185 A 
ATOM     13  C   LIG A   1      -8.795   4.763 129.042  0.00  0.00    +0.076 A 
ATOM     14  C   LIG A   1      -9.265   5.782 129.885  0.00  0.00    +0.167 A 
ATOM     15  C   LIG A   1      -9.622   5.487 131.224  0.00  0.00    +0.204 A 
ATOM     16  C   LIG A   1      -9.521   4.164 131.683  0.00  0.00    +0.175 A 
ENDROOT
BRANCH  12  17
ATOM     17  O   LIG A   1      -7.328   0.598 126.916  0.00  0.00    -0.489 OA
ATOM     18  C   LIG A   1      -8.304   0.423 125.899  0.00  0.00    +0.277 C 
ENDBRANCH  12  17
BRANCH  11  19
ATOM     19  O   LIG A   1      -7.066  -2.165 127.689  0.00  0.00    -0.491 OA
ATOM     20  C   LIG A   1      -8.030  -3.030 127.100  0.00  0.00    +0.277 C 
ENDBRANCH  11  19
BRANCH  16  21
ATOM     21  O   LIG A   1      -9.931   3.839 132.952  0.00  0.00    -0.503 OA
ATOM     22  H   LIG A   1      -9.137   3.736 133.525  0.00  0.00    +0.292 HD
ENDBRANCH  16  21
BRANCH  15  23
ATOM     23  O   LIG A   1     -10.094   6.546 131.966  0.00  0.00    -0.488 OA
ATOM     24  C   LIG A   1     -11.509   6.674 132.077  0.00  0.00    +0.277 C 
ENDBRANCH  15  23
BRANCH  14  25
ATOM     25  O   LIG A   1      -9.397   7.094 129.489  0.00  0.00    -0.491 OA
ATOM     26  C   LIG A   1     -10.416   7.402 128.544  0.00  0.00    +0.277 C 
ENDBRANCH  14  25
TORSDOF 5
ENDMDL
MODEL 9
REMARK VINA RESULT:      -5.9      8.203      9.073
REMARK  Name = NuBBE_1613
REMARK  9 active torsions:
REMARK  status: ('A' for Active; 'I' for Inactive)
REMARK    1  A    between atoms: C_11  and  O_15
REMARK    2  A    between atoms: C_12  and  O_13
REMARK    3  A    between atoms: O_13  and  C_14
REMARK    4  A    between atoms: O_15  and  C_16
REMARK    5  A    between atoms: C_18  and  O_24
REMARK    6  A    between atoms: C_19  and  O_22
REMARK    7  A    between atoms: C_20  and  O_21
REMARK    8  A    between atoms: O_22  and  C_23
REMARK    9  A    between atoms: O_24  and  C_25
REMARK                            x       y       z     vdW  Elec       q    Type
REMARK                         _______ _______ _______ _____ _____    ______ ____
ROOT
ATOM      1  O   LIG A   1      -9.533  -1.676 125.403  0.00  0.00    -0.286 OA
ATOM      2  C   LIG A   1      -8.632  -0.854 125.504  0.00  0.00    +0.201 A 
ATOM      3  C   LIG A   1      -7.578  -1.027 126.537  0.00  0.00    +0.091 A 
ATOM      4  C   LIG A   1      -6.560  -0.069 126.608  0.00  0.00    +0.058 A 
ATOM      5  N   LIG A   1      -6.589   1.053 125.770  0.00  0.00    -0.351 N 
ATOM      6  H   LIG A   1      -5.775   1.654 125.701  0.00  0.00    +0.166 HD
ATOM      7  C   LIG A   1      -7.548   1.242 124.752  0.00  0.00    +0.097 A 
ATOM      8  C   LIG A   1      -8.586   0.317 124.606  0.00  0.00    +0.050 A 
ATOM      9  C   LIG A   1      -9.566   0.484 123.636  0.00  0.00    +0.017 A 
ATOM     10  C   LIG A   1      -9.530   1.610 122.812  0.00  0.00    +0.050 A 
ATOM     11  C   LIG A   1      -8.527   2.580 122.962  0.00  0.00    +0.164 A 
ATOM     12  C   LIG A   1      -7.529   2.396 123.943  0.00  0.00    +0.185 A 
ATOM     13  C   LIG A   1      -5.574  -0.202 127.588  0.00  0.00    +0.076 A 
ATOM     14  C   LIG A   1      -5.572  -1.303 128.459  0.00  0.00    +0.167 A 
ATOM     15  C   LIG A   1      -6.591  -2.283 128.366  0.00  0.00    +0.204 A 
ATOM     16  C   LIG A   1      -7.608  -2.123 127.411  0.00  0.00    +0.175 A 
ENDROOT
BRANCH  12  17
ATOM     17  O   LIG A   1      -6.455   3.221 124.194  0.00  0.00    -0.489 OA
ATOM     18  C   LIG A   1      -6.707   4.410 124.931  0.00  0.00    +0.277 C 
ENDBRANCH  12  17
BRANCH  11  19
ATOM     19  O   LIG A   1      -8.463   3.707 122.186  0.00  0.00    -0.491 OA
ATOM     20  C   LIG A   1      -8.787   3.596 120.805  0.00  0.00    +0.277 C 
ENDBRANCH  11  19
BRANCH  16  21
ATOM     21  O   LIG A   1      -8.646  -3.020 127.351  0.00  0.00    -0.503 OA
ATOM     22  H   LIG A   1      -9.496  -2.525 127.401  0.00  0.00    +0.292 HD
ENDBRANCH  16  21
BRANCH  15  23
ATOM     23  O   LIG A   1      -6.519  -3.312 129.277  0.00  0.00    -0.488 OA
ATOM     24  C   LIG A   1      -7.309  -3.184 130.456  0.00  0.00    +0.277 C 
ENDBRANCH  15  23
BRANCH  14  25
ATOM     25  O   LIG A   1      -4.610  -1.507 129.423  0.00  0.00    -0.491 OA
ATOM     26  C   LIG A   1      -4.133  -0.370 130.134  0.00  0.00    +0.277 C 
ENDBRANCH  14  25
TORSDOF 5
ENDMDL
