MODEL 1
REMARK VINA RESULT:      -7.6      0.000      0.000
REMARK  Name = NuBBE_1373
REMARK  7 active torsions:
REMARK  status: ('A' for Active; 'I' for Inactive)
REMARK    1  A    between atoms: C_2  and  C_3
REMARK    2  A    between atoms: C_2  and  C_7
REMARK    3  A    between atoms: C_3  and  C_4
REMARK    4  A    between atoms: C_4  and  C_5
REMARK    5  A    between atoms: C_5  and  C_6
REMARK    6  A    between atoms: C_7  and  C_8
REMARK    7  A    between atoms: C_8  and  O_9
REMARK                            x       y       z     vdW  Elec       q    Type
REMARK                         _______ _______ _______ _____ _____    ______ ____
ROOT
ATOM      1  C   LIG A   1      -7.785  -0.006 127.287  0.00  0.00    +0.160 C 
ATOM      2  C   LIG A   1      -8.185  -1.410 127.733  0.00  0.00    -0.001 A 
ATOM      3  C   LIG A   1      -8.101  -1.768 129.094  0.00  0.00    +0.007 A 
ATOM      4  C   LIG A   1      -8.273  -3.086 129.503  0.00  0.00    +0.000 A 
ATOM      5  C   LIG A   1      -8.573  -4.058 128.562  0.00  0.00    +0.001 A 
ATOM      6  C   LIG A   1      -8.756  -3.701 127.224  0.00  0.00    +0.009 A 
ATOM      7  C   LIG A   1      -8.599  -2.367 126.785  0.00  0.00    -0.011 A 
ATOM      8  C   LIG A   1      -8.888  -1.947 125.393  0.00  0.00    -0.007 A 
ATOM      9  C   LIG A   1      -9.125  -2.851 124.341  0.00  0.00    +0.009 A 
ATOM     10  C   LIG A   1      -9.347  -2.413 123.030  0.00  0.00    +0.001 A 
ATOM     11  C   LIG A   1      -9.402  -1.052 122.747  0.00  0.00    +0.001 A 
ATOM     12  C   LIG A   1      -9.252  -0.132 123.771  0.00  0.00    +0.012 A 
ATOM     13  C   LIG A   1      -8.961  -0.565 125.075  0.00  0.00    +0.028 A 
ATOM     14  C   LIG A   1      -8.645   0.444 126.111  0.00  0.00    +0.200 C 
ATOM     15  O   LIG A   1      -9.023   1.627 125.975  0.00  0.00    -0.289 OA
ENDROOT
BRANCH   1  16
ATOM     16  O   LIG A   1      -8.043   0.922 128.361  0.00  0.00    -0.376 OA
ATOM     17  H   LIG A   1      -8.790   1.475 128.054  0.00  0.00    +0.211 HD
ENDBRANCH   1  16
BRANCH   1  18
ATOM     18  C   LIG A   1      -6.306   0.163 126.857  0.00  0.00    +0.122 C 
BRANCH  18  20
ATOM     19  O   LIG A   1      -4.913  -1.701 127.467  0.00  0.00    -0.297 OA
ATOM     20  C   LIG A   1      -5.493  -1.094 126.546  0.00  0.00    +0.137 C 
BRANCH  20  21
ATOM     21  C   LIG A   1      -5.254  -1.474 125.094  0.00  0.00    +0.074 C 
BRANCH  21  22
ATOM     22  C   LIG A   1      -5.489  -2.930 124.692  0.00  0.00    +0.007 C 
BRANCH  22  23
ATOM     23  C   LIG A   1      -4.755  -3.329 123.407  0.00  0.00    -0.003 C 
ATOM     24  C   LIG A   1      -4.201  -4.745 123.488  0.00  0.00    +0.004 C 
ENDBRANCH  22  23
ENDBRANCH  21  22
ENDBRANCH  20  21
ENDBRANCH  18  20
ENDBRANCH   1  18
TORSDOF 6
ENDMDL
MODEL 2
REMARK VINA RESULT:      -7.5      2.274      4.821
REMARK  Name = NuBBE_1373
REMARK  7 active torsions:
REMARK  status: ('A' for Active; 'I' for Inactive)
REMARK    1  A    between atoms: C_2  and  C_3
REMARK    2  A    between atoms: C_2  and  C_7
REMARK    3  A    between atoms: C_3  and  C_4
REMARK    4  A    between atoms: C_4  and  C_5
REMARK    5  A    between atoms: C_5  and  C_6
REMARK    6  A    between atoms: C_7  and  C_8
REMARK    7  A    between atoms: C_8  and  O_9
REMARK                            x       y       z     vdW  Elec       q    Type
REMARK                         _______ _______ _______ _____ _____    ______ ____
ROOT
ATOM      1  C   LIG A   1      -8.875  -2.632 126.231  0.00  0.00    +0.160 C 
ATOM      2  C   LIG A   1      -8.651  -1.131 126.386  0.00  0.00    -0.001 A 
ATOM      3  C   LIG A   1      -9.361  -0.224 125.572  0.00  0.00    +0.007 A 
ATOM      4  C   LIG A   1      -9.042   1.130 125.555  0.00  0.00    +0.000 A 
ATOM      5  C   LIG A   1      -8.038   1.604 126.384  0.00  0.00    +0.001 A 
ATOM      6  C   LIG A   1      -7.393   0.734 127.267  0.00  0.00    +0.009 A 
ATOM      7  C   LIG A   1      -7.706  -0.643 127.312  0.00  0.00    -0.011 A 
ATOM      8  C   LIG A   1      -7.111  -1.564 128.309  0.00  0.00    -0.007 A 
ATOM      9  C   LIG A   1      -6.033  -1.215 129.144  0.00  0.00    +0.009 A 
ATOM     10  C   LIG A   1      -5.469  -2.131 130.040  0.00  0.00    +0.001 A 
ATOM     11  C   LIG A   1      -6.012  -3.406 130.171  0.00  0.00    +0.001 A 
ATOM     12  C   LIG A   1      -7.122  -3.758 129.423  0.00  0.00    +0.012 A 
ATOM     13  C   LIG A   1      -7.648  -2.867 128.474  0.00  0.00    +0.028 A 
ATOM     14  C   LIG A   1      -8.731  -3.334 127.577  0.00  0.00    +0.200 C 
ATOM     15  O   LIG A   1      -9.444  -4.307 127.902  0.00  0.00    -0.289 OA
ENDROOT
BRANCH   1  16
ATOM     16  O   LIG A   1     -10.228  -2.865 125.791  0.00  0.00    -0.376 OA
ATOM     17  H   LIG A   1     -10.149  -3.243 124.891  0.00  0.00    +0.211 HD
ENDBRANCH   1  16
BRANCH   1  18
ATOM     18  C   LIG A   1      -7.923  -3.351 125.241  0.00  0.00    +0.122 C 
BRANCH  18  20
ATOM     19  O   LIG A   1      -8.810  -3.089 123.021  0.00  0.00    -0.297 OA
ATOM     20  C   LIG A   1      -7.864  -2.851 123.798  0.00  0.00    +0.137 C 
BRANCH  20  21
ATOM     21  C   LIG A   1      -6.574  -2.233 123.285  0.00  0.00    +0.074 C 
BRANCH  21  22
ATOM     22  C   LIG A   1      -5.299  -2.475 124.095  0.00  0.00    +0.007 C 
BRANCH  22  23
ATOM     23  C   LIG A   1      -4.283  -3.365 123.370  0.00  0.00    -0.003 C 
ATOM     24  C   LIG A   1      -4.512  -4.841 123.667  0.00  0.00    +0.004 C 
ENDBRANCH  22  23
ENDBRANCH  21  22
ENDBRANCH  20  21
ENDBRANCH  18  20
ENDBRANCH   1  18
TORSDOF 6
ENDMDL
MODEL 3
REMARK VINA RESULT:      -7.5      3.813      6.960
REMARK  Name = NuBBE_1373
REMARK  7 active torsions:
REMARK  status: ('A' for Active; 'I' for Inactive)
REMARK    1  A    between atoms: C_2  and  C_3
REMARK    2  A    between atoms: C_2  and  C_7
REMARK    3  A    between atoms: C_3  and  C_4
REMARK    4  A    between atoms: C_4  and  C_5
REMARK    5  A    between atoms: C_5  and  C_6
REMARK    6  A    between atoms: C_7  and  C_8
REMARK    7  A    between atoms: C_8  and  O_9
REMARK                            x       y       z     vdW  Elec       q    Type
REMARK                         _______ _______ _______ _____ _____    ______ ____
ROOT
ATOM      1  C   LIG A   1      -7.988   2.334 123.269  0.00  0.00    +0.160 C 
ATOM      2  C   LIG A   1      -7.050   3.227 122.463  0.00  0.00    -0.001 A 
ATOM      3  C   LIG A   1      -7.282   3.436 121.089  0.00  0.00    +0.007 A 
ATOM      4  C   LIG A   1      -6.345   4.083 120.290  0.00  0.00    +0.000 A 
ATOM      5  C   LIG A   1      -5.181   4.569 120.863  0.00  0.00    +0.001 A 
ATOM      6  C   LIG A   1      -4.982   4.457 122.242  0.00  0.00    +0.009 A 
ATOM      7  C   LIG A   1      -5.924   3.814 123.076  0.00  0.00    -0.011 A 
ATOM      8  C   LIG A   1      -5.785   3.773 124.552  0.00  0.00    -0.007 A 
ATOM      9  C   LIG A   1      -4.617   4.164 125.233  0.00  0.00    +0.009 A 
ATOM     10  C   LIG A   1      -4.510   4.064 126.626  0.00  0.00    +0.001 A 
ATOM     11  C   LIG A   1      -5.595   3.631 127.382  0.00  0.00    +0.001 A 
ATOM     12  C   LIG A   1      -6.786   3.313 126.752  0.00  0.00    +0.012 A 
ATOM     13  C   LIG A   1      -6.877   3.345 125.351  0.00  0.00    +0.028 A 
ATOM     14  C   LIG A   1      -8.110   2.845 124.701  0.00  0.00    +0.200 C 
ATOM     15  O   LIG A   1      -9.182   2.790 125.341  0.00  0.00    -0.289 OA
ENDROOT
BRANCH   1  16
ATOM     16  O   LIG A   1      -9.311   2.401 122.698  0.00  0.00    -0.376 OA
ATOM     17  H   LIG A   1      -9.641   3.298 122.910  0.00  0.00    +0.211 HD
ENDBRANCH   1  16
BRANCH   1  18
ATOM     18  C   LIG A   1      -7.582   0.841 123.354  0.00  0.00    +0.122 C 
BRANCH  18  20
ATOM     19  O   LIG A   1      -9.777   0.012 123.880  0.00  0.00    -0.297 OA
ATOM     20  C   LIG A   1      -8.687  -0.215 123.321  0.00  0.00    +0.137 C 
BRANCH  20  21
ATOM     21  C   LIG A   1      -8.370  -1.594 122.766  0.00  0.00    +0.074 C 
BRANCH  21  22
ATOM     22  C   LIG A   1      -9.203  -2.772 123.271  0.00  0.00    +0.007 C 
BRANCH  22  23
ATOM     23  C   LIG A   1      -8.640  -3.407 124.548  0.00  0.00    -0.003 C 
ATOM     24  C   LIG A   1      -9.423  -2.983 125.783  0.00  0.00    +0.004 C 
ENDBRANCH  22  23
ENDBRANCH  21  22
ENDBRANCH  20  21
ENDBRANCH  18  20
ENDBRANCH   1  18
TORSDOF 6
ENDMDL
MODEL 4
REMARK VINA RESULT:      -7.2      1.902      4.930
REMARK  Name = NuBBE_1373
REMARK  7 active torsions:
REMARK  status: ('A' for Active; 'I' for Inactive)
REMARK    1  A    between atoms: C_2  and  C_3
REMARK    2  A    between atoms: C_2  and  C_7
REMARK    3  A    between atoms: C_3  and  C_4
REMARK    4  A    between atoms: C_4  and  C_5
REMARK    5  A    between atoms: C_5  and  C_6
REMARK    6  A    between atoms: C_7  and  C_8
REMARK    7  A    between atoms: C_8  and  O_9
REMARK                            x       y       z     vdW  Elec       q    Type
REMARK                         _______ _______ _______ _____ _____    ______ ____
ROOT
ATOM      1  C   LIG A   1      -6.141  -0.519 126.156  0.00  0.00    +0.160 C 
ATOM      2  C   LIG A   1      -6.755  -1.316 125.008  0.00  0.00    -0.001 A 
ATOM      3  C   LIG A   1      -6.391  -1.028 123.677  0.00  0.00    +0.007 A 
ATOM      4  C   LIG A   1      -7.070  -1.600 122.606  0.00  0.00    +0.000 A 
ATOM      5  C   LIG A   1      -8.093  -2.501 122.851  0.00  0.00    +0.001 A 
ATOM      6  C   LIG A   1      -8.399  -2.871 124.163  0.00  0.00    +0.009 A 
ATOM      7  C   LIG A   1      -7.717  -2.313 125.268  0.00  0.00    -0.011 A 
ATOM      8  C   LIG A   1      -7.952  -2.764 126.660  0.00  0.00    -0.007 A 
ATOM      9  C   LIG A   1      -9.011  -3.612 127.035  0.00  0.00    +0.009 A 
ATOM     10  C   LIG A   1      -9.227  -3.975 128.369  0.00  0.00    +0.001 A 
ATOM     11  C   LIG A   1      -8.346  -3.552 129.360  0.00  0.00    +0.001 A 
ATOM     12  C   LIG A   1      -7.247  -2.782 129.018  0.00  0.00    +0.012 A 
ATOM     13  C   LIG A   1      -7.066  -2.357 127.692  0.00  0.00    +0.028 A 
ATOM     14  C   LIG A   1      -5.975  -1.403 127.388  0.00  0.00    +0.200 C 
ATOM     15  O   LIG A   1      -4.998  -1.296 128.160  0.00  0.00    -0.289 OA
ENDROOT
BRANCH   1  16
ATOM     16  O   LIG A   1      -4.817  -0.091 125.779  0.00  0.00    -0.376 OA
ATOM     17  H   LIG A   1      -4.313  -0.914 125.616  0.00  0.00    +0.211 HD
ENDBRANCH   1  16
BRANCH   1  18
ATOM     18  C   LIG A   1      -6.938   0.733 126.602  0.00  0.00    +0.122 C 
BRANCH  18  20
ATOM     19  O   LIG A   1      -5.892   2.492 125.338  0.00  0.00    -0.297 OA
ATOM     20  C   LIG A   1      -6.962   1.946 125.672  0.00  0.00    +0.137 C 
BRANCH  20  21
ATOM     21  C   LIG A   1      -8.299   2.577 125.320  0.00  0.00    +0.074 C 
BRANCH  21  22
ATOM     22  C   LIG A   1      -8.909   2.239 123.959  0.00  0.00    +0.007 C 
BRANCH  22  23
ATOM     23  C   LIG A   1      -9.650   0.897 123.946  0.00  0.00    -0.003 C 
ATOM     24  C   LIG A   1     -10.181   0.559 122.559  0.00  0.00    +0.004 C 
ENDBRANCH  22  23
ENDBRANCH  21  22
ENDBRANCH  20  21
ENDBRANCH  18  20
ENDBRANCH   1  18
TORSDOF 6
ENDMDL
MODEL 5
REMARK VINA RESULT:      -7.2      3.288      4.880
REMARK  Name = NuBBE_1373
REMARK  7 active torsions:
REMARK  status: ('A' for Active; 'I' for Inactive)
REMARK    1  A    between atoms: C_2  and  C_3
REMARK    2  A    between atoms: C_2  and  C_7
REMARK    3  A    between atoms: C_3  and  C_4
REMARK    4  A    between atoms: C_4  and  C_5
REMARK    5  A    between atoms: C_5  and  C_6
REMARK    6  A    between atoms: C_7  and  C_8
REMARK    7  A    between atoms: C_8  and  O_9
REMARK                            x       y       z     vdW  Elec       q    Type
REMARK                         _______ _______ _______ _____ _____    ______ ____
ROOT
ATOM      1  C   LIG A   1      -8.640   1.465 124.727  0.00  0.00    +0.160 C 
ATOM      2  C   LIG A   1      -8.392   1.046 126.173  0.00  0.00    -0.001 A 
ATOM      3  C   LIG A   1      -8.339   2.021 127.191  0.00  0.00    +0.007 A 
ATOM      4  C   LIG A   1      -7.928   1.695 128.479  0.00  0.00    +0.000 A 
ATOM      5  C   LIG A   1      -7.604   0.381 128.779  0.00  0.00    +0.001 A 
ATOM      6  C   LIG A   1      -7.746  -0.613 127.807  0.00  0.00    +0.009 A 
ATOM      7  C   LIG A   1      -8.173  -0.309 126.494  0.00  0.00    -0.011 A 
ATOM      8  C   LIG A   1      -8.430  -1.357 125.477  0.00  0.00    -0.007 A 
ATOM      9  C   LIG A   1      -8.068  -2.706 125.643  0.00  0.00    +0.009 A 
ATOM     10  C   LIG A   1      -8.285  -3.656 124.637  0.00  0.00    +0.001 A 
ATOM     11  C   LIG A   1      -8.933  -3.292 123.460  0.00  0.00    +0.001 A 
ATOM     12  C   LIG A   1      -9.374  -1.990 123.295  0.00  0.00    +0.012 A 
ATOM     13  C   LIG A   1      -9.097  -1.019 124.271  0.00  0.00    +0.028 A 
ATOM     14  C   LIG A   1      -9.439   0.394 123.992  0.00  0.00    +0.200 C 
ATOM     15  O   LIG A   1     -10.304   0.677 123.136  0.00  0.00    -0.289 OA
ENDROOT
BRANCH   1  16
ATOM     16  O   LIG A   1      -9.448   2.660 124.713  0.00  0.00    -0.376 OA
ATOM     17  H   LIG A   1     -10.312   2.386 124.342  0.00  0.00    +0.211 HD
ENDBRANCH   1  16
BRANCH   1  18
ATOM     18  C   LIG A   1      -7.369   1.741 123.884  0.00  0.00    +0.122 C 
BRANCH  18  20
ATOM     19  O   LIG A   1      -8.470   3.127 122.255  0.00  0.00    -0.297 OA
ATOM     20  C   LIG A   1      -7.409   2.876 122.860  0.00  0.00    +0.137 C 
BRANCH  20  21
ATOM     21  C   LIG A   1      -6.109   3.556 122.465  0.00  0.00    +0.074 C 
BRANCH  21  22
ATOM     22  C   LIG A   1      -5.761   3.616 120.977  0.00  0.00    +0.007 C 
BRANCH  22  23
ATOM     23  C   LIG A   1      -5.097   4.934 120.564  0.00  0.00    -0.003 C 
ATOM     24  C   LIG A   1      -5.619   5.435 119.225  0.00  0.00    +0.004 C 
ENDBRANCH  22  23
ENDBRANCH  21  22
ENDBRANCH  20  21
ENDBRANCH  18  20
ENDBRANCH   1  18
TORSDOF 6
ENDMDL
MODEL 6
REMARK VINA RESULT:      -6.9      2.668      4.585
REMARK  Name = NuBBE_1373
REMARK  7 active torsions:
REMARK  status: ('A' for Active; 'I' for Inactive)
REMARK    1  A    between atoms: C_2  and  C_3
REMARK    2  A    between atoms: C_2  and  C_7
REMARK    3  A    between atoms: C_3  and  C_4
REMARK    4  A    between atoms: C_4  and  C_5
REMARK    5  A    between atoms: C_5  and  C_6
REMARK    6  A    between atoms: C_7  and  C_8
REMARK    7  A    between atoms: C_8  and  O_9
REMARK                            x       y       z     vdW  Elec       q    Type
REMARK                         _______ _______ _______ _____ _____    ______ ____
ROOT
ATOM      1  C   LIG A   1      -8.586   1.458 124.753  0.00  0.00    +0.160 C 
ATOM      2  C   LIG A   1      -8.374   1.037 126.204  0.00  0.00    -0.001 A 
ATOM      3  C   LIG A   1      -8.325   2.011 127.221  0.00  0.00    +0.007 A 
ATOM      4  C   LIG A   1      -7.945   1.681 128.518  0.00  0.00    +0.000 A 
ATOM      5  C   LIG A   1      -7.648   0.363 128.825  0.00  0.00    +0.001 A 
ATOM      6  C   LIG A   1      -7.787  -0.630 127.852  0.00  0.00    +0.009 A 
ATOM      7  C   LIG A   1      -8.183  -0.321 126.531  0.00  0.00    -0.011 A 
ATOM      8  C   LIG A   1      -8.437  -1.366 125.510  0.00  0.00    -0.007 A 
ATOM      9  C   LIG A   1      -8.100  -2.721 125.684  0.00  0.00    +0.009 A 
ATOM     10  C   LIG A   1      -8.313  -3.669 124.676  0.00  0.00    +0.001 A 
ATOM     11  C   LIG A   1      -8.931  -3.296 123.486  0.00  0.00    +0.001 A 
ATOM     12  C   LIG A   1      -9.348  -1.988 123.310  0.00  0.00    +0.012 A 
ATOM     13  C   LIG A   1      -9.075  -1.020 124.290  0.00  0.00    +0.028 A 
ATOM     14  C   LIG A   1      -9.388   0.399 124.003  0.00  0.00    +0.200 C 
ATOM     15  O   LIG A   1     -10.232   0.694 123.130  0.00  0.00    -0.289 OA
ENDROOT
BRANCH   1  16
ATOM     16  O   LIG A   1      -9.375   2.665 124.721  0.00  0.00    -0.376 OA
ATOM     17  H   LIG A   1      -9.164   3.135 125.555  0.00  0.00    +0.211 HD
ENDBRANCH   1  16
BRANCH   1  18
ATOM     18  C   LIG A   1      -7.295   1.712 123.934  0.00  0.00    +0.122 C 
BRANCH  18  20
ATOM     19  O   LIG A   1      -7.855   3.379 122.294  0.00  0.00    -0.297 OA
ATOM     20  C   LIG A   1      -7.122   3.070 123.254  0.00  0.00    +0.137 C 
BRANCH  20  21
ATOM     21  C   LIG A   1      -5.939   3.941 123.641  0.00  0.00    +0.074 C 
BRANCH  21  22
ATOM     22  C   LIG A   1      -6.125   4.918 124.803  0.00  0.00    +0.007 C 
BRANCH  22  23
ATOM     23  C   LIG A   1      -5.697   4.337 126.155  0.00  0.00    -0.003 C 
ATOM     24  C   LIG A   1      -4.600   3.292 126.000  0.00  0.00    +0.004 C 
ENDBRANCH  22  23
ENDBRANCH  21  22
ENDBRANCH  20  21
ENDBRANCH  18  20
ENDBRANCH   1  18
TORSDOF 6
ENDMDL
MODEL 7
REMARK VINA RESULT:      -6.7      7.070      9.762
REMARK  Name = NuBBE_1373
REMARK  7 active torsions:
REMARK  status: ('A' for Active; 'I' for Inactive)
REMARK    1  A    between atoms: C_2  and  C_3
REMARK    2  A    between atoms: C_2  and  C_7
REMARK    3  A    between atoms: C_3  and  C_4
REMARK    4  A    between atoms: C_4  and  C_5
REMARK    5  A    between atoms: C_5  and  C_6
REMARK    6  A    between atoms: C_7  and  C_8
REMARK    7  A    between atoms: C_8  and  O_9
REMARK                            x       y       z     vdW  Elec       q    Type
REMARK                         _______ _______ _______ _____ _____    ______ ____
ROOT
ATOM      1  C   LIG A   1      -9.127   4.685 132.667  0.00  0.00    +0.160 C 
ATOM      2  C   LIG A   1      -9.573   5.805 131.731  0.00  0.00    -0.001 A 
ATOM      3  C   LIG A   1     -10.944   6.003 131.471  0.00  0.00    +0.007 A 
ATOM      4  C   LIG A   1     -11.369   6.884 130.482  0.00  0.00    +0.000 A 
ATOM      5  C   LIG A   1     -10.430   7.611 129.768  0.00  0.00    +0.001 A 
ATOM      6  C   LIG A   1      -9.073   7.499 130.082  0.00  0.00    +0.009 A 
ATOM      7  C   LIG A   1      -8.617   6.620 131.090  0.00  0.00    -0.011 A 
ATOM      8  C   LIG A   1      -7.197   6.559 131.512  0.00  0.00    -0.007 A 
ATOM      9  C   LIG A   1      -6.151   7.191 130.813  0.00  0.00    +0.009 A 
ATOM     10  C   LIG A   1      -4.816   7.068 131.218  0.00  0.00    +0.001 A 
ATOM     11  C   LIG A   1      -4.498   6.362 132.374  0.00  0.00    +0.001 A 
ATOM     12  C   LIG A   1      -5.509   5.793 133.130  0.00  0.00    +0.012 A 
ATOM     13  C   LIG A   1      -6.842   5.854 132.691  0.00  0.00    +0.028 A 
ATOM     14  C   LIG A   1      -7.876   5.099 133.435  0.00  0.00    +0.200 C 
ATOM     15  O   LIG A   1      -7.682   4.767 134.624  0.00  0.00    -0.289 OA
ENDROOT
BRANCH   1  16
ATOM     16  O   LIG A   1     -10.155   4.457 133.653  0.00  0.00    -0.376 OA
ATOM     17  H   LIG A   1     -10.866   5.096 133.441  0.00  0.00    +0.211 HD
ENDBRANCH   1  16
BRANCH   1  18
ATOM     18  C   LIG A   1      -8.813   3.330 131.985  0.00  0.00    +0.122 C 
BRANCH  18  20
ATOM     19  O   LIG A   1      -9.873   2.911 129.867  0.00  0.00    -0.297 OA
ATOM     20  C   LIG A   1      -8.834   3.264 130.458  0.00  0.00    +0.137 C 
BRANCH  20  21
ATOM     21  C   LIG A   1      -7.532   3.451 129.695  0.00  0.00    +0.074 C 
BRANCH  21  22
ATOM     22  C   LIG A   1      -6.236   3.027 130.387  0.00  0.00    +0.007 C 
BRANCH  22  23
ATOM     23  C   LIG A   1      -5.025   3.017 129.447  0.00  0.00    -0.003 C 
ATOM     24  C   LIG A   1      -3.801   3.648 130.096  0.00  0.00    +0.004 C 
ENDBRANCH  22  23
ENDBRANCH  21  22
ENDBRANCH  20  21
ENDBRANCH  18  20
ENDBRANCH   1  18
TORSDOF 6
ENDMDL
MODEL 8
REMARK VINA RESULT:      -6.7      7.396     10.196
REMARK  Name = NuBBE_1373
REMARK  7 active torsions:
REMARK  status: ('A' for Active; 'I' for Inactive)
REMARK    1  A    between atoms: C_2  and  C_3
REMARK    2  A    between atoms: C_2  and  C_7
REMARK    3  A    between atoms: C_3  and  C_4
REMARK    4  A    between atoms: C_4  and  C_5
REMARK    5  A    between atoms: C_5  and  C_6
REMARK    6  A    between atoms: C_7  and  C_8
REMARK    7  A    between atoms: C_8  and  O_9
REMARK                            x       y       z     vdW  Elec       q    Type
REMARK                         _______ _______ _______ _____ _____    ______ ____
ROOT
ATOM      1  C   LIG A   1      -5.679   5.428 130.297  0.00  0.00    +0.160 C 
ATOM      2  C   LIG A   1      -5.534   4.065 130.967  0.00  0.00    -0.001 A 
ATOM      3  C   LIG A   1      -6.570   3.114 130.864  0.00  0.00    +0.007 A 
ATOM      4  C   LIG A   1      -6.550   1.945 131.617  0.00  0.00    +0.000 A 
ATOM      5  C   LIG A   1      -5.475   1.689 132.452  0.00  0.00    +0.001 A 
ATOM      6  C   LIG A   1      -4.394   2.575 132.490  0.00  0.00    +0.009 A 
ATOM      7  C   LIG A   1      -4.384   3.764 131.726  0.00  0.00    -0.011 A 
ATOM      8  C   LIG A   1      -3.209   4.665 131.670  0.00  0.00    -0.007 A 
ATOM      9  C   LIG A   1      -2.098   4.548 132.526  0.00  0.00    +0.009 A 
ATOM     10  C   LIG A   1      -1.029   5.451 132.472  0.00  0.00    +0.001 A 
ATOM     11  C   LIG A   1      -1.012   6.459 131.513  0.00  0.00    +0.001 A 
ATOM     12  C   LIG A   1      -2.051   6.556 130.603  0.00  0.00    +0.012 A 
ATOM     13  C   LIG A   1      -3.158   5.697 130.697  0.00  0.00    +0.028 A 
ATOM     14  C   LIG A   1      -4.323   5.931 129.814  0.00  0.00    +0.200 C 
ATOM     15  O   LIG A   1      -4.190   6.575 128.751  0.00  0.00    -0.289 OA
ENDROOT
BRANCH   1  16
ATOM     16  O   LIG A   1      -6.506   5.291 129.123  0.00  0.00    -0.376 OA
ATOM     17  H   LIG A   1      -7.429   5.339 129.447  0.00  0.00    +0.211 HD
ENDBRANCH   1  16
BRANCH   1  18
ATOM     18  C   LIG A   1      -6.289   6.546 131.181  0.00  0.00    +0.122 C 
BRANCH  18  20
ATOM     19  O   LIG A   1      -8.490   7.245 130.511  0.00  0.00    -0.297 OA
ATOM     20  C   LIG A   1      -7.809   6.602 131.333  0.00  0.00    +0.137 C 
BRANCH  20  21
ATOM     21  C   LIG A   1      -8.443   6.027 132.588  0.00  0.00    +0.074 C 
BRANCH  21  22
ATOM     22  C   LIG A   1      -7.511   5.547 133.701  0.00  0.00    +0.007 C 
BRANCH  22  23
ATOM     23  C   LIG A   1      -8.015   4.286 134.411  0.00  0.00    -0.003 C 
ATOM     24  C   LIG A   1      -9.161   3.631 133.652  0.00  0.00    +0.004 C 
ENDBRANCH  22  23
ENDBRANCH  21  22
ENDBRANCH  20  21
ENDBRANCH  18  20
ENDBRANCH   1  18
TORSDOF 6
ENDMDL
MODEL 9
REMARK VINA RESULT:      -6.7      2.558      4.521
REMARK  Name = NuBBE_1373
REMARK  7 active torsions:
REMARK  status: ('A' for Active; 'I' for Inactive)
REMARK    1  A    between atoms: C_2  and  C_3
REMARK    2  A    between atoms: C_2  and  C_7
REMARK    3  A    between atoms: C_3  and  C_4
REMARK    4  A    between atoms: C_4  and  C_5
REMARK    5  A    between atoms: C_5  and  C_6
REMARK    6  A    between atoms: C_7  and  C_8
REMARK    7  A    between atoms: C_8  and  O_9
REMARK                            x       y       z     vdW  Elec       q    Type
REMARK                         _______ _______ _______ _____ _____    ______ ____
ROOT
ATOM      1  C   LIG A   1      -8.635   1.080 125.067  0.00  0.00    +0.160 C 
ATOM      2  C   LIG A   1      -8.080   0.603 126.406  0.00  0.00    -0.001 A 
ATOM      3  C   LIG A   1      -8.574   1.148 127.609  0.00  0.00    +0.007 A 
ATOM      4  C   LIG A   1      -7.960   0.877 128.827  0.00  0.00    +0.000 A 
ATOM      5  C   LIG A   1      -6.870   0.024 128.866  0.00  0.00    +0.001 A 
ATOM      6  C   LIG A   1      -6.430  -0.601 127.696  0.00  0.00    +0.009 A 
ATOM      7  C   LIG A   1      -7.043  -0.352 126.448  0.00  0.00    -0.011 A 
ATOM      8  C   LIG A   1      -6.663  -1.079 125.213  0.00  0.00    -0.007 A 
ATOM      9  C   LIG A   1      -5.529  -1.907 125.117  0.00  0.00    +0.009 A 
ATOM     10  C   LIG A   1      -5.178  -2.538 123.917  0.00  0.00    +0.001 A 
ATOM     11  C   LIG A   1      -5.992  -2.410 122.796  0.00  0.00    +0.001 A 
ATOM     12  C   LIG A   1      -7.157  -1.668 122.876  0.00  0.00    +0.012 A 
ATOM     13  C   LIG A   1      -7.477  -0.977 124.056  0.00  0.00    +0.028 A 
ATOM     14  C   LIG A   1      -8.643  -0.063 124.057  0.00  0.00    +0.200 C 
ATOM     15  O   LIG A   1      -9.553  -0.201 123.212  0.00  0.00    -0.289 OA
ENDROOT
BRANCH   1  16
ATOM     16  O   LIG A   1     -10.009   1.481 125.241  0.00  0.00    -0.376 OA
ATOM     17  H   LIG A   1     -10.478   1.160 124.443  0.00  0.00    +0.211 HD
ENDBRANCH   1  16
BRANCH   1  18
ATOM     18  C   LIG A   1      -7.874   2.260 124.410  0.00  0.00    +0.122 C 
BRANCH  18  20
ATOM     19  O   LIG A   1      -8.773   4.331 125.239  0.00  0.00    -0.297 OA
ATOM     20  C   LIG A   1      -7.781   3.579 125.177  0.00  0.00    +0.137 C 
BRANCH  20  21
ATOM     21  C   LIG A   1      -6.426   4.035 125.692  0.00  0.00    +0.074 C 
BRANCH  21  22
ATOM     22  C   LIG A   1      -6.152   3.898 127.191  0.00  0.00    +0.007 C 
BRANCH  22  23
ATOM     23  C   LIG A   1      -4.984   2.957 127.508  0.00  0.00    -0.003 C 
ATOM     24  C   LIG A   1      -4.485   2.236 126.263  0.00  0.00    +0.004 C 
ENDBRANCH  22  23
ENDBRANCH  21  22
ENDBRANCH  20  21
ENDBRANCH  18  20
ENDBRANCH   1  18
TORSDOF 6
ENDMDL
