MODEL 1
REMARK VINA RESULT:      -7.5      0.000      0.000
REMARK  Name = NuBBE_1890
REMARK  16 active torsions:
REMARK  status: ('A' for Active; 'I' for Inactive)
REMARK    1  A    between atoms: C_4  and  O_5
REMARK    2  A    between atoms: O_5  and  C_6
REMARK    3  A    between atoms: C_6  and  C_7
REMARK    4  A    between atoms: C_10  and  O_34
REMARK    5  A    between atoms: C_14  and  C_15
REMARK    6  A    between atoms: C_17  and  O_18
REMARK    7  A    between atoms: O_18  and  C_19
REMARK    8  A    between atoms: C_19  and  C_20
REMARK    9  A    between atoms: C_22  and  O_29
REMARK   10  A    between atoms: C_24  and  O_25
REMARK   11  A    between atoms: O_25  and  C_26
REMARK   12  A    between atoms: C_26  and  C_27
REMARK   13  A    between atoms: O_29  and  C_30
REMARK   14  A    between atoms: C_31  and  O_32
REMARK   15  A    between atoms: O_32  and  C_33
REMARK   16  A    between atoms: O_34  and  C_35
REMARK                            x       y       z     vdW  Elec       q    Type
REMARK                         _______ _______ _______ _____ _____    ______ ____
ROOT
ATOM      1  O   LIG A   1      -7.933   5.115 129.045  0.00  0.00    -0.283 OA
ATOM      2  C   LIG A   1      -7.393   4.149 128.518  0.00  0.00    +0.238 A 
ATOM      3  C   LIG A   1      -5.950   4.172 128.211  0.00  0.00    +0.110 A 
ATOM      4  C   LIG A   1      -5.025   4.962 128.904  0.00  0.00    +0.149 A 
ATOM      5  C   LIG A   1      -3.671   4.928 128.556  0.00  0.00    +0.092 A 
ATOM      6  C   LIG A   1      -3.259   4.155 127.462  0.00  0.00    +0.127 A 
ATOM      7  C   LIG A   1      -4.186   3.368 126.776  0.00  0.00    +0.092 A 
ATOM      8  C   LIG A   1      -5.519   3.356 127.174  0.00  0.00    +0.147 A 
ATOM      9  O   LIG A   1      -6.355   2.490 126.521  0.00  0.00    -0.451 OA
ATOM     10  C   LIG A   1      -7.538   2.156 127.160  0.00  0.00    +0.184 A 
ATOM     11  C   LIG A   1      -8.120   2.898 128.124  0.00  0.00    +0.211 A 
ENDROOT
BRANCH  10  12
ATOM     12  C   LIG A   1      -8.095   0.878 126.672  0.00  0.00    +0.067 A 
ATOM     13  C   LIG A   1      -7.606  -0.332 127.201  0.00  0.00    +0.065 A 
ATOM     14  C   LIG A   1      -8.109  -1.551 126.728  0.00  0.00    +0.174 A 
ATOM     15  C   LIG A   1      -9.099  -1.595 125.735  0.00  0.00    +0.166 A 
ATOM     16  C   LIG A   1      -9.565  -0.400 125.195  0.00  0.00    +0.096 A 
ATOM     17  C   LIG A   1      -9.088   0.822 125.680  0.00  0.00    +0.146 A 
BRANCH  15  18
ATOM     18  O   LIG A   1      -9.655  -2.810 125.429  0.00  0.00    -0.491 OA
ATOM     19  C   LIG A   1      -9.405  -3.275 124.105  0.00  0.00    +0.277 C 
ENDBRANCH  15  18
BRANCH  14  20
ATOM     20  O   LIG A   1      -7.697  -2.716 127.409  0.00  0.00    -0.422 OA
BRANCH  20  21
ATOM     21  C   LIG A   1      -8.316  -3.026 128.623  0.00  0.00    +0.309 C 
ATOM     22  C   LIG A   1      -9.260  -4.167 128.393  0.00  0.00    +0.136 C 
ATOM     23  O   LIG A   1      -8.158  -2.456 129.695  0.00  0.00    -0.251 OA
ENDBRANCH  20  21
ENDBRANCH  14  20
BRANCH  17  24
ATOM     24  O   LIG A   1      -9.558   2.049 125.160  0.00  0.00    -0.425 OA
BRANCH  24  25
ATOM     25  C   LIG A   1      -8.954   2.679 124.060  0.00  0.00    +0.309 C 
ATOM     26  C   LIG A   1      -9.320   1.926 122.828  0.00  0.00    +0.136 C 
ATOM     27  O   LIG A   1      -8.240   3.669 124.082  0.00  0.00    -0.251 OA
ENDBRANCH  24  25
ENDBRANCH  17  24
ENDBRANCH  10  12
BRANCH  11  28
ATOM     28  O   LIG A   1      -9.281   2.473 128.748  0.00  0.00    -0.488 OA
ATOM     29  C   LIG A   1      -9.175   2.106 130.118  0.00  0.00    +0.277 C 
ENDBRANCH  11  28
BRANCH   6  30
ATOM     30  O   LIG A   1      -1.921   4.187 127.170  0.00  0.00    -0.495 OA
ATOM     31  C   LIG A   1      -1.412   3.012 126.540  0.00  0.00    +0.277 C 
ENDBRANCH   6  30
BRANCH   4  32
ATOM     32  O   LIG A   1      -5.517   5.699 130.006  0.00  0.00    -0.425 OA
BRANCH  32  33
ATOM     33  C   LIG A   1      -4.984   6.894 130.488  0.00  0.00    +0.309 C 
ATOM     34  C   LIG A   1      -4.425   6.634 131.860  0.00  0.00    +0.136 C 
ATOM     35  O   LIG A   1      -5.014   7.984 129.938  0.00  0.00    -0.251 OA
ENDBRANCH  32  33
ENDBRANCH   4  32
TORSDOF 10
ENDMDL
MODEL 2
REMARK VINA RESULT:      -7.3      2.681      6.792
REMARK  Name = NuBBE_1890
REMARK  16 active torsions:
REMARK  status: ('A' for Active; 'I' for Inactive)
REMARK    1  A    between atoms: C_4  and  O_5
REMARK    2  A    between atoms: O_5  and  C_6
REMARK    3  A    between atoms: C_6  and  C_7
REMARK    4  A    between atoms: C_10  and  O_34
REMARK    5  A    between atoms: C_14  and  C_15
REMARK    6  A    between atoms: C_17  and  O_18
REMARK    7  A    between atoms: O_18  and  C_19
REMARK    8  A    between atoms: C_19  and  C_20
REMARK    9  A    between atoms: C_22  and  O_29
REMARK   10  A    between atoms: C_24  and  O_25
REMARK   11  A    between atoms: O_25  and  C_26
REMARK   12  A    between atoms: C_26  and  C_27
REMARK   13  A    between atoms: O_29  and  C_30
REMARK   14  A    between atoms: C_31  and  O_32
REMARK   15  A    between atoms: O_32  and  C_33
REMARK   16  A    between atoms: O_34  and  C_35
REMARK                            x       y       z     vdW  Elec       q    Type
REMARK                         _______ _______ _______ _____ _____    ______ ____
ROOT
ATOM      1  O   LIG A   1      -7.346   4.480 125.102  0.00  0.00    -0.283 OA
ATOM      2  C   LIG A   1      -7.598   3.563 125.876  0.00  0.00    +0.238 A 
ATOM      3  C   LIG A   1      -8.000   2.239 125.365  0.00  0.00    +0.110 A 
ATOM      4  C   LIG A   1      -7.643   1.758 124.100  0.00  0.00    +0.149 A 
ATOM      5  C   LIG A   1      -8.060   0.489 123.686  0.00  0.00    +0.092 A 
ATOM      6  C   LIG A   1      -8.900  -0.265 124.517  0.00  0.00    +0.127 A 
ATOM      7  C   LIG A   1      -9.252   0.219 125.778  0.00  0.00    +0.092 A 
ATOM      8  C   LIG A   1      -8.774   1.453 126.208  0.00  0.00    +0.147 A 
ATOM      9  O   LIG A   1      -9.077   1.825 127.490  0.00  0.00    -0.451 OA
ATOM     10  C   LIG A   1      -8.285   2.805 128.065  0.00  0.00    +0.184 A 
ATOM     11  C   LIG A   1      -7.547   3.695 127.369  0.00  0.00    +0.211 A 
ENDROOT
BRANCH  10  12
ATOM     12  C   LIG A   1      -8.327   2.765 129.540  0.00  0.00    +0.067 A 
ATOM     13  C   LIG A   1      -7.436   1.922 130.232  0.00  0.00    +0.065 A 
ATOM     14  C   LIG A   1      -7.483   1.857 131.630  0.00  0.00    +0.174 A 
ATOM     15  C   LIG A   1      -8.403   2.620 132.365  0.00  0.00    +0.166 A 
ATOM     16  C   LIG A   1      -9.301   3.434 131.681  0.00  0.00    +0.096 A 
ATOM     17  C   LIG A   1      -9.242   3.526 130.286  0.00  0.00    +0.146 A 
BRANCH  15  18
ATOM     18  O   LIG A   1      -8.295   2.626 133.731  0.00  0.00    -0.491 OA
ATOM     19  C   LIG A   1      -8.244   3.917 134.331  0.00  0.00    +0.277 C 
ENDBRANCH  15  18
BRANCH  14  20
ATOM     20  O   LIG A   1      -6.462   1.121 132.268  0.00  0.00    -0.422 OA
BRANCH  20  21
ATOM     21  C   LIG A   1      -6.683  -0.235 132.519  0.00  0.00    +0.309 C 
ATOM     22  C   LIG A   1      -5.720  -1.033 131.694  0.00  0.00    +0.136 C 
ATOM     23  O   LIG A   1      -7.535  -0.716 133.256  0.00  0.00    -0.251 OA
ENDBRANCH  20  21
ENDBRANCH  14  20
BRANCH  17  24
ATOM     24  O   LIG A   1     -10.132   4.358 129.571  0.00  0.00    -0.425 OA
BRANCH  24  25
ATOM     25  C   LIG A   1     -10.092   5.759 129.666  0.00  0.00    +0.309 C 
ATOM     26  C   LIG A   1     -11.407   6.231 130.182  0.00  0.00    +0.136 C 
ATOM     27  O   LIG A   1      -9.159   6.488 129.373  0.00  0.00    -0.251 OA
ENDBRANCH  24  25
ENDBRANCH  17  24
ENDBRANCH  10  12
BRANCH  11  28
ATOM     28  O   LIG A   1      -6.744   4.618 128.018  0.00  0.00    -0.488 OA
ATOM     29  C   LIG A   1      -5.342   4.373 127.998  0.00  0.00    +0.277 C 
ENDBRANCH  11  28
BRANCH   6  30
ATOM     30  O   LIG A   1      -9.283  -1.489 124.036  0.00  0.00    -0.495 OA
ATOM     31  C   LIG A   1      -8.215  -2.405 123.793  0.00  0.00    +0.277 C 
ENDBRANCH   6  30
BRANCH   4  32
ATOM     32  O   LIG A   1      -6.779   2.571 123.330  0.00  0.00    -0.425 OA
BRANCH  32  33
ATOM     33  C   LIG A   1      -7.063   3.095 122.070  0.00  0.00    +0.309 C 
ATOM     34  C   LIG A   1      -5.764   3.259 121.330  0.00  0.00    +0.136 C 
ATOM     35  O   LIG A   1      -8.159   3.429 121.646  0.00  0.00    -0.251 OA
ENDBRANCH  32  33
ENDBRANCH   4  32
TORSDOF 10
ENDMDL
MODEL 3
REMARK VINA RESULT:      -7.2      2.652      7.436
REMARK  Name = NuBBE_1890
REMARK  16 active torsions:
REMARK  status: ('A' for Active; 'I' for Inactive)
REMARK    1  A    between atoms: C_4  and  O_5
REMARK    2  A    between atoms: O_5  and  C_6
REMARK    3  A    between atoms: C_6  and  C_7
REMARK    4  A    between atoms: C_10  and  O_34
REMARK    5  A    between atoms: C_14  and  C_15
REMARK    6  A    between atoms: C_17  and  O_18
REMARK    7  A    between atoms: O_18  and  C_19
REMARK    8  A    between atoms: C_19  and  C_20
REMARK    9  A    between atoms: C_22  and  O_29
REMARK   10  A    between atoms: C_24  and  O_25
REMARK   11  A    between atoms: O_25  and  C_26
REMARK   12  A    between atoms: C_26  and  C_27
REMARK   13  A    between atoms: O_29  and  C_30
REMARK   14  A    between atoms: C_31  and  O_32
REMARK   15  A    between atoms: O_32  and  C_33
REMARK   16  A    between atoms: O_34  and  C_35
REMARK                            x       y       z     vdW  Elec       q    Type
REMARK                         _______ _______ _______ _____ _____    ______ ____
ROOT
ATOM      1  O   LIG A   1      -7.122   4.499 124.907  0.00  0.00    -0.283 OA
ATOM      2  C   LIG A   1      -7.410   3.602 125.691  0.00  0.00    +0.238 A 
ATOM      3  C   LIG A   1      -7.887   2.296 125.196  0.00  0.00    +0.110 A 
ATOM      4  C   LIG A   1      -7.572   1.790 123.929  0.00  0.00    +0.149 A 
ATOM      5  C   LIG A   1      -8.060   0.541 123.531  0.00  0.00    +0.092 A 
ATOM      6  C   LIG A   1      -8.926  -0.164 124.378  0.00  0.00    +0.127 A 
ATOM      7  C   LIG A   1      -9.235   0.347 125.640  0.00  0.00    +0.092 A 
ATOM      8  C   LIG A   1      -8.688   1.557 126.054  0.00  0.00    +0.147 A 
ATOM      9  O   LIG A   1      -8.954   1.953 127.338  0.00  0.00    -0.451 OA
ATOM     10  C   LIG A   1      -8.104   2.895 127.895  0.00  0.00    +0.184 A 
ATOM     11  C   LIG A   1      -7.332   3.740 127.183  0.00  0.00    +0.211 A 
ENDROOT
BRANCH  10  12
ATOM     12  C   LIG A   1      -8.128   2.867 129.371  0.00  0.00    +0.067 A 
ATOM     13  C   LIG A   1      -9.026   3.704 130.061  0.00  0.00    +0.065 A 
ATOM     14  C   LIG A   1      -9.040   3.703 131.462  0.00  0.00    +0.174 A 
ATOM     15  C   LIG A   1      -8.177   2.880 132.199  0.00  0.00    +0.166 A 
ATOM     16  C   LIG A   1      -7.272   2.071 131.519  0.00  0.00    +0.096 A 
ATOM     17  C   LIG A   1      -7.270   2.044 130.119  0.00  0.00    +0.146 A 
BRANCH  15  18
ATOM     18  O   LIG A   1      -8.347   2.815 133.558  0.00  0.00    -0.491 OA
ATOM     19  C   LIG A   1      -7.515   3.689 134.317  0.00  0.00    +0.277 C 
ENDBRANCH  15  18
BRANCH  14  20
ATOM     20  O   LIG A   1     -10.068   4.440 132.087  0.00  0.00    -0.422 OA
BRANCH  20  21
ATOM     21  C   LIG A   1      -9.934   5.829 132.163  0.00  0.00    +0.309 C 
ATOM     22  C   LIG A   1     -11.197   6.454 131.655  0.00  0.00    +0.136 C 
ATOM     23  O   LIG A   1      -8.951   6.452 132.543  0.00  0.00    -0.251 OA
ENDBRANCH  20  21
ENDBRANCH  14  20
BRANCH  17  24
ATOM     24  O   LIG A   1      -6.372   1.219 129.406  0.00  0.00    -0.425 OA
BRANCH  24  25
ATOM     25  C   LIG A   1      -6.285  -0.165 129.628  0.00  0.00    +0.309 C 
ATOM     26  C   LIG A   1      -7.490  -0.811 129.039  0.00  0.00    +0.136 C 
ATOM     27  O   LIG A   1      -5.391  -0.760 130.208  0.00  0.00    -0.251 OA
ENDBRANCH  24  25
ENDBRANCH  17  24
ENDBRANCH  10  12
BRANCH  11  28
ATOM     28  O   LIG A   1      -6.473   4.625 127.813  0.00  0.00    -0.488 OA
ATOM     29  C   LIG A   1      -5.090   4.287 127.812  0.00  0.00    +0.277 C 
ENDBRANCH  11  28
BRANCH   6  30
ATOM     30  O   LIG A   1      -9.379  -1.369 123.912  0.00  0.00    -0.495 OA
ATOM     31  C   LIG A   1      -8.782  -2.515 124.520  0.00  0.00    +0.277 C 
ENDBRANCH   6  30
BRANCH   4  32
ATOM     32  O   LIG A   1      -6.678   2.552 123.142  0.00  0.00    -0.425 OA
BRANCH  32  33
ATOM     33  C   LIG A   1      -6.964   3.109 121.896  0.00  0.00    +0.309 C 
ATOM     34  C   LIG A   1      -5.670   3.251 121.142  0.00  0.00    +0.136 C 
ATOM     35  O   LIG A   1      -8.055   3.484 121.494  0.00  0.00    -0.251 OA
ENDBRANCH  32  33
ENDBRANCH   4  32
TORSDOF 10
ENDMDL
MODEL 4
REMARK VINA RESULT:      -7.2      2.393      7.769
REMARK  Name = NuBBE_1890
REMARK  16 active torsions:
REMARK  status: ('A' for Active; 'I' for Inactive)
REMARK    1  A    between atoms: C_4  and  O_5
REMARK    2  A    between atoms: O_5  and  C_6
REMARK    3  A    between atoms: C_6  and  C_7
REMARK    4  A    between atoms: C_10  and  O_34
REMARK    5  A    between atoms: C_14  and  C_15
REMARK    6  A    between atoms: C_17  and  O_18
REMARK    7  A    between atoms: O_18  and  C_19
REMARK    8  A    between atoms: C_19  and  C_20
REMARK    9  A    between atoms: C_22  and  O_29
REMARK   10  A    between atoms: C_24  and  O_25
REMARK   11  A    between atoms: O_25  and  C_26
REMARK   12  A    between atoms: C_26  and  C_27
REMARK   13  A    between atoms: O_29  and  C_30
REMARK   14  A    between atoms: C_31  and  O_32
REMARK   15  A    between atoms: O_32  and  C_33
REMARK   16  A    between atoms: O_34  and  C_35
REMARK                            x       y       z     vdW  Elec       q    Type
REMARK                         _______ _______ _______ _____ _____    ______ ____
ROOT
ATOM      1  O   LIG A   1      -6.380  -0.643 126.860  0.00  0.00    -0.283 OA
ATOM      2  C   LIG A   1      -6.988   0.421 126.886  0.00  0.00    +0.238 A 
ATOM      3  C   LIG A   1      -7.590   0.972 125.657  0.00  0.00    +0.110 A 
ATOM      4  C   LIG A   1      -7.983   0.183 124.570  0.00  0.00    +0.149 A 
ATOM      5  C   LIG A   1      -8.551   0.779 123.439  0.00  0.00    +0.092 A 
ATOM      6  C   LIG A   1      -8.654   2.175 123.372  0.00  0.00    +0.127 A 
ATOM      7  C   LIG A   1      -8.261   2.956 124.461  0.00  0.00    +0.092 A 
ATOM      8  C   LIG A   1      -7.762   2.348 125.609  0.00  0.00    +0.147 A 
ATOM      9  O   LIG A   1      -7.486   3.164 126.674  0.00  0.00    -0.451 OA
ATOM     10  C   LIG A   1      -7.405   2.565 127.921  0.00  0.00    +0.184 A 
ATOM     11  C   LIG A   1      -7.158   1.254 128.122  0.00  0.00    +0.211 A 
ENDROOT
BRANCH  10  12
ATOM     12  C   LIG A   1      -7.633   3.525 129.019  0.00  0.00    +0.067 A 
ATOM     13  C   LIG A   1      -8.944   3.741 129.484  0.00  0.00    +0.065 A 
ATOM     14  C   LIG A   1      -9.175   4.668 130.509  0.00  0.00    +0.174 A 
ATOM     15  C   LIG A   1      -8.122   5.390 131.089  0.00  0.00    +0.166 A 
ATOM     16  C   LIG A   1      -6.829   5.196 130.612  0.00  0.00    +0.096 A 
ATOM     17  C   LIG A   1      -6.585   4.252 129.608  0.00  0.00    +0.146 A 
BRANCH  15  18
ATOM     18  O   LIG A   1      -8.395   6.165 132.186  0.00  0.00    -0.491 OA
ATOM     19  C   LIG A   1      -8.083   5.570 133.442  0.00  0.00    +0.277 C 
ENDBRANCH  15  18
BRANCH  14  20
ATOM     20  O   LIG A   1     -10.482   4.718 131.038  0.00  0.00    -0.422 OA
BRANCH  20  21
ATOM     21  C   LIG A   1     -11.395   5.604 130.460  0.00  0.00    +0.309 C 
ATOM     22  C   LIG A   1     -11.822   6.590 131.503  0.00  0.00    +0.136 C 
ATOM     23  O   LIG A   1     -11.817   5.577 129.310  0.00  0.00    -0.251 OA
ENDBRANCH  20  21
ENDBRANCH  14  20
BRANCH  17  24
ATOM     24  O   LIG A   1      -5.280   4.025 129.120  0.00  0.00    -0.425 OA
BRANCH  24  25
ATOM     25  C   LIG A   1      -4.627   4.932 128.269  0.00  0.00    +0.309 C 
ATOM     26  C   LIG A   1      -3.225   5.094 128.743  0.00  0.00    +0.136 C 
ATOM     27  O   LIG A   1      -5.106   5.509 127.306  0.00  0.00    -0.251 OA
ENDBRANCH  24  25
ENDBRANCH  17  24
ENDBRANCH  10  12
BRANCH  11  28
ATOM     28  O   LIG A   1      -7.137   0.720 129.400  0.00  0.00    -0.488 OA
ATOM     29  C   LIG A   1      -5.859   0.546 130.001  0.00  0.00    +0.277 C 
ENDBRANCH  11  28
BRANCH   6  30
ATOM     30  O   LIG A   1      -9.201   2.686 122.225  0.00  0.00    -0.495 OA
ATOM     31  C   LIG A   1      -8.306   3.451 121.417  0.00  0.00    +0.277 C 
ENDBRANCH   6  30
BRANCH   4  32
ATOM     32  O   LIG A   1      -7.865  -1.217 124.722  0.00  0.00    -0.425 OA
BRANCH  32  33
ATOM     33  C   LIG A   1      -8.925  -2.115 124.847  0.00  0.00    +0.309 C 
ATOM     34  C   LIG A   1      -8.792  -3.146 123.760  0.00  0.00    +0.136 C 
ATOM     35  O   LIG A   1      -9.844  -2.055 125.649  0.00  0.00    -0.251 OA
ENDBRANCH  32  33
ENDBRANCH   4  32
TORSDOF 10
ENDMDL
MODEL 5
REMARK VINA RESULT:      -7.2      3.551      7.597
REMARK  Name = NuBBE_1890
REMARK  16 active torsions:
REMARK  status: ('A' for Active; 'I' for Inactive)
REMARK    1  A    between atoms: C_4  and  O_5
REMARK    2  A    between atoms: O_5  and  C_6
REMARK    3  A    between atoms: C_6  and  C_7
REMARK    4  A    between atoms: C_10  and  O_34
REMARK    5  A    between atoms: C_14  and  C_15
REMARK    6  A    between atoms: C_17  and  O_18
REMARK    7  A    between atoms: O_18  and  C_19
REMARK    8  A    between atoms: C_19  and  C_20
REMARK    9  A    between atoms: C_22  and  O_29
REMARK   10  A    between atoms: C_24  and  O_25
REMARK   11  A    between atoms: O_25  and  C_26
REMARK   12  A    between atoms: C_26  and  C_27
REMARK   13  A    between atoms: O_29  and  C_30
REMARK   14  A    between atoms: C_31  and  O_32
REMARK   15  A    between atoms: O_32  and  C_33
REMARK   16  A    between atoms: O_34  and  C_35
REMARK                            x       y       z     vdW  Elec       q    Type
REMARK                         _______ _______ _______ _____ _____    ______ ____
ROOT
ATOM      1  O   LIG A   1      -6.598  -2.755 125.392  0.00  0.00    -0.283 OA
ATOM      2  C   LIG A   1      -6.725  -1.723 126.041  0.00  0.00    +0.238 A 
ATOM      3  C   LIG A   1      -6.786  -0.413 125.364  0.00  0.00    +0.110 A 
ATOM      4  C   LIG A   1      -7.221  -0.246 124.043  0.00  0.00    +0.149 A 
ATOM      5  C   LIG A   1      -7.253   1.029 123.470  0.00  0.00    +0.092 A 
ATOM      6  C   LIG A   1      -6.777   2.126 124.201  0.00  0.00    +0.127 A 
ATOM      7  C   LIG A   1      -6.346   1.953 125.518  0.00  0.00    +0.092 A 
ATOM      8  C   LIG A   1      -6.383   0.691 126.102  0.00  0.00    +0.147 A 
ATOM      9  O   LIG A   1      -6.038   0.607 127.424  0.00  0.00    -0.451 OA
ATOM     10  C   LIG A   1      -6.466  -0.514 128.117  0.00  0.00    +0.184 A 
ATOM     11  C   LIG A   1      -6.806  -1.683 127.538  0.00  0.00    +0.211 A 
ENDROOT
BRANCH  10  12
ATOM     12  C   LIG A   1      -6.519  -0.284 129.574  0.00  0.00    +0.067 A 
ATOM     13  C   LIG A   1      -7.712   0.188 130.153  0.00  0.00    +0.065 A 
ATOM     14  C   LIG A   1      -7.767   0.433 131.532  0.00  0.00    +0.174 A 
ATOM     15  C   LIG A   1      -6.654   0.214 132.356  0.00  0.00    +0.166 A 
ATOM     16  C   LIG A   1      -5.466  -0.229 131.780  0.00  0.00    +0.096 A 
ATOM     17  C   LIG A   1      -5.410  -0.502 130.409  0.00  0.00    +0.146 A 
BRANCH  15  18
ATOM     18  O   LIG A   1      -6.819   0.327 133.711  0.00  0.00    -0.491 OA
ATOM     19  C   LIG A   1      -5.960   1.266 134.352  0.00  0.00    +0.277 C 
ENDBRANCH  15  18
BRANCH  14  20
ATOM     20  O   LIG A   1      -9.032   0.749 132.071  0.00  0.00    -0.422 OA
BRANCH  20  21
ATOM     21  C   LIG A   1      -9.504   2.056 131.929  0.00  0.00    +0.309 C 
ATOM     22  C   LIG A   1      -9.212   2.804 133.193  0.00  0.00    +0.136 C 
ATOM     23  O   LIG A   1     -10.090   2.524 130.961  0.00  0.00    -0.251 OA
ENDBRANCH  20  21
ENDBRANCH  14  20
BRANCH  17  24
ATOM     24  O   LIG A   1      -4.222  -0.968 129.805  0.00  0.00    -0.425 OA
BRANCH  24  25
ATOM     25  C   LIG A   1      -3.576  -2.143 130.223  0.00  0.00    +0.309 C 
ATOM     26  C   LIG A   1      -3.868  -3.217 129.234  0.00  0.00    +0.136 C 
ATOM     27  O   LIG A   1      -2.896  -2.289 131.226  0.00  0.00    -0.251 OA
ENDBRANCH  24  25
ENDBRANCH  17  24
ENDBRANCH  10  12
BRANCH  11  28
ATOM     28  O   LIG A   1      -7.269  -2.746 128.296  0.00  0.00    -0.488 OA
ATOM     29  C   LIG A   1      -8.580  -3.217 128.006  0.00  0.00    +0.277 C 
ENDBRANCH  11  28
BRANCH   6  30
ATOM     30  O   LIG A   1      -6.822   3.339 123.567  0.00  0.00    -0.495 OA
ATOM     31  C   LIG A   1      -5.907   4.315 124.064  0.00  0.00    +0.277 C 
ENDBRANCH   6  30
BRANCH   4  32
ATOM     32  O   LIG A   1      -7.703  -1.399 123.381  0.00  0.00    -0.425 OA
BRANCH  32  33
ATOM     33  C   LIG A   1      -9.039  -1.673 123.093  0.00  0.00    +0.309 C 
ATOM     34  C   LIG A   1      -9.281  -3.134 123.353  0.00  0.00    +0.136 C 
ATOM     35  O   LIG A   1      -9.867  -0.893 122.647  0.00  0.00    -0.251 OA
ENDBRANCH  32  33
ENDBRANCH   4  32
TORSDOF 10
ENDMDL
MODEL 6
REMARK VINA RESULT:      -7.2      1.969      3.972
REMARK  Name = NuBBE_1890
REMARK  16 active torsions:
REMARK  status: ('A' for Active; 'I' for Inactive)
REMARK    1  A    between atoms: C_4  and  O_5
REMARK    2  A    between atoms: O_5  and  C_6
REMARK    3  A    between atoms: C_6  and  C_7
REMARK    4  A    between atoms: C_10  and  O_34
REMARK    5  A    between atoms: C_14  and  C_15
REMARK    6  A    between atoms: C_17  and  O_18
REMARK    7  A    between atoms: O_18  and  C_19
REMARK    8  A    between atoms: C_19  and  C_20
REMARK    9  A    between atoms: C_22  and  O_29
REMARK   10  A    between atoms: C_24  and  O_25
REMARK   11  A    between atoms: O_25  and  C_26
REMARK   12  A    between atoms: C_26  and  C_27
REMARK   13  A    between atoms: O_29  and  C_30
REMARK   14  A    between atoms: C_31  and  O_32
REMARK   15  A    between atoms: O_32  and  C_33
REMARK   16  A    between atoms: O_34  and  C_35
REMARK                            x       y       z     vdW  Elec       q    Type
REMARK                         _______ _______ _______ _____ _____    ______ ____
ROOT
ATOM      1  O   LIG A   1      -4.936   3.088 129.973  0.00  0.00    -0.283 OA
ATOM      2  C   LIG A   1      -5.969   3.251 129.332  0.00  0.00    +0.238 A 
ATOM      3  C   LIG A   1      -6.954   4.270 129.743  0.00  0.00    +0.110 A 
ATOM      4  C   LIG A   1      -6.621   5.413 130.480  0.00  0.00    +0.149 A 
ATOM      5  C   LIG A   1      -7.611   6.336 130.830  0.00  0.00    +0.092 A 
ATOM      6  C   LIG A   1      -8.948   6.071 130.504  0.00  0.00    +0.127 A 
ATOM      7  C   LIG A   1      -9.273   4.929 129.768  0.00  0.00    +0.092 A 
ATOM      8  C   LIG A   1      -8.271   4.053 129.364  0.00  0.00    +0.147 A 
ATOM      9  O   LIG A   1      -8.645   3.006 128.565  0.00  0.00    -0.451 OA
ATOM     10  C   LIG A   1      -7.649   2.393 127.822  0.00  0.00    +0.184 A 
ATOM     11  C   LIG A   1      -6.335   2.446 128.121  0.00  0.00    +0.211 A 
ENDROOT
BRANCH  10  12
ATOM     12  C   LIG A   1      -8.186   1.677 126.649  0.00  0.00    +0.067 A 
ATOM     13  C   LIG A   1      -8.536   0.319 126.773  0.00  0.00    +0.065 A 
ATOM     14  C   LIG A   1      -9.024  -0.378 125.660  0.00  0.00    +0.174 A 
ATOM     15  C   LIG A   1      -9.175   0.251 124.415  0.00  0.00    +0.166 A 
ATOM     16  C   LIG A   1      -8.806   1.586 124.285  0.00  0.00    +0.096 A 
ATOM     17  C   LIG A   1      -8.344   2.297 125.399  0.00  0.00    +0.146 A 
BRANCH  15  18
ATOM     18  O   LIG A   1      -9.798  -0.443 123.410  0.00  0.00    -0.491 OA
ATOM     19  C   LIG A   1     -10.219   0.345 122.299  0.00  0.00    +0.277 C 
ENDBRANCH  15  18
BRANCH  14  20
ATOM     20  O   LIG A   1      -9.507  -1.684 125.889  0.00  0.00    -0.422 OA
BRANCH  20  21
ATOM     21  C   LIG A   1      -8.578  -2.722 126.000  0.00  0.00    +0.309 C 
ATOM     22  C   LIG A   1      -8.954  -3.568 127.178  0.00  0.00    +0.136 C 
ATOM     23  O   LIG A   1      -7.597  -2.909 125.291  0.00  0.00    -0.251 OA
ENDBRANCH  20  21
ENDBRANCH  14  20
BRANCH  17  24
ATOM     24  O   LIG A   1      -7.978   3.658 125.296  0.00  0.00    -0.425 OA
BRANCH  24  25
ATOM     25  C   LIG A   1      -6.814   4.076 124.631  0.00  0.00    +0.309 C 
ATOM     26  C   LIG A   1      -6.350   5.347 125.251  0.00  0.00    +0.136 C 
ATOM     27  O   LIG A   1      -6.263   3.517 123.696  0.00  0.00    -0.251 OA
ENDBRANCH  24  25
ENDBRANCH  17  24
ENDBRANCH  10  12
BRANCH  11  28
ATOM     28  O   LIG A   1      -5.393   1.844 127.304  0.00  0.00    -0.488 OA
ATOM     29  C   LIG A   1      -4.348   2.675 126.810  0.00  0.00    +0.277 C 
ENDBRANCH  11  28
BRANCH   6  30
ATOM     30  O   LIG A   1      -9.864   7.010 130.897  0.00  0.00    -0.495 OA
ATOM     31  C   LIG A   1     -11.099   6.485 131.381  0.00  0.00    +0.277 C 
ENDBRANCH   6  30
BRANCH   4  32
ATOM     32  O   LIG A   1      -5.249   5.617 130.753  0.00  0.00    -0.425 OA
BRANCH  32  33
ATOM     33  C   LIG A   1      -4.453   6.627 130.213  0.00  0.00    +0.309 C 
ATOM     34  C   LIG A   1      -3.686   7.267 131.338  0.00  0.00    +0.136 C 
ATOM     35  O   LIG A   1      -4.419   6.988 129.047  0.00  0.00    -0.251 OA
ENDBRANCH  32  33
ENDBRANCH   4  32
TORSDOF 10
ENDMDL
MODEL 7
REMARK VINA RESULT:      -7.2      2.527      3.978
REMARK  Name = NuBBE_1890
REMARK  16 active torsions:
REMARK  status: ('A' for Active; 'I' for Inactive)
REMARK    1  A    between atoms: C_4  and  O_5
REMARK    2  A    between atoms: O_5  and  C_6
REMARK    3  A    between atoms: C_6  and  C_7
REMARK    4  A    between atoms: C_10  and  O_34
REMARK    5  A    between atoms: C_14  and  C_15
REMARK    6  A    between atoms: C_17  and  O_18
REMARK    7  A    between atoms: O_18  and  C_19
REMARK    8  A    between atoms: C_19  and  C_20
REMARK    9  A    between atoms: C_22  and  O_29
REMARK   10  A    between atoms: C_24  and  O_25
REMARK   11  A    between atoms: O_25  and  C_26
REMARK   12  A    between atoms: C_26  and  C_27
REMARK   13  A    between atoms: O_29  and  C_30
REMARK   14  A    between atoms: C_31  and  O_32
REMARK   15  A    between atoms: O_32  and  C_33
REMARK   16  A    between atoms: O_34  and  C_35
REMARK                            x       y       z     vdW  Elec       q    Type
REMARK                         _______ _______ _______ _____ _____    ______ ____
ROOT
ATOM      1  O   LIG A   1      -4.318   4.539 126.157  0.00  0.00    -0.283 OA
ATOM      2  C   LIG A   1      -4.757   3.617 126.836  0.00  0.00    +0.238 A 
ATOM      3  C   LIG A   1      -4.551   3.598 128.297  0.00  0.00    +0.110 A 
ATOM      4  C   LIG A   1      -4.352   4.751 129.064  0.00  0.00    +0.149 A 
ATOM      5  C   LIG A   1      -4.166   4.653 130.446  0.00  0.00    +0.092 A 
ATOM      6  C   LIG A   1      -4.105   3.387 131.046  0.00  0.00    +0.127 A 
ATOM      7  C   LIG A   1      -4.305   2.240 130.275  0.00  0.00    +0.092 A 
ATOM      8  C   LIG A   1      -4.559   2.353 128.912  0.00  0.00    +0.147 A 
ATOM      9  O   LIG A   1      -4.842   1.198 128.233  0.00  0.00    -0.451 OA
ATOM     10  C   LIG A   1      -5.498   1.324 127.020  0.00  0.00    +0.184 A 
ATOM     11  C   LIG A   1      -5.504   2.445 126.270  0.00  0.00    +0.211 A 
ENDROOT
BRANCH  10  12
ATOM     12  C   LIG A   1      -6.207   0.088 126.636  0.00  0.00    +0.067 A 
ATOM     13  C   LIG A   1      -5.498  -0.938 125.983  0.00  0.00    +0.065 A 
ATOM     14  C   LIG A   1      -6.166  -2.106 125.592  0.00  0.00    +0.174 A 
ATOM     15  C   LIG A   1      -7.536  -2.279 125.839  0.00  0.00    +0.166 A 
ATOM     16  C   LIG A   1      -8.244  -1.255 126.462  0.00  0.00    +0.096 A 
ATOM     17  C   LIG A   1      -7.578  -0.097 126.881  0.00  0.00    +0.146 A 
BRANCH  15  18
ATOM     18  O   LIG A   1      -8.093  -3.502 125.570  0.00  0.00    -0.491 OA
ATOM     19  C   LIG A   1      -8.882  -3.562 124.385  0.00  0.00    +0.277 C 
ENDBRANCH  15  18
BRANCH  14  20
ATOM     20  O   LIG A   1      -5.369  -3.157 125.091  0.00  0.00    -0.422 OA
BRANCH  20  21
ATOM     21  C   LIG A   1      -5.162  -3.229 123.712  0.00  0.00    +0.309 C 
ATOM     22  C   LIG A   1      -4.239  -4.376 123.432  0.00  0.00    +0.136 C 
ATOM     23  O   LIG A   1      -5.617  -2.476 122.860  0.00  0.00    -0.251 OA
ENDBRANCH  20  21
ENDBRANCH  14  20
BRANCH  17  24
ATOM     24  O   LIG A   1      -8.271   0.950 127.529  0.00  0.00    -0.425 OA
BRANCH  24  25
ATOM     25  C   LIG A   1      -8.218   1.138 128.920  0.00  0.00    +0.309 C 
ATOM     26  C   LIG A   1      -8.372   2.592 129.203  0.00  0.00    +0.136 C 
ATOM     27  O   LIG A   1      -8.064   0.277 129.772  0.00  0.00    -0.251 OA
ENDBRANCH  24  25
ENDBRANCH  17  24
ENDBRANCH  10  12
BRANCH  11  28
ATOM     28  O   LIG A   1      -6.221   2.509 125.088  0.00  0.00    -0.488 OA
ATOM     29  C   LIG A   1      -7.400   3.308 125.095  0.00  0.00    +0.277 C 
ENDBRANCH  11  28
BRANCH   6  30
ATOM     30  O   LIG A   1      -3.901   3.369 132.400  0.00  0.00    -0.495 OA
ATOM     31  C   LIG A   1      -3.690   2.074 132.962  0.00  0.00    +0.277 C 
ENDBRANCH   6  30
BRANCH   4  32
ATOM     32  O   LIG A   1      -4.447   5.990 128.389  0.00  0.00    -0.425 OA
BRANCH  32  33
ATOM     33  C   LIG A   1      -3.658   7.113 128.635  0.00  0.00    +0.309 C 
ATOM     34  C   LIG A   1      -2.248   6.791 128.224  0.00  0.00    +0.136 C 
ATOM     35  O   LIG A   1      -4.016   8.160 129.152  0.00  0.00    -0.251 OA
ENDBRANCH  32  33
ENDBRANCH   4  32
TORSDOF 10
ENDMDL
MODEL 8
REMARK VINA RESULT:      -7.1      4.233      8.127
REMARK  Name = NuBBE_1890
REMARK  16 active torsions:
REMARK  status: ('A' for Active; 'I' for Inactive)
REMARK    1  A    between atoms: C_4  and  O_5
REMARK    2  A    between atoms: O_5  and  C_6
REMARK    3  A    between atoms: C_6  and  C_7
REMARK    4  A    between atoms: C_10  and  O_34
REMARK    5  A    between atoms: C_14  and  C_15
REMARK    6  A    between atoms: C_17  and  O_18
REMARK    7  A    between atoms: O_18  and  C_19
REMARK    8  A    between atoms: C_19  and  C_20
REMARK    9  A    between atoms: C_22  and  O_29
REMARK   10  A    between atoms: C_24  and  O_25
REMARK   11  A    between atoms: O_25  and  C_26
REMARK   12  A    between atoms: C_26  and  C_27
REMARK   13  A    between atoms: O_29  and  C_30
REMARK   14  A    between atoms: C_31  and  O_32
REMARK   15  A    between atoms: O_32  and  C_33
REMARK   16  A    between atoms: O_34  and  C_35
REMARK                            x       y       z     vdW  Elec       q    Type
REMARK                         _______ _______ _______ _____ _____    ______ ____
ROOT
ATOM      1  O   LIG A   1      -7.775   0.729 129.125  0.00  0.00    -0.283 OA
ATOM      2  C   LIG A   1      -7.580  -0.479 129.203  0.00  0.00    +0.238 A 
ATOM      3  C   LIG A   1      -7.863  -1.360 128.054  0.00  0.00    +0.110 A 
ATOM      4  C   LIG A   1      -7.849  -0.923 126.724  0.00  0.00    +0.149 A 
ATOM      5  C   LIG A   1      -8.125  -1.819 125.687  0.00  0.00    +0.092 A 
ATOM      6  C   LIG A   1      -8.487  -3.138 125.993  0.00  0.00    +0.127 A 
ATOM      7  C   LIG A   1      -8.498  -3.568 127.322  0.00  0.00    +0.092 A 
ATOM      8  C   LIG A   1      -8.154  -2.686 128.341  0.00  0.00    +0.147 A 
ATOM      9  O   LIG A   1      -8.091  -3.197 129.610  0.00  0.00    -0.451 OA
ATOM     10  C   LIG A   1      -7.360  -2.478 130.542  0.00  0.00    +0.184 A 
ATOM     11  C   LIG A   1      -7.074  -1.164 130.438  0.00  0.00    +0.211 A 
ENDROOT
BRANCH  10  12
ATOM     12  C   LIG A   1      -6.913  -3.318 131.671  0.00  0.00    +0.067 A 
ATOM     13  C   LIG A   1      -7.540  -3.178 132.924  0.00  0.00    +0.065 A 
ATOM     14  C   LIG A   1      -7.108  -3.952 134.008  0.00  0.00    +0.174 A 
ATOM     15  C   LIG A   1      -6.058  -4.873 133.874  0.00  0.00    +0.166 A 
ATOM     16  C   LIG A   1      -5.421  -4.994 132.643  0.00  0.00    +0.096 A 
ATOM     17  C   LIG A   1      -5.864  -4.245 131.547  0.00  0.00    +0.146 A 
BRANCH  15  18
ATOM     18  O   LIG A   1      -5.788  -5.705 134.930  0.00  0.00    -0.491 OA
ATOM     19  C   LIG A   1      -4.509  -6.332 134.896  0.00  0.00    +0.277 C 
ENDBRANCH  15  18
BRANCH  14  20
ATOM     20  O   LIG A   1      -7.880  -3.882 135.187  0.00  0.00    -0.422 OA
BRANCH  20  21
ATOM     21  C   LIG A   1      -7.468  -3.008 136.196  0.00  0.00    +0.309 C 
ATOM     22  C   LIG A   1      -7.699  -3.671 137.520  0.00  0.00    +0.136 C 
ATOM     23  O   LIG A   1      -7.023  -1.876 136.051  0.00  0.00    -0.251 OA
ENDBRANCH  20  21
ENDBRANCH  14  20
BRANCH  17  24
ATOM     24  O   LIG A   1      -5.245  -4.362 130.283  0.00  0.00    -0.425 OA
BRANCH  24  25
ATOM     25  C   LIG A   1      -4.102  -3.624 129.934  0.00  0.00    +0.309 C 
ATOM     26  C   LIG A   1      -4.350  -2.969 128.620  0.00  0.00    +0.136 C 
ATOM     27  O   LIG A   1      -3.068  -3.526 130.575  0.00  0.00    -0.251 OA
ENDBRANCH  24  25
ENDBRANCH  17  24
ENDBRANCH  10  12
BRANCH  11  28
ATOM     28  O   LIG A   1      -6.298  -0.525 131.390  0.00  0.00    -0.488 OA
ATOM     29  C   LIG A   1      -4.970  -0.183 131.010  0.00  0.00    +0.277 C 
ENDBRANCH  11  28
BRANCH   6  30
ATOM     30  O   LIG A   1      -8.762  -3.952 124.926  0.00  0.00    -0.495 OA
ATOM     31  C   LIG A   1      -9.334  -3.294 123.796  0.00  0.00    +0.277 C 
ENDBRANCH   6  30
BRANCH   4  32
ATOM     32  O   LIG A   1      -7.456   0.416 126.498  0.00  0.00    -0.425 OA
BRANCH  32  33
ATOM     33  C   LIG A   1      -6.471   0.835 125.603  0.00  0.00    +0.309 C 
ATOM     34  C   LIG A   1      -5.148   0.797 126.316  0.00  0.00    +0.136 C 
ATOM     35  O   LIG A   1      -6.641   1.228 124.459  0.00  0.00    -0.251 OA
ENDBRANCH  32  33
ENDBRANCH   4  32
TORSDOF 10
ENDMDL
MODEL 9
REMARK VINA RESULT:      -7.1      2.716      4.328
REMARK  Name = NuBBE_1890
REMARK  16 active torsions:
REMARK  status: ('A' for Active; 'I' for Inactive)
REMARK    1  A    between atoms: C_4  and  O_5
REMARK    2  A    between atoms: O_5  and  C_6
REMARK    3  A    between atoms: C_6  and  C_7
REMARK    4  A    between atoms: C_10  and  O_34
REMARK    5  A    between atoms: C_14  and  C_15
REMARK    6  A    between atoms: C_17  and  O_18
REMARK    7  A    between atoms: O_18  and  C_19
REMARK    8  A    between atoms: C_19  and  C_20
REMARK    9  A    between atoms: C_22  and  O_29
REMARK   10  A    between atoms: C_24  and  O_25
REMARK   11  A    between atoms: O_25  and  C_26
REMARK   12  A    between atoms: C_26  and  C_27
REMARK   13  A    between atoms: O_29  and  C_30
REMARK   14  A    between atoms: C_31  and  O_32
REMARK   15  A    between atoms: O_32  and  C_33
REMARK   16  A    between atoms: O_34  and  C_35
REMARK                            x       y       z     vdW  Elec       q    Type
REMARK                         _______ _______ _______ _____ _____    ______ ____
ROOT
ATOM      1  O   LIG A   1      -7.065   2.070 131.888  0.00  0.00    -0.283 OA
ATOM      2  C   LIG A   1      -7.361   2.503 130.780  0.00  0.00    +0.238 A 
ATOM      3  C   LIG A   1      -7.920   3.860 130.630  0.00  0.00    +0.110 A 
ATOM      4  C   LIG A   1      -7.685   4.897 131.540  0.00  0.00    +0.149 A 
ATOM      5  C   LIG A   1      -8.248   6.159 131.329  0.00  0.00    +0.092 A 
ATOM      6  C   LIG A   1      -9.109   6.357 130.240  0.00  0.00    +0.127 A 
ATOM      7  C   LIG A   1      -9.339   5.319 129.335  0.00  0.00    +0.092 A 
ATOM      8  C   LIG A   1      -8.718   4.087 129.517  0.00  0.00    +0.147 A 
ATOM      9  O   LIG A   1      -8.909   3.144 128.542  0.00  0.00    -0.451 OA
ATOM     10  C   LIG A   1      -7.993   2.107 128.481  0.00  0.00    +0.184 A 
ATOM     11  C   LIG A   1      -7.212   1.718 129.510  0.00  0.00    +0.211 A 
ENDROOT
BRANCH  10  12
ATOM     12  C   LIG A   1      -7.954   1.472 127.149  0.00  0.00    +0.067 A 
ATOM     13  C   LIG A   1      -8.663   0.274 126.937  0.00  0.00    +0.065 A 
ATOM     14  C   LIG A   1      -8.614  -0.350 125.684  0.00  0.00    +0.174 A 
ATOM     15  C   LIG A   1      -7.872   0.195 124.626  0.00  0.00    +0.166 A 
ATOM     16  C   LIG A   1      -7.151   1.366 124.842  0.00  0.00    +0.096 A 
ATOM     17  C   LIG A   1      -7.216   2.011 126.082  0.00  0.00    +0.146 A 
BRANCH  15  18
ATOM     18  O   LIG A   1      -7.989  -0.381 123.388  0.00  0.00    -0.491 OA
ATOM     19  C   LIG A   1      -6.800  -0.982 122.883  0.00  0.00    +0.277 C 
ENDBRANCH  15  18
BRANCH  14  20
ATOM     20  O   LIG A   1      -9.471  -1.454 125.490  0.00  0.00    -0.422 OA
BRANCH  20  21
ATOM     21  C   LIG A   1      -9.038  -2.711 125.920  0.00  0.00    +0.309 C 
ATOM     22  C   LIG A   1      -8.688  -3.529 124.715  0.00  0.00    +0.136 C 
ATOM     23  O   LIG A   1      -8.979  -3.111 127.076  0.00  0.00    -0.251 OA
ENDBRANCH  20  21
ENDBRANCH  14  20
BRANCH  17  24
ATOM     24  O   LIG A   1      -6.507   3.210 126.321  0.00  0.00    -0.425 OA
BRANCH  24  25
ATOM     25  C   LIG A   1      -6.905   4.440 125.773  0.00  0.00    +0.309 C 
ATOM     26  C   LIG A   1      -5.907   4.840 124.743  0.00  0.00    +0.136 C 
ATOM     27  O   LIG A   1      -7.888   5.096 126.078  0.00  0.00    -0.251 OA
ENDBRANCH  24  25
ENDBRANCH  17  24
ENDBRANCH  10  12
BRANCH  11  28
ATOM     28  O   LIG A   1      -6.286   0.700 129.358  0.00  0.00    -0.488 OA
ATOM     29  C   LIG A   1      -4.923   1.087 129.230  0.00  0.00    +0.277 C 
ENDBRANCH  11  28
BRANCH   6  30
ATOM     30  O   LIG A   1      -9.638   7.613 130.109  0.00  0.00    -0.495 OA
ATOM     31  C   LIG A   1     -10.916   7.668 129.476  0.00  0.00    +0.277 C 
ENDBRANCH   6  30
BRANCH   4  32
ATOM     32  O   LIG A   1      -6.791   4.623 132.601  0.00  0.00    -0.425 OA
BRANCH  32  33
ATOM     33  C   LIG A   1      -6.974   4.987 133.934  0.00  0.00    +0.309 C 
ATOM     34  C   LIG A   1      -8.177   4.251 134.456  0.00  0.00    +0.136 C 
ATOM     35  O   LIG A   1      -6.324   5.806 134.566  0.00  0.00    -0.251 OA
ENDBRANCH  32  33
ENDBRANCH   4  32
TORSDOF 10
ENDMDL
