MODEL 1
REMARK VINA RESULT:      -4.3      0.000      0.000
REMARK  Name = NuBBE_670
REMARK  0 active torsions:
REMARK  status: ('A' for Active; 'I' for Inactive)
REMARK                            x       y       z     vdW  Elec       q    Type
REMARK                         _______ _______ _______ _____ _____    ______ ____
ROOT
ATOM      1  O   LIG A   1     -13.137   9.968 130.314  0.00  0.00    -0.268 OA
ATOM      2  C   LIG A   1     -12.677   9.014 129.700  0.00  0.00    +0.254 A 
ATOM      3  C   LIG A   1     -12.765   7.644 130.247  0.00  0.00    +0.087 A 
ATOM      4  C   LIG A   1     -12.197   6.645 129.568  0.00  0.00    +0.092 A 
ATOM      5  N   LIG A   1     -11.551   6.879 128.388  0.00  0.00    -0.314 N 
ATOM      6  N   LIG A   1     -12.052   9.136 128.491  0.00  0.00    -0.275 N 
ATOM      7  C   LIG A   1     -11.446   8.117 127.812  0.00  0.00    +0.327 A 
ATOM      8  O   LIG A   1     -10.842   8.295 126.759  0.00  0.00    -0.247 OA
ATOM      9  H   LIG A   1     -11.106   6.120 127.882  0.00  0.00    +0.170 HD
ATOM     10  H   LIG A   1     -11.975  10.060 128.099  0.00  0.00    +0.173 HD
ENDROOT
TORSDOF 0
ENDMDL
MODEL 2
REMARK VINA RESULT:      -4.3      2.130      3.477
REMARK  Name = NuBBE_670
REMARK  0 active torsions:
REMARK  status: ('A' for Active; 'I' for Inactive)
REMARK                            x       y       z     vdW  Elec       q    Type
REMARK                         _______ _______ _______ _____ _____    ______ ____
ROOT
ATOM      1  O   LIG A   1      -9.026   7.329 129.675  0.00  0.00    -0.268 OA
ATOM      2  C   LIG A   1     -10.223   7.575 129.599  0.00  0.00    +0.254 A 
ATOM      3  C   LIG A   1     -10.768   8.352 128.467  0.00  0.00    +0.087 A 
ATOM      4  C   LIG A   1     -12.070   8.645 128.458  0.00  0.00    +0.092 A 
ATOM      5  N   LIG A   1     -12.888   8.232 129.471  0.00  0.00    -0.314 N 
ATOM      6  N   LIG A   1     -11.130   7.169 130.537  0.00  0.00    -0.275 N 
ATOM      7  C   LIG A   1     -12.456   7.495 130.542  0.00  0.00    +0.327 A 
ATOM      8  O   LIG A   1     -13.215   7.156 131.445  0.00  0.00    -0.247 OA
ATOM      9  H   LIG A   1     -13.874   8.470 129.471  0.00  0.00    +0.170 HD
ATOM     10  H   LIG A   1     -10.783   6.642 131.322  0.00  0.00    +0.173 HD
ENDROOT
TORSDOF 0
ENDMDL
MODEL 3
REMARK VINA RESULT:      -4.2      1.779      2.286
REMARK  Name = NuBBE_670
REMARK  0 active torsions:
REMARK  status: ('A' for Active; 'I' for Inactive)
REMARK                            x       y       z     vdW  Elec       q    Type
REMARK                         _______ _______ _______ _____ _____    ______ ____
ROOT
ATOM      1  O   LIG A   1     -12.397   6.486 131.456  0.00  0.00    -0.268 OA
ATOM      2  C   LIG A   1     -12.058   7.063 130.431  0.00  0.00    +0.254 A 
ATOM      3  C   LIG A   1     -12.672   8.350 130.044  0.00  0.00    +0.087 A 
ATOM      4  C   LIG A   1     -12.310   8.911 128.889  0.00  0.00    +0.092 A 
ATOM      5  N   LIG A   1     -11.387   8.314 128.079  0.00  0.00    -0.314 N 
ATOM      6  N   LIG A   1     -11.110   6.572 129.577  0.00  0.00    -0.275 N 
ATOM      7  C   LIG A   1     -10.763   7.133 128.381  0.00  0.00    +0.327 A 
ATOM      8  O   LIG A   1      -9.951   6.615 127.622  0.00  0.00    -0.247 OA
ATOM      9  H   LIG A   1     -11.126   8.734 127.193  0.00  0.00    +0.170 HD
ATOM     10  H   LIG A   1     -10.679   5.694 129.816  0.00  0.00    +0.173 HD
ENDROOT
TORSDOF 0
ENDMDL
MODEL 4
REMARK VINA RESULT:      -4.2      2.447      2.611
REMARK  Name = NuBBE_670
REMARK  0 active torsions:
REMARK  status: ('A' for Active; 'I' for Inactive)
REMARK                            x       y       z     vdW  Elec       q    Type
REMARK                         _______ _______ _______ _____ _____    ______ ____
ROOT
ATOM      1  O   LIG A   1     -13.263   7.151 131.520  0.00  0.00    -0.268 OA
ATOM      2  C   LIG A   1     -12.097   7.073 131.154  0.00  0.00    +0.254 A 
ATOM      3  C   LIG A   1     -11.092   6.353 131.964  0.00  0.00    +0.087 A 
ATOM      4  C   LIG A   1      -9.823   6.345 131.552  0.00  0.00    +0.092 A 
ATOM      5  N   LIG A   1      -9.455   6.984 130.402  0.00  0.00    -0.314 N 
ATOM      6  N   LIG A   1     -11.638   7.639 129.997  0.00  0.00    -0.275 N 
ATOM      7  C   LIG A   1     -10.334   7.655 129.593  0.00  0.00    +0.327 A 
ATOM      8  O   LIG A   1      -9.966   8.234 128.576  0.00  0.00    -0.247 OA
ATOM      9  H   LIG A   1      -8.487   6.991 130.100  0.00  0.00    +0.170 HD
ATOM     10  H   LIG A   1     -12.302   8.139 129.429  0.00  0.00    +0.173 HD
ENDROOT
TORSDOF 0
ENDMDL
MODEL 5
REMARK VINA RESULT:      -4.2      1.973      2.639
REMARK  Name = NuBBE_670
REMARK  0 active torsions:
REMARK  status: ('A' for Active; 'I' for Inactive)
REMARK                            x       y       z     vdW  Elec       q    Type
REMARK                         _______ _______ _______ _____ _____    ______ ____
ROOT
ATOM      1  O   LIG A   1     -13.180  10.421 129.488  0.00  0.00    -0.268 OA
ATOM      2  C   LIG A   1     -13.017   9.209 129.443  0.00  0.00    +0.254 A 
ATOM      3  C   LIG A   1     -13.154   8.470 128.171  0.00  0.00    +0.087 A 
ATOM      4  C   LIG A   1     -13.023   7.142 128.184  0.00  0.00    +0.092 A 
ATOM      5  N   LIG A   1     -12.762   6.475 129.346  0.00  0.00    -0.314 N 
ATOM      6  N   LIG A   1     -12.709   8.456 130.542  0.00  0.00    -0.275 N 
ATOM      7  C   LIG A   1     -12.604   7.094 130.557  0.00  0.00    +0.327 A 
ATOM      8  O   LIG A   1     -12.389   6.462 131.587  0.00  0.00    -0.247 OA
ATOM      9  H   LIG A   1     -12.680   5.464 129.356  0.00  0.00    +0.170 HD
ATOM     10  H   LIG A   1     -12.614   8.936 131.422  0.00  0.00    +0.173 HD
ENDROOT
TORSDOF 0
ENDMDL
MODEL 6
REMARK VINA RESULT:      -4.1      1.969      2.946
REMARK  Name = NuBBE_670
REMARK  0 active torsions:
REMARK  status: ('A' for Active; 'I' for Inactive)
REMARK                            x       y       z     vdW  Elec       q    Type
REMARK                         _______ _______ _______ _____ _____    ______ ____
ROOT
ATOM      1  O   LIG A   1     -12.003   5.357 129.553  0.00  0.00    -0.268 OA
ATOM      2  C   LIG A   1     -11.861   6.489 129.110  0.00  0.00    +0.254 A 
ATOM      3  C   LIG A   1     -10.522   7.004 128.755  0.00  0.00    +0.087 A 
ATOM      4  C   LIG A   1     -10.412   8.264 128.330  0.00  0.00    +0.092 A 
ATOM      5  N   LIG A   1     -11.512   9.066 128.220  0.00  0.00    -0.314 N 
ATOM      6  N   LIG A   1     -12.903   7.353 128.920  0.00  0.00    -0.275 N 
ATOM      7  C   LIG A   1     -12.784   8.652 128.514  0.00  0.00    +0.327 A 
ATOM      8  O   LIG A   1     -13.749   9.404 128.421  0.00  0.00    -0.247 OA
ATOM      9  H   LIG A   1     -11.423  10.029 127.914  0.00  0.00    +0.170 HD
ATOM     10  H   LIG A   1     -13.826   7.028 129.159  0.00  0.00    +0.173 HD
ENDROOT
TORSDOF 0
ENDMDL
MODEL 7
REMARK VINA RESULT:      -4.1      1.970      2.134
REMARK  Name = NuBBE_670
REMARK  0 active torsions:
REMARK  status: ('A' for Active; 'I' for Inactive)
REMARK                            x       y       z     vdW  Elec       q    Type
REMARK                         _______ _______ _______ _____ _____    ______ ____
ROOT
ATOM      1  O   LIG A   1     -10.293   7.557 130.030  0.00  0.00    -0.268 OA
ATOM      2  C   LIG A   1     -10.985   7.474 129.024  0.00  0.00    +0.254 A 
ATOM      3  C   LIG A   1     -12.367   6.955 129.092  0.00  0.00    +0.087 A 
ATOM      4  C   LIG A   1     -13.061   6.830 127.959  0.00  0.00    +0.092 A 
ATOM      5  N   LIG A   1     -12.512   7.178 126.758  0.00  0.00    -0.314 N 
ATOM      6  N   LIG A   1     -10.544   7.839 127.782  0.00  0.00    -0.275 N 
ATOM      7  C   LIG A   1     -11.245   7.682 126.621  0.00  0.00    +0.327 A 
ATOM      8  O   LIG A   1     -10.775   7.967 125.524  0.00  0.00    -0.247 OA
ATOM      9  H   LIG A   1     -13.036   7.066 125.897  0.00  0.00    +0.170 HD
ATOM     10  H   LIG A   1      -9.604   8.191 127.708  0.00  0.00    +0.173 HD
ENDROOT
TORSDOF 0
ENDMDL
MODEL 8
REMARK VINA RESULT:      -4.1      3.558      4.409
REMARK  Name = NuBBE_670
REMARK  0 active torsions:
REMARK  status: ('A' for Active; 'I' for Inactive)
REMARK                            x       y       z     vdW  Elec       q    Type
REMARK                         _______ _______ _______ _____ _____    ______ ____
ROOT
ATOM      1  O   LIG A   1      -9.310   5.394 132.986  0.00  0.00    -0.268 OA
ATOM      2  C   LIG A   1      -9.964   5.983 132.135  0.00  0.00    +0.254 A 
ATOM      3  C   LIG A   1      -9.314   6.550 130.935  0.00  0.00    +0.087 A 
ATOM      4  C   LIG A   1     -10.060   7.233 130.064  0.00  0.00    +0.092 A 
ATOM      5  N   LIG A   1     -11.399   7.403 130.271  0.00  0.00    -0.314 N 
ATOM      6  N   LIG A   1     -11.315   6.167 132.227  0.00  0.00    -0.275 N 
ATOM      7  C   LIG A   1     -12.071   6.891 131.349  0.00  0.00    +0.327 A 
ATOM      8  O   LIG A   1     -13.273   7.079 131.514  0.00  0.00    -0.247 OA
ATOM      9  H   LIG A   1     -11.961   7.937 129.616  0.00  0.00    +0.170 HD
ATOM     10  H   LIG A   1     -11.781   5.794 133.037  0.00  0.00    +0.173 HD
ENDROOT
TORSDOF 0
ENDMDL
MODEL 9
REMARK VINA RESULT:      -4.1      9.477     10.316
REMARK  Name = NuBBE_670
REMARK  0 active torsions:
REMARK  status: ('A' for Active; 'I' for Inactive)
REMARK                            x       y       z     vdW  Elec       q    Type
REMARK                         _______ _______ _______ _____ _____    ______ ____
ROOT
ATOM      1  O   LIG A   1      -7.087   3.176 123.622  0.00  0.00    -0.268 OA
ATOM      2  C   LIG A   1      -7.110   3.454 122.430  0.00  0.00    +0.254 A 
ATOM      3  C   LIG A   1      -5.863   3.750 121.694  0.00  0.00    +0.087 A 
ATOM      4  C   LIG A   1      -5.945   4.104 120.410  0.00  0.00    +0.092 A 
ATOM      5  N   LIG A   1      -7.155   4.188 119.782  0.00  0.00    -0.314 N 
ATOM      6  N   LIG A   1      -8.264   3.519 121.701  0.00  0.00    -0.275 N 
ATOM      7  C   LIG A   1      -8.348   3.911 120.395  0.00  0.00    +0.327 A 
ATOM      8  O   LIG A   1      -9.419   4.014 119.806  0.00  0.00    -0.247 OA
ATOM      9  H   LIG A   1      -7.216   4.473 118.811  0.00  0.00    +0.170 HD
ATOM     10  H   LIG A   1      -9.128   3.326 122.180  0.00  0.00    +0.173 HD
ENDROOT
TORSDOF 0
ENDMDL
