MODEL 1
REMARK VINA RESULT:      -6.9      0.000      0.000
REMARK  Name = NuBBE_1670
REMARK  12 active torsions:
REMARK  status: ('A' for Active; 'I' for Inactive)
REMARK    1  A    between atoms: C_1  and  O_2
REMARK    2  A    between atoms: O_2  and  C_3
REMARK    3  A    between atoms: C_4  and  O_5
REMARK    4  A    between atoms: C_6  and  O_7
REMARK    5  A    between atoms: O_7  and  C_8
REMARK    6  A    between atoms: C_10  and  C_11
REMARK    7  A    between atoms: C_14  and  C_15
REMARK    8  A    between atoms: C_17  and  O_18
REMARK    9  A    between atoms: O_18  and  C_19
REMARK   10  A    between atoms: C_20  and  O_21
REMARK   11  A    between atoms: C_22  and  O_23
REMARK   12  A    between atoms: O_23  and  C_24
REMARK                            x       y       z     vdW  Elec       q    Type
REMARK                         _______ _______ _______ _____ _____    ______ ____
ROOT
ATOM      1  C   LIG A   1      -7.156  -0.102 128.558  0.00  0.00    +0.154 C 
ATOM      2  C   LIG A   1      -7.066   1.283 129.173  0.00  0.00    +0.056 C 
ATOM      3  C   LIG A   1      -8.273   1.350 130.072  0.00  0.00    +0.056 C 
ATOM      4  C   LIG A   1      -7.882   2.361 131.133  0.00  0.00    +0.154 C 
ATOM      5  O   LIG A   1      -6.451   2.210 131.281  0.00  0.00    -0.371 OA
ATOM      6  C   LIG A   1      -5.932   1.448 130.175  0.00  0.00    +0.167 C 
ATOM      7  C   LIG A   1      -8.357  -0.087 130.579  0.00  0.00    +0.167 C 
ATOM      8  O   LIG A   1      -7.794  -0.930 129.556  0.00  0.00    -0.371 OA
ENDROOT
BRANCH   1  13
ATOM      9  C   LIG A   1      -8.989  -1.362 125.429  0.00  0.00    +0.165 A 
ATOM     10  C   LIG A   1      -9.362  -0.151 124.829  0.00  0.00    +0.201 A 
ATOM     11  C   LIG A   1      -9.084   1.071 125.451  0.00  0.00    +0.165 A 
ATOM     12  C   LIG A   1      -8.406   1.068 126.679  0.00  0.00    +0.056 A 
ATOM     13  C   LIG A   1      -7.968  -0.129 127.271  0.00  0.00    -0.011 A 
ATOM     14  C   LIG A   1      -8.294  -1.341 126.638  0.00  0.00    +0.056 A 
BRANCH   9  16
ATOM     15  C   LIG A   1      -8.448  -3.607 124.855  0.00  0.00    +0.277 C 
ATOM     16  O   LIG A   1      -9.334  -2.497 124.733  0.00  0.00    -0.491 OA
ENDBRANCH   9  16
BRANCH  10  17
ATOM     17  O   LIG A   1      -9.990  -0.208 123.612  0.00  0.00    -0.501 OA
ATOM     18  H   LIG A   1      -9.530   0.449 123.054  0.00  0.00    +0.292 HD
ENDBRANCH  10  17
BRANCH  11  19
ATOM     19  O   LIG A   1      -9.414   2.320 124.994  0.00  0.00    -0.491 OA
ATOM     20  C   LIG A   1      -8.398   3.005 124.266  0.00  0.00    +0.277 C 
ENDBRANCH  11  19
ENDBRANCH   1  13
BRANCH   4  21
ATOM     21  C   LIG A   1      -8.231   3.804 130.776  0.00  0.00    -0.011 A 
ATOM     22  C   LIG A   1      -9.516   4.143 130.292  0.00  0.00    +0.056 A 
ATOM     23  C   LIG A   1      -9.858   5.476 129.976  0.00  0.00    +0.165 A 
ATOM     24  C   LIG A   1      -8.914   6.469 130.187  0.00  0.00    +0.201 A 
ATOM     25  C   LIG A   1      -7.633   6.164 130.671  0.00  0.00    +0.165 A 
ATOM     26  C   LIG A   1      -7.303   4.839 130.970  0.00  0.00    +0.056 A 
BRANCH  23  27
ATOM     27  O   LIG A   1     -11.133   5.628 129.484  0.00  0.00    -0.491 OA
ATOM     28  C   LIG A   1     -12.106   6.154 130.381  0.00  0.00    +0.277 C 
ENDBRANCH  23  27
BRANCH  24  29
ATOM     29  O   LIG A   1      -9.162   7.800 129.936  0.00  0.00    -0.501 OA
ATOM     30  H   LIG A   1      -9.195   8.228 130.810  0.00  0.00    +0.292 HD
ENDBRANCH  24  29
BRANCH  25  31
ATOM     31  O   LIG A   1      -6.819   7.251 130.854  0.00  0.00    -0.491 OA
ATOM     32  C   LIG A   1      -5.442   6.953 131.058  0.00  0.00    +0.277 C 
ENDBRANCH  25  31
ENDBRANCH   4  21
TORSDOF 8
ENDMDL
MODEL 2
REMARK VINA RESULT:      -6.8      0.413      7.386
REMARK  Name = NuBBE_1670
REMARK  12 active torsions:
REMARK  status: ('A' for Active; 'I' for Inactive)
REMARK    1  A    between atoms: C_1  and  O_2
REMARK    2  A    between atoms: O_2  and  C_3
REMARK    3  A    between atoms: C_4  and  O_5
REMARK    4  A    between atoms: C_6  and  O_7
REMARK    5  A    between atoms: O_7  and  C_8
REMARK    6  A    between atoms: C_10  and  C_11
REMARK    7  A    between atoms: C_14  and  C_15
REMARK    8  A    between atoms: C_17  and  O_18
REMARK    9  A    between atoms: O_18  and  C_19
REMARK   10  A    between atoms: C_20  and  O_21
REMARK   11  A    between atoms: C_22  and  O_23
REMARK   12  A    between atoms: O_23  and  C_24
REMARK                            x       y       z     vdW  Elec       q    Type
REMARK                         _______ _______ _______ _____ _____    ______ ____
ROOT
ATOM      1  C   LIG A   1      -7.717   2.046 131.331  0.00  0.00    +0.154 C 
ATOM      2  C   LIG A   1      -8.152   1.126 130.206  0.00  0.00    +0.056 C 
ATOM      3  C   LIG A   1      -6.960   1.102 129.286  0.00  0.00    +0.056 C 
ATOM      4  C   LIG A   1      -7.081  -0.227 128.564  0.00  0.00    +0.154 C 
ATOM      5  O   LIG A   1      -7.705  -1.114 129.522  0.00  0.00    -0.371 OA
ATOM      6  C   LIG A   1      -8.257  -0.340 130.603  0.00  0.00    +0.167 C 
ATOM      7  C   LIG A   1      -5.805   1.171 130.280  0.00  0.00    +0.167 C 
ATOM      8  O   LIG A   1      -6.285   1.878 131.439  0.00  0.00    -0.371 OA
ENDROOT
BRANCH   1  13
ATOM      9  C   LIG A   1      -9.465   5.217 130.056  0.00  0.00    +0.165 A 
ATOM     10  C   LIG A   1      -8.565   6.208 130.476  0.00  0.00    +0.201 A 
ATOM     11  C   LIG A   1      -7.430   5.873 131.221  0.00  0.00    +0.165 A 
ATOM     12  C   LIG A   1      -7.191   4.525 131.526  0.00  0.00    +0.056 A 
ATOM     13  C   LIG A   1      -8.045   3.508 131.064  0.00  0.00    -0.011 A 
ATOM     14  C   LIG A   1      -9.196   3.881 130.348  0.00  0.00    +0.056 A 
BRANCH   9  16
ATOM     15  C   LIG A   1     -11.792   5.711 130.055  0.00  0.00    +0.277 C 
ATOM     16  O   LIG A   1     -10.554   5.669 129.349  0.00  0.00    -0.491 OA
ENDBRANCH   9  16
BRANCH  10  17
ATOM     17  O   LIG A   1      -8.832   7.505 130.119  0.00  0.00    -0.501 OA
ATOM     18  H   LIG A   1      -8.163   7.726 129.442  0.00  0.00    +0.292 HD
ENDBRANCH  10  17
BRANCH  11  19
ATOM     19  O   LIG A   1      -6.489   6.737 131.717  0.00  0.00    -0.491 OA
ATOM     20  C   LIG A   1      -5.360   6.976 130.880  0.00  0.00    +0.277 C 
ENDBRANCH  11  19
ENDBRANCH   1  13
BRANCH   4  21
ATOM     21  C   LIG A   1      -7.904  -0.165 127.280  0.00  0.00    -0.011 A 
ATOM     22  C   LIG A   1      -8.267   1.076 126.708  0.00  0.00    +0.056 A 
ATOM     23  C   LIG A   1      -9.012   1.148 125.511  0.00  0.00    +0.165 A 
ATOM     24  C   LIG A   1      -9.356  -0.035 124.874  0.00  0.00    +0.201 A 
ATOM     25  C   LIG A   1      -9.005  -1.280 125.414  0.00  0.00    +0.165 A 
ATOM     26  C   LIG A   1      -8.277  -1.338 126.606  0.00  0.00    +0.056 A 
BRANCH  23  27
ATOM     27  O   LIG A   1      -9.312   2.429 125.111  0.00  0.00    -0.491 OA
ATOM     28  C   LIG A   1      -8.358   3.077 124.275  0.00  0.00    +0.277 C 
ENDBRANCH  23  27
BRANCH  24  29
ATOM     29  O   LIG A   1     -10.057  -0.068 123.688  0.00  0.00    -0.501 OA
ATOM     30  H   LIG A   1     -10.853  -0.598 123.873  0.00  0.00    +0.292 HD
ENDBRANCH  24  29
BRANCH  25  31
ATOM     31  O   LIG A   1      -9.389  -2.358 124.660  0.00  0.00    -0.491 OA
ATOM     32  C   LIG A   1      -8.355  -3.288 124.353  0.00  0.00    +0.277 C 
ENDBRANCH  25  31
ENDBRANCH   4  21
TORSDOF 8
ENDMDL
MODEL 3
REMARK VINA RESULT:      -6.8      0.607      2.315
REMARK  Name = NuBBE_1670
REMARK  12 active torsions:
REMARK  status: ('A' for Active; 'I' for Inactive)
REMARK    1  A    between atoms: C_1  and  O_2
REMARK    2  A    between atoms: O_2  and  C_3
REMARK    3  A    between atoms: C_4  and  O_5
REMARK    4  A    between atoms: C_6  and  O_7
REMARK    5  A    between atoms: O_7  and  C_8
REMARK    6  A    between atoms: C_10  and  C_11
REMARK    7  A    between atoms: C_14  and  C_15
REMARK    8  A    between atoms: C_17  and  O_18
REMARK    9  A    between atoms: O_18  and  C_19
REMARK   10  A    between atoms: C_20  and  O_21
REMARK   11  A    between atoms: C_22  and  O_23
REMARK   12  A    between atoms: O_23  and  C_24
REMARK                            x       y       z     vdW  Elec       q    Type
REMARK                         _______ _______ _______ _____ _____    ______ ____
ROOT
ATOM      1  C   LIG A   1      -7.193  -0.136 129.266  0.00  0.00    +0.154 C 
ATOM      2  C   LIG A   1      -7.184   1.292 129.777  0.00  0.00    +0.056 C 
ATOM      3  C   LIG A   1      -8.502   1.421 130.495  0.00  0.00    +0.056 C 
ATOM      4  C   LIG A   1      -8.257   2.514 131.518  0.00  0.00    +0.154 C 
ATOM      5  O   LIG A   1      -6.860   2.385 131.871  0.00  0.00    -0.371 OA
ATOM      6  C   LIG A   1      -6.197   1.543 130.910  0.00  0.00    +0.167 C 
ATOM      7  C   LIG A   1      -8.660   0.027 131.095  0.00  0.00    +0.167 C 
ATOM      8  O   LIG A   1      -7.965  -0.889 130.228  0.00  0.00    -0.371 OA
ENDROOT
BRANCH   1  13
ATOM      9  C   LIG A   1      -8.948   0.719 125.961  0.00  0.00    +0.165 A 
ATOM     10  C   LIG A   1      -9.087  -0.556 125.392  0.00  0.00    +0.201 A 
ATOM     11  C   LIG A   1      -8.567  -1.685 126.032  0.00  0.00    +0.165 A 
ATOM     12  C   LIG A   1      -7.919  -1.527 127.266  0.00  0.00    +0.056 A 
ATOM     13  C   LIG A   1      -7.821  -0.269 127.885  0.00  0.00    -0.011 A 
ATOM     14  C   LIG A   1      -8.323   0.850 127.199  0.00  0.00    +0.056 A 
BRANCH   9  16
ATOM     15  C   LIG A   1      -8.574   2.778 124.828  0.00  0.00    +0.277 C 
ATOM     16  O   LIG A   1      -9.482   1.753 125.228  0.00  0.00    -0.491 OA
ENDBRANCH   9  16
BRANCH  10  17
ATOM     17  O   LIG A   1      -9.760  -0.653 124.201  0.00  0.00    -0.501 OA
ATOM     18  H   LIG A   1      -9.318  -1.377 123.715  0.00  0.00    +0.292 HD
ENDBRANCH  10  17
BRANCH  11  19
ATOM     19  O   LIG A   1      -8.606  -2.978 125.580  0.00  0.00    -0.491 OA
ATOM     20  C   LIG A   1      -7.556  -3.360 124.695  0.00  0.00    +0.277 C 
ENDBRANCH  11  19
ENDBRANCH   1  13
BRANCH   4  21
ATOM     21  C   LIG A   1      -8.548   3.922 131.005  0.00  0.00    -0.011 A 
ATOM     22  C   LIG A   1      -9.802   4.244 130.436  0.00  0.00    +0.056 A 
ATOM     23  C   LIG A   1     -10.092   5.547 129.975  0.00  0.00    +0.165 A 
ATOM     24  C   LIG A   1      -9.127   6.531 130.126  0.00  0.00    +0.201 A 
ATOM     25  C   LIG A   1      -7.877   6.243 130.692  0.00  0.00    +0.165 A 
ATOM     26  C   LIG A   1      -7.598   4.947 131.134  0.00  0.00    +0.056 A 
BRANCH  23  27
ATOM     27  O   LIG A   1     -11.341   5.681 129.417  0.00  0.00    -0.491 OA
ATOM     28  C   LIG A   1     -12.314   6.380 130.188  0.00  0.00    +0.277 C 
ENDBRANCH  23  27
BRANCH  24  29
ATOM     29  O   LIG A   1      -9.325   7.837 129.733  0.00  0.00    -0.501 OA
ATOM     30  H   LIG A   1      -8.844   7.931 128.892  0.00  0.00    +0.292 HD
ENDBRANCH  24  29
BRANCH  25  31
ATOM     31  O   LIG A   1      -7.038   7.322 130.800  0.00  0.00    -0.491 OA
ATOM     32  C   LIG A   1      -5.662   7.008 130.988  0.00  0.00    +0.277 C 
ENDBRANCH  25  31
ENDBRANCH   4  21
TORSDOF 8
ENDMDL
MODEL 4
REMARK VINA RESULT:      -6.8      0.346      2.321
REMARK  Name = NuBBE_1670
REMARK  12 active torsions:
REMARK  status: ('A' for Active; 'I' for Inactive)
REMARK    1  A    between atoms: C_1  and  O_2
REMARK    2  A    between atoms: O_2  and  C_3
REMARK    3  A    between atoms: C_4  and  O_5
REMARK    4  A    between atoms: C_6  and  O_7
REMARK    5  A    between atoms: O_7  and  C_8
REMARK    6  A    between atoms: C_10  and  C_11
REMARK    7  A    between atoms: C_14  and  C_15
REMARK    8  A    between atoms: C_17  and  O_18
REMARK    9  A    between atoms: O_18  and  C_19
REMARK   10  A    between atoms: C_20  and  O_21
REMARK   11  A    between atoms: C_22  and  O_23
REMARK   12  A    between atoms: O_23  and  C_24
REMARK                            x       y       z     vdW  Elec       q    Type
REMARK                         _______ _______ _______ _____ _____    ______ ____
ROOT
ATOM      1  C   LIG A   1      -7.095  -0.199 128.552  0.00  0.00    +0.154 C 
ATOM      2  C   LIG A   1      -6.969   1.153 129.230  0.00  0.00    +0.056 C 
ATOM      3  C   LIG A   1      -8.160   1.199 130.151  0.00  0.00    +0.056 C 
ATOM      4  C   LIG A   1      -7.734   2.152 131.252  0.00  0.00    +0.154 C 
ATOM      5  O   LIG A   1      -6.304   1.968 131.370  0.00  0.00    -0.371 OA
ATOM      6  C   LIG A   1      -5.817   1.249 130.221  0.00  0.00    +0.167 C 
ATOM      7  C   LIG A   1      -8.265  -0.258 130.590  0.00  0.00    +0.167 C 
ATOM      8  O   LIG A   1      -7.733  -1.062 129.520  0.00  0.00    -0.371 OA
ENDROOT
BRANCH   1  13
ATOM      9  C   LIG A   1      -9.018  -1.277 125.410  0.00  0.00    +0.165 A 
ATOM     10  C   LIG A   1      -9.355  -0.032 124.860  0.00  0.00    +0.201 A 
ATOM     11  C   LIG A   1      -9.024   1.155 125.521  0.00  0.00    +0.165 A 
ATOM     12  C   LIG A   1      -8.329   1.083 126.738  0.00  0.00    +0.056 A 
ATOM     13  C   LIG A   1      -7.926  -0.150 127.278  0.00  0.00    -0.011 A 
ATOM     14  C   LIG A   1      -8.305  -1.326 126.607  0.00  0.00    +0.056 A 
BRANCH   9  16
ATOM     15  C   LIG A   1      -8.395  -3.313 124.346  0.00  0.00    +0.277 C 
ATOM     16  O   LIG A   1      -9.414  -2.373 124.679  0.00  0.00    -0.491 OA
ENDBRANCH   9  16
BRANCH  10  17
ATOM     17  O   LIG A   1     -10.004  -0.023 123.652  0.00  0.00    -0.501 OA
ATOM     18  H   LIG A   1     -10.875  -0.430 123.825  0.00  0.00    +0.292 HD
ENDBRANCH  10  17
BRANCH  11  19
ATOM     19  O   LIG A   1      -9.315   2.431 125.115  0.00  0.00    -0.491 OA
ATOM     20  C   LIG A   1      -8.317   3.077 124.330  0.00  0.00    +0.277 C 
ENDBRANCH  11  19
ENDBRANCH   1  13
BRANCH   4  21
ATOM     21  C   LIG A   1      -8.061   3.616 130.969  0.00  0.00    -0.011 A 
ATOM     22  C   LIG A   1      -7.182   4.649 131.368  0.00  0.00    +0.056 A 
ATOM     23  C   LIG A   1      -7.462   6.005 131.096  0.00  0.00    +0.165 A 
ATOM     24  C   LIG A   1      -8.614   6.312 130.387  0.00  0.00    +0.201 A 
ATOM     25  C   LIG A   1      -9.503   5.310 129.973  0.00  0.00    +0.165 A 
ATOM     26  C   LIG A   1      -9.219   3.971 130.258  0.00  0.00    +0.056 A 
BRANCH  23  27
ATOM     27  O   LIG A   1      -6.524   6.883 131.584  0.00  0.00    -0.491 OA
ATOM     28  C   LIG A   1      -5.327   7.026 130.825  0.00  0.00    +0.277 C 
ENDBRANCH  23  27
BRANCH  24  29
ATOM     29  O   LIG A   1      -8.960   7.602 130.049  0.00  0.00    -0.501 OA
ATOM     30  H   LIG A   1      -9.502   7.928 130.790  0.00  0.00    +0.292 HD
ENDBRANCH  24  29
BRANCH  25  31
ATOM     31  O   LIG A   1     -10.581   5.763 129.259  0.00  0.00    -0.491 OA
ATOM     32  C   LIG A   1     -11.827   5.727 129.947  0.00  0.00    +0.277 C 
ENDBRANCH  25  31
ENDBRANCH   4  21
TORSDOF 8
ENDMDL
MODEL 5
REMARK VINA RESULT:      -6.7      0.408      7.311
REMARK  Name = NuBBE_1670
REMARK  12 active torsions:
REMARK  status: ('A' for Active; 'I' for Inactive)
REMARK    1  A    between atoms: C_1  and  O_2
REMARK    2  A    between atoms: O_2  and  C_3
REMARK    3  A    between atoms: C_4  and  O_5
REMARK    4  A    between atoms: C_6  and  O_7
REMARK    5  A    between atoms: O_7  and  C_8
REMARK    6  A    between atoms: C_10  and  C_11
REMARK    7  A    between atoms: C_14  and  C_15
REMARK    8  A    between atoms: C_17  and  O_18
REMARK    9  A    between atoms: O_18  and  C_19
REMARK   10  A    between atoms: C_20  and  O_21
REMARK   11  A    between atoms: C_22  and  O_23
REMARK   12  A    between atoms: O_23  and  C_24
REMARK                            x       y       z     vdW  Elec       q    Type
REMARK                         _______ _______ _______ _____ _____    ______ ____
ROOT
ATOM      1  C   LIG A   1      -7.800   2.180 131.268  0.00  0.00    +0.154 C 
ATOM      2  C   LIG A   1      -8.201   1.259 130.132  0.00  0.00    +0.056 C 
ATOM      3  C   LIG A   1      -6.985   1.243 129.243  0.00  0.00    +0.056 C 
ATOM      4  C   LIG A   1      -7.080  -0.086 128.517  0.00  0.00    +0.154 C 
ATOM      5  O   LIG A   1      -7.723  -0.977 129.457  0.00  0.00    -0.371 OA
ATOM      6  C   LIG A   1      -8.308  -0.208 130.525  0.00  0.00    +0.167 C 
ATOM      7  C   LIG A   1      -5.856   1.317 130.267  0.00  0.00    +0.167 C 
ATOM      8  O   LIG A   1      -6.371   2.020 131.414  0.00  0.00    -0.371 OA
ENDROOT
BRANCH   1  13
ATOM      9  C   LIG A   1      -9.561   5.344 129.995  0.00  0.00    +0.165 A 
ATOM     10  C   LIG A   1      -8.654   6.336 130.393  0.00  0.00    +0.201 A 
ATOM     11  C   LIG A   1      -7.508   6.006 131.123  0.00  0.00    +0.165 A 
ATOM     12  C   LIG A   1      -7.267   4.659 131.436  0.00  0.00    +0.056 A 
ATOM     13  C   LIG A   1      -8.129   3.641 130.995  0.00  0.00    -0.011 A 
ATOM     14  C   LIG A   1      -9.290   4.010 130.293  0.00  0.00    +0.056 A 
BRANCH   9  16
ATOM     15  C   LIG A   1     -11.879   5.878 130.035  0.00  0.00    +0.277 C 
ATOM     16  O   LIG A   1     -10.660   5.793 129.301  0.00  0.00    -0.491 OA
ENDBRANCH   9  16
BRANCH  10  17
ATOM     17  O   LIG A   1      -8.923   7.631 130.029  0.00  0.00    -0.501 OA
ATOM     18  H   LIG A   1      -8.156   7.911 129.493  0.00  0.00    +0.292 HD
ENDBRANCH  10  17
BRANCH  11  19
ATOM     19  O   LIG A   1      -6.557   6.871 131.598  0.00  0.00    -0.491 OA
ATOM     20  C   LIG A   1      -5.211   6.409 131.543  0.00  0.00    +0.277 C 
ENDBRANCH  11  19
ENDBRANCH   1  13
BRANCH   4  21
ATOM     21  C   LIG A   1      -7.870  -0.027 127.212  0.00  0.00    -0.011 A 
ATOM     22  C   LIG A   1      -8.340  -1.207 126.591  0.00  0.00    +0.056 A 
ATOM     23  C   LIG A   1      -9.088  -1.166 125.396  0.00  0.00    +0.165 A 
ATOM     24  C   LIG A   1      -9.394   0.072 124.849  0.00  0.00    +0.201 A 
ATOM     25  C   LIG A   1      -8.946   1.260 125.445  0.00  0.00    +0.165 A 
ATOM     26  C   LIG A   1      -8.197   1.205 126.623  0.00  0.00    +0.056 A 
BRANCH  23  27
ATOM     27  O   LIG A   1      -9.436  -2.403 124.906  0.00  0.00    -0.491 OA
ATOM     28  C   LIG A   1      -8.562  -2.975 123.936  0.00  0.00    +0.277 C 
ENDBRANCH  23  27
BRANCH  24  29
ATOM     29  O   LIG A   1     -10.141   0.217 123.701  0.00  0.00    -0.501 OA
ATOM     30  H   LIG A   1      -9.508   0.124 122.966  0.00  0.00    +0.292 HD
ENDBRANCH  24  29
BRANCH  25  31
ATOM     31  O   LIG A   1      -9.349   2.404 124.806  0.00  0.00    -0.491 OA
ATOM     32  C   LIG A   1      -8.298   3.252 124.354  0.00  0.00    +0.277 C 
ENDBRANCH  25  31
ENDBRANCH   4  21
TORSDOF 8
ENDMDL
MODEL 6
REMARK VINA RESULT:      -6.7      3.723      7.133
REMARK  Name = NuBBE_1670
REMARK  12 active torsions:
REMARK  status: ('A' for Active; 'I' for Inactive)
REMARK    1  A    between atoms: C_1  and  O_2
REMARK    2  A    between atoms: O_2  and  C_3
REMARK    3  A    between atoms: C_4  and  O_5
REMARK    4  A    between atoms: C_6  and  O_7
REMARK    5  A    between atoms: O_7  and  C_8
REMARK    6  A    between atoms: C_10  and  C_11
REMARK    7  A    between atoms: C_14  and  C_15
REMARK    8  A    between atoms: C_17  and  O_18
REMARK    9  A    between atoms: O_18  and  C_19
REMARK   10  A    between atoms: C_20  and  O_21
REMARK   11  A    between atoms: C_22  and  O_23
REMARK   12  A    between atoms: O_23  and  C_24
REMARK                            x       y       z     vdW  Elec       q    Type
REMARK                         _______ _______ _______ _____ _____    ______ ____
ROOT
ATOM      1  C   LIG A   1      -5.877   3.613 125.887  0.00  0.00    +0.154 C 
ATOM      2  C   LIG A   1      -6.349   2.432 126.713  0.00  0.00    +0.056 C 
ATOM      3  C   LIG A   1      -5.253   1.415 126.535  0.00  0.00    +0.056 C 
ATOM      4  C   LIG A   1      -5.343   0.557 127.783  0.00  0.00    +0.154 C 
ATOM      5  O   LIG A   1      -5.804   1.456 128.819  0.00  0.00    -0.371 OA
ATOM      6  C   LIG A   1      -6.305   2.665 128.217  0.00  0.00    +0.167 C 
ATOM      7  C   LIG A   1      -4.015   2.305 126.477  0.00  0.00    +0.167 C 
ATOM      8  O   LIG A   1      -4.433   3.576 125.943  0.00  0.00    -0.371 OA
ENDROOT
BRANCH   1  13
ATOM      9  C   LIG A   1      -5.998   4.056 122.076  0.00  0.00    +0.165 A 
ATOM     10  C   LIG A   1      -7.263   3.527 121.783  0.00  0.00    +0.201 A 
ATOM     11  C   LIG A   1      -8.057   2.971 122.792  0.00  0.00    +0.165 A 
ATOM     12  C   LIG A   1      -7.576   2.968 124.109  0.00  0.00    +0.056 A 
ATOM     13  C   LIG A   1      -6.338   3.548 124.437  0.00  0.00    -0.011 A 
ATOM     14  C   LIG A   1      -5.550   4.066 123.395  0.00  0.00    +0.056 A 
BRANCH   9  16
ATOM     15  C   LIG A   1      -4.140   5.323 121.299  0.00  0.00    +0.277 C 
ATOM     16  O   LIG A   1      -5.303   4.555 120.999  0.00  0.00    -0.491 OA
ENDBRANCH   9  16
BRANCH  10  17
ATOM     17  O   LIG A   1      -7.696   3.588 120.483  0.00  0.00    -0.501 OA
ATOM     18  H   LIG A   1      -7.278   4.390 120.112  0.00  0.00    +0.292 HD
ENDBRANCH  10  17
BRANCH  11  19
ATOM     19  O   LIG A   1      -9.292   2.397 122.644  0.00  0.00    -0.491 OA
ATOM     20  C   LIG A   1      -9.785   1.680 123.772  0.00  0.00    +0.277 C 
ENDBRANCH  11  19
ENDBRANCH   1  13
BRANCH   4  21
ATOM     21  C   LIG A   1      -6.289  -0.634 127.653  0.00  0.00    -0.011 A 
ATOM     22  C   LIG A   1      -6.620  -1.166 126.385  0.00  0.00    +0.056 A 
ATOM     23  C   LIG A   1      -7.477  -2.278 126.251  0.00  0.00    +0.165 A 
ATOM     24  C   LIG A   1      -7.970  -2.876 127.401  0.00  0.00    +0.201 A 
ATOM     25  C   LIG A   1      -7.655  -2.375 128.673  0.00  0.00    +0.165 A 
ATOM     26  C   LIG A   1      -6.813  -1.266 128.792  0.00  0.00    +0.056 A 
BRANCH  23  27
ATOM     27  O   LIG A   1      -7.725  -2.645 124.949  0.00  0.00    -0.491 OA
ATOM     28  C   LIG A   1      -8.881  -2.083 124.335  0.00  0.00    +0.277 C 
ENDBRANCH  23  27
BRANCH  24  29
ATOM     29  O   LIG A   1      -8.791  -3.982 127.375  0.00  0.00    -0.501 OA
ATOM     30  H   LIG A   1      -8.201  -4.739 127.214  0.00  0.00    +0.292 HD
ENDBRANCH  24  29
BRANCH  25  31
ATOM     31  O   LIG A   1      -8.193  -3.085 129.715  0.00  0.00    -0.491 OA
ATOM     32  C   LIG A   1      -7.469  -3.015 130.938  0.00  0.00    +0.277 C 
ENDBRANCH  25  31
ENDBRANCH   4  21
TORSDOF 8
ENDMDL
MODEL 7
REMARK VINA RESULT:      -6.7      0.419      7.479
REMARK  Name = NuBBE_1670
REMARK  12 active torsions:
REMARK  status: ('A' for Active; 'I' for Inactive)
REMARK    1  A    between atoms: C_1  and  O_2
REMARK    2  A    between atoms: O_2  and  C_3
REMARK    3  A    between atoms: C_4  and  O_5
REMARK    4  A    between atoms: C_6  and  O_7
REMARK    5  A    between atoms: O_7  and  C_8
REMARK    6  A    between atoms: C_10  and  C_11
REMARK    7  A    between atoms: C_14  and  C_15
REMARK    8  A    between atoms: C_17  and  O_18
REMARK    9  A    between atoms: O_18  and  C_19
REMARK   10  A    between atoms: C_20  and  O_21
REMARK   11  A    between atoms: C_22  and  O_23
REMARK   12  A    between atoms: O_23  and  C_24
REMARK                            x       y       z     vdW  Elec       q    Type
REMARK                         _______ _______ _______ _____ _____    ______ ____
ROOT
ATOM      1  C   LIG A   1      -7.617   2.127 131.194  0.00  0.00    +0.154 C 
ATOM      2  C   LIG A   1      -8.093   1.185 130.104  0.00  0.00    +0.056 C 
ATOM      3  C   LIG A   1      -6.907   1.083 129.181  0.00  0.00    +0.056 C 
ATOM      4  C   LIG A   1      -7.082  -0.265 128.508  0.00  0.00    +0.154 C 
ATOM      5  O   LIG A   1      -7.735  -1.093 129.498  0.00  0.00    -0.371 OA
ATOM      6  C   LIG A   1      -8.252  -0.261 130.554  0.00  0.00    +0.167 C 
ATOM      7  C   LIG A   1      -5.745   1.142 130.168  0.00  0.00    +0.167 C 
ATOM      8  O   LIG A   1      -6.193   1.908 131.303  0.00  0.00    -0.371 OA
ENDROOT
BRANCH   1  13
ATOM      9  C   LIG A   1      -7.283   5.947 131.036  0.00  0.00    +0.165 A 
ATOM     10  C   LIG A   1      -8.476   6.296 130.388  0.00  0.00    +0.201 A 
ATOM     11  C   LIG A   1      -9.364   5.310 129.944  0.00  0.00    +0.165 A 
ATOM     12  C   LIG A   1      -9.051   3.962 130.175  0.00  0.00    +0.056 A 
ATOM     13  C   LIG A   1      -7.891   3.590 130.876  0.00  0.00    -0.011 A 
ATOM     14  C   LIG A   1      -7.003   4.604 131.277  0.00  0.00    +0.056 A 
BRANCH   9  16
ATOM     15  C   LIG A   1      -5.075   6.791 131.313  0.00  0.00    +0.277 C 
ATOM     16  O   LIG A   1      -6.482   7.002 131.406  0.00  0.00    -0.491 OA
ENDBRANCH   9  16
BRANCH  10  17
ATOM     17  O   LIG A   1      -8.746   7.630 130.221  0.00  0.00    -0.501 OA
ATOM     18  H   LIG A   1      -8.289   7.882 129.394  0.00  0.00    +0.292 HD
ENDBRANCH  10  17
BRANCH  11  19
ATOM     19  O   LIG A   1     -10.544   5.506 129.277  0.00  0.00    -0.491 OA
ATOM     20  C   LIG A   1     -11.698   5.689 130.093  0.00  0.00    +0.277 C 
ENDBRANCH  11  19
ENDBRANCH   1  13
BRANCH   4  21
ATOM     21  C   LIG A   1      -7.909  -0.217 127.226  0.00  0.00    -0.011 A 
ATOM     22  C   LIG A   1      -8.267   1.017 126.636  0.00  0.00    +0.056 A 
ATOM     23  C   LIG A   1      -9.014   1.076 125.440  0.00  0.00    +0.165 A 
ATOM     24  C   LIG A   1      -9.367  -0.114 124.821  0.00  0.00    +0.201 A 
ATOM     25  C   LIG A   1      -9.021  -1.354 125.379  0.00  0.00    +0.165 A 
ATOM     26  C   LIG A   1      -8.290  -1.399 126.569  0.00  0.00    +0.056 A 
BRANCH  23  27
ATOM     27  O   LIG A   1      -9.308   2.352 125.022  0.00  0.00    -0.491 OA
ATOM     28  C   LIG A   1      -8.227   3.279 124.988  0.00  0.00    +0.277 C 
ENDBRANCH  23  27
BRANCH  24  29
ATOM     29  O   LIG A   1     -10.071  -0.161 123.638  0.00  0.00    -0.501 OA
ATOM     30  H   LIG A   1     -10.870  -0.683 123.833  0.00  0.00    +0.292 HD
ENDBRANCH  24  29
BRANCH  25  31
ATOM     31  O   LIG A   1      -9.414  -2.440 124.641  0.00  0.00    -0.491 OA
ATOM     32  C   LIG A   1      -8.362  -3.297 124.210  0.00  0.00    +0.277 C 
ENDBRANCH  25  31
ENDBRANCH   4  21
TORSDOF 8
ENDMDL
MODEL 8
REMARK VINA RESULT:      -6.7      2.782      5.518
REMARK  Name = NuBBE_1670
REMARK  12 active torsions:
REMARK  status: ('A' for Active; 'I' for Inactive)
REMARK    1  A    between atoms: C_1  and  O_2
REMARK    2  A    between atoms: O_2  and  C_3
REMARK    3  A    between atoms: C_4  and  O_5
REMARK    4  A    between atoms: C_6  and  O_7
REMARK    5  A    between atoms: O_7  and  C_8
REMARK    6  A    between atoms: C_10  and  C_11
REMARK    7  A    between atoms: C_14  and  C_15
REMARK    8  A    between atoms: C_17  and  O_18
REMARK    9  A    between atoms: O_18  and  C_19
REMARK   10  A    between atoms: C_20  and  O_21
REMARK   11  A    between atoms: C_22  and  O_23
REMARK   12  A    between atoms: O_23  and  C_24
REMARK                            x       y       z     vdW  Elec       q    Type
REMARK                         _______ _______ _______ _____ _____    ______ ____
ROOT
ATOM      1  C   LIG A   1      -6.053  -0.513 125.495  0.00  0.00    +0.154 C 
ATOM      2  C   LIG A   1      -6.164  -0.734 126.992  0.00  0.00    +0.056 C 
ATOM      3  C   LIG A   1      -7.648  -0.841 127.226  0.00  0.00    +0.056 C 
ATOM      4  C   LIG A   1      -7.761  -1.673 128.489  0.00  0.00    +0.154 C 
ATOM      5  O   LIG A   1      -6.622  -2.564 128.449  0.00  0.00    -0.371 OA
ATOM      6  C   LIG A   1      -5.685  -2.102 127.459  0.00  0.00    +0.167 C 
ATOM      7  C   LIG A   1      -8.106  -1.560 125.961  0.00  0.00    +0.167 C 
ATOM      8  O   LIG A   1      -7.180  -1.208 124.915  0.00  0.00    -0.371 OA
ENDROOT
BRANCH   1  13
ATOM      9  C   LIG A   1      -6.876   2.742 123.635  0.00  0.00    +0.165 A 
ATOM     10  C   LIG A   1      -6.072   3.659 124.327  0.00  0.00    +0.201 A 
ATOM     11  C   LIG A   1      -5.311   3.254 125.428  0.00  0.00    +0.165 A 
ATOM     12  C   LIG A   1      -5.349   1.907 125.821  0.00  0.00    +0.056 A 
ATOM     13  C   LIG A   1      -6.099   0.958 125.106  0.00  0.00    -0.011 A 
ATOM     14  C   LIG A   1      -6.880   1.404 124.026  0.00  0.00    +0.056 A 
BRANCH   9  16
ATOM     15  C   LIG A   1      -8.884   2.699 122.358  0.00  0.00    +0.277 C 
ATOM     16  O   LIG A   1      -7.594   3.262 122.583  0.00  0.00    -0.491 OA
ENDBRANCH   9  16
BRANCH  10  17
ATOM     17  O   LIG A   1      -6.048   4.954 123.877  0.00  0.00    -0.501 OA
ATOM     18  H   LIG A   1      -6.028   5.505 124.684  0.00  0.00    +0.292 HD
ENDBRANCH  10  17
BRANCH  11  19
ATOM     19  O   LIG A   1      -4.508   4.044 126.209  0.00  0.00    -0.491 OA
ATOM     20  C   LIG A   1      -3.186   3.561 126.430  0.00  0.00    +0.277 C 
ENDBRANCH  11  19
ENDBRANCH   1  13
BRANCH   4  21
ATOM     21  C   LIG A   1      -7.750  -0.853 129.777  0.00  0.00    -0.011 A 
ATOM     22  C   LIG A   1      -7.929   0.549 129.749  0.00  0.00    +0.056 A 
ATOM     23  C   LIG A   1      -7.940   1.317 130.933  0.00  0.00    +0.165 A 
ATOM     24  C   LIG A   1      -7.809   0.660 132.148  0.00  0.00    +0.201 A 
ATOM     25  C   LIG A   1      -7.636  -0.730 132.208  0.00  0.00    +0.165 A 
ATOM     26  C   LIG A   1      -7.616  -1.478 131.027  0.00  0.00    +0.056 A 
BRANCH  23  27
ATOM     27  O   LIG A   1      -8.088   2.668 130.727  0.00  0.00    -0.491 OA
ATOM     28  C   LIG A   1      -9.396   3.125 130.398  0.00  0.00    +0.277 C 
ENDBRANCH  23  27
BRANCH  24  29
ATOM     29  O   LIG A   1      -7.836   1.317 133.358  0.00  0.00    -0.501 OA
ATOM     30  H   LIG A   1      -7.114   0.925 133.882  0.00  0.00    +0.292 HD
ENDBRANCH  24  29
BRANCH  25  31
ATOM     31  O   LIG A   1      -7.548  -1.240 133.478  0.00  0.00    -0.491 OA
ATOM     32  C   LIG A   1      -7.866  -2.621 133.604  0.00  0.00    +0.277 C 
ENDBRANCH  25  31
ENDBRANCH   4  21
TORSDOF 8
ENDMDL
MODEL 9
REMARK VINA RESULT:      -6.7      2.796      5.458
REMARK  Name = NuBBE_1670
REMARK  12 active torsions:
REMARK  status: ('A' for Active; 'I' for Inactive)
REMARK    1  A    between atoms: C_1  and  O_2
REMARK    2  A    between atoms: O_2  and  C_3
REMARK    3  A    between atoms: C_4  and  O_5
REMARK    4  A    between atoms: C_6  and  O_7
REMARK    5  A    between atoms: O_7  and  C_8
REMARK    6  A    between atoms: C_10  and  C_11
REMARK    7  A    between atoms: C_14  and  C_15
REMARK    8  A    between atoms: C_17  and  O_18
REMARK    9  A    between atoms: O_18  and  C_19
REMARK   10  A    between atoms: C_20  and  O_21
REMARK   11  A    between atoms: C_22  and  O_23
REMARK   12  A    between atoms: O_23  and  C_24
REMARK                            x       y       z     vdW  Elec       q    Type
REMARK                         _______ _______ _______ _____ _____    ______ ____
ROOT
ATOM      1  C   LIG A   1      -6.518  -1.102 125.644  0.00  0.00    +0.154 C 
ATOM      2  C   LIG A   1      -6.458  -1.158 127.159  0.00  0.00    +0.056 C 
ATOM      3  C   LIG A   1      -7.855  -1.561 127.553  0.00  0.00    +0.056 C 
ATOM      4  C   LIG A   1      -7.675  -2.237 128.899  0.00  0.00    +0.154 C 
ATOM      5  O   LIG A   1      -6.368  -2.853 128.832  0.00  0.00    -0.371 OA
ATOM      6  C   LIG A   1      -5.642  -2.319 127.710  0.00  0.00    +0.167 C 
ATOM      7  C   LIG A   1      -8.231  -2.512 126.421  0.00  0.00    +0.167 C 
ATOM      8  O   LIG A   1      -7.495  -2.094 125.256  0.00  0.00    -0.371 OA
ENDROOT
BRANCH   1  13
ATOM      9  C   LIG A   1      -6.572   2.670 124.934  0.00  0.00    +0.165 A 
ATOM     10  C   LIG A   1      -7.780   2.795 124.233  0.00  0.00    +0.201 A 
ATOM     11  C   LIG A   1      -8.551   1.668 123.931  0.00  0.00    +0.165 A 
ATOM     12  C   LIG A   1      -8.107   0.408 124.358  0.00  0.00    +0.056 A 
ATOM     13  C   LIG A   1      -6.932   0.264 125.115  0.00  0.00    -0.011 A 
ATOM     14  C   LIG A   1      -6.162   1.412 125.371  0.00  0.00    +0.056 A 
BRANCH   9  16
ATOM     15  C   LIG A   1      -4.596   3.726 125.734  0.00  0.00    +0.277 C 
ATOM     16  O   LIG A   1      -5.893   3.845 125.154  0.00  0.00    -0.491 OA
ENDBRANCH   9  16
BRANCH  10  17
ATOM     17  O   LIG A   1      -8.181   4.056 123.871  0.00  0.00    -0.501 OA
ATOM     18  H   LIG A   1      -8.018   4.110 122.910  0.00  0.00    +0.292 HD
ENDBRANCH  10  17
BRANCH  11  19
ATOM     19  O   LIG A   1      -9.730   1.641 123.232  0.00  0.00    -0.491 OA
ATOM     20  C   LIG A   1     -10.044   0.410 122.587  0.00  0.00    +0.277 C 
ENDBRANCH  11  19
ENDBRANCH   1  13
BRANCH   4  21
ATOM     21  C   LIG A   1      -7.754  -1.285 130.090  0.00  0.00    -0.011 A 
ATOM     22  C   LIG A   1      -7.599  -1.759 131.413  0.00  0.00    +0.056 A 
ATOM     23  C   LIG A   1      -7.651  -0.887 132.521  0.00  0.00    +0.165 A 
ATOM     24  C   LIG A   1      -7.822   0.469 132.288  0.00  0.00    +0.201 A 
ATOM     25  C   LIG A   1      -7.973   0.970 130.987  0.00  0.00    +0.165 A 
ATOM     26  C   LIG A   1      -7.930   0.095 129.898  0.00  0.00    +0.056 A 
BRANCH  23  27
ATOM     27  O   LIG A   1      -7.519  -1.514 133.738  0.00  0.00    -0.491 OA
ATOM     28  C   LIG A   1      -7.984  -2.858 133.818  0.00  0.00    +0.277 C 
ENDBRANCH  23  27
BRANCH  24  29
ATOM     29  O   LIG A   1      -7.859   1.402 133.301  0.00  0.00    -0.501 OA
ATOM     30  H   LIG A   1      -8.789   1.685 133.359  0.00  0.00    +0.292 HD
ENDBRANCH  24  29
BRANCH  25  31
ATOM     31  O   LIG A   1      -8.106   2.332 130.912  0.00  0.00    -0.491 OA
ATOM     32  C   LIG A   1      -9.301   2.795 130.291  0.00  0.00    +0.277 C 
ENDBRANCH  25  31
ENDBRANCH   4  21
TORSDOF 8
ENDMDL
