MODEL 1
REMARK VINA RESULT:      -8.0      0.000      0.000
REMARK  Name = NuBBE_144
REMARK  11 active torsions:
REMARK  status: ('A' for Active; 'I' for Inactive)
REMARK    1  A    between atoms: C_1  and  C_2
REMARK    2  A    between atoms: C_2  and  C_3
REMARK    3  A    between atoms: C_7  and  C_8
REMARK    4  A    between atoms: C_11  and  O_13
REMARK    5  A    between atoms: O_13  and  C_14
REMARK    6  A    between atoms: C_14  and  C_15
REMARK    7  A    between atoms: C_15  and  C_16
REMARK    8  A    between atoms: C_16  and  O_17
REMARK    9  A    between atoms: C_21  and  C_22
REMARK   10  A    between atoms: C_26  and  C_27
REMARK   11  A    between atoms: C_26  and  C_28
REMARK                            x       y       z     vdW  Elec       q    Type
REMARK                         _______ _______ _______ _____ _____    ______ ____
ROOT
ATOM      1  C   LIG A   1      -8.253   1.596 130.522  0.00  0.00    +0.011 C 
ATOM      2  C   LIG A   1      -8.077   2.864 131.400  0.00  0.00    -0.028 C 
ATOM      3  C   LIG A   1      -6.566   3.173 131.449  0.00  0.00    +0.011 C 
ATOM      4  C   LIG A   1      -8.552   2.409 132.809  0.00  0.00    +0.007 C 
ATOM      5  C   LIG A   1      -8.700   3.522 133.830  0.00  0.00    +0.001 C 
ATOM      6  C   LIG A   1      -9.588   4.638 133.296  0.00  0.00    +0.007 C 
ATOM      7  C   LIG A   1      -9.110   5.258 131.950  0.00  0.00    -0.020 C 
ATOM      8  C   LIG A   1      -7.765   5.982 132.228  0.00  0.00    +0.012 C 
ATOM      9  C   LIG A   1      -8.970   4.091 130.901  0.00  0.00    +0.042 C 
ATOM     10  C   LIG A   1      -8.645   4.661 129.486  0.00  0.00    +0.183 C 
ATOM     11  C   LIG A   1      -9.582   5.792 129.038  0.00  0.00    +0.080 C 
ATOM     12  C   LIG A   1      -9.893   6.921 130.022  0.00  0.00    +0.074 C 
ATOM     13  C   LIG A   1      -8.758   7.960 129.987  0.00  0.00    +0.042 C 
ATOM     14  C   LIG A   1     -10.153   6.362 131.453  0.00  0.00    +0.027 C 
ATOM     15  C   LIG A   1     -11.628   5.936 131.576  0.00  0.00    +0.010 C 
ATOM     16  C   LIG A   1     -12.499   7.148 131.302  0.00  0.00    +0.039 C 
ATOM     17  C   LIG A   1     -12.314   7.664 129.877  0.00  0.00    +0.085 C 
ATOM     18  C   LIG A   1     -12.771   9.136 129.843  0.00  0.00    +0.046 C 
ATOM     19  O   LIG A   1     -10.958   7.710 129.446  0.00  0.00    -0.363 OA
ENDROOT
BRANCH  17  20
ATOM     20  C   LIG A   1     -13.186   6.876 128.906  0.00  0.00    -0.001 C 
ATOM     21  C   LIG A   1     -13.737   7.292 127.757  0.00  0.00    +0.007 C 
ENDBRANCH  17  20
BRANCH  10  22
ATOM     22  O   LIG A   1      -8.642   3.636 128.449  0.00  0.00    -0.461 OA
BRANCH  22  23
ATOM     23  C   LIG A   1      -7.674   3.638 127.497  0.00  0.00    +0.318 C 
ATOM     24  O   LIG A   1      -6.713   4.411 127.453  0.00  0.00    -0.250 OA
BRANCH  23  25
ATOM     25  C   LIG A   1      -7.915   2.618 126.449  0.00  0.00    +0.240 C 
BRANCH  25  26
ATOM     26  C   LIG A   1      -8.425   3.236 125.188  0.00  0.00    +0.316 C 
ATOM     27  O   LIG A   1      -8.353   2.760 124.076  0.00  0.00    -0.250 OA
BRANCH  26  28
ATOM     28  O   LIG A   1      -8.950   4.466 125.376  0.00  0.00    -0.480 OA
ATOM     29  H   LIG A   1      -8.961   4.860 124.478  0.00  0.00    +0.295 HD
ENDBRANCH  26  28
ENDBRANCH  25  26
ENDBRANCH  23  25
ENDBRANCH  22  23
ENDBRANCH  10  22
TORSDOF 6
ENDMDL
MODEL 2
REMARK VINA RESULT:      -7.7      5.543      8.844
REMARK  Name = NuBBE_144
REMARK  11 active torsions:
REMARK  status: ('A' for Active; 'I' for Inactive)
REMARK    1  A    between atoms: C_1  and  C_2
REMARK    2  A    between atoms: C_2  and  C_3
REMARK    3  A    between atoms: C_7  and  C_8
REMARK    4  A    between atoms: C_11  and  O_13
REMARK    5  A    between atoms: O_13  and  C_14
REMARK    6  A    between atoms: C_14  and  C_15
REMARK    7  A    between atoms: C_15  and  C_16
REMARK    8  A    between atoms: C_16  and  O_17
REMARK    9  A    between atoms: C_21  and  C_22
REMARK   10  A    between atoms: C_26  and  C_27
REMARK   11  A    between atoms: C_26  and  C_28
REMARK                            x       y       z     vdW  Elec       q    Type
REMARK                         _______ _______ _______ _____ _____    ______ ____
ROOT
ATOM      1  C   LIG A   1      -4.738   4.400 125.080  0.00  0.00    +0.011 C 
ATOM      2  C   LIG A   1      -5.778   3.696 125.993  0.00  0.00    -0.028 C 
ATOM      3  C   LIG A   1      -7.001   4.631 126.090  0.00  0.00    +0.011 C 
ATOM      4  C   LIG A   1      -5.072   3.628 127.377  0.00  0.00    +0.007 C 
ATOM      5  C   LIG A   1      -5.778   2.779 128.419  0.00  0.00    +0.001 C 
ATOM      6  C   LIG A   1      -6.056   1.379 127.886  0.00  0.00    +0.007 C 
ATOM      7  C   LIG A   1      -6.885   1.341 126.569  0.00  0.00    -0.020 C 
ATOM      8  C   LIG A   1      -8.303   1.878 126.901  0.00  0.00    +0.012 C 
ATOM      9  C   LIG A   1      -6.135   2.220 125.497  0.00  0.00    +0.042 C 
ATOM     10  C   LIG A   1      -6.829   2.098 124.105  0.00  0.00    +0.183 C 
ATOM     11  C   LIG A   1      -7.082   0.651 123.658  0.00  0.00    +0.080 C 
ATOM     12  C   LIG A   1      -7.694  -0.330 124.658  0.00  0.00    +0.074 C 
ATOM     13  C   LIG A   1      -9.223  -0.157 124.679  0.00  0.00    +0.042 C 
ATOM     14  C   LIG A   1      -7.051  -0.168 126.069  0.00  0.00    +0.027 C 
ATOM     15  C   LIG A   1      -5.758  -1.001 126.141  0.00  0.00    +0.010 C 
ATOM     16  C   LIG A   1      -6.109  -2.452 125.870  0.00  0.00    +0.039 C 
ATOM     17  C   LIG A   1      -6.670  -2.644 124.463  0.00  0.00    +0.085 C 
ATOM     18  C   LIG A   1      -7.481  -3.954 124.451  0.00  0.00    +0.046 C 
ATOM     19  O   LIG A   1      -7.610  -1.649 124.072  0.00  0.00    -0.363 OA
ENDROOT
BRANCH  17  20
ATOM     20  C   LIG A   1      -5.539  -2.777 123.450  0.00  0.00    -0.001 C 
ATOM     21  C   LIG A   1      -4.489  -3.611 123.480  0.00  0.00    +0.007 C 
ENDBRANCH  17  20
BRANCH  10  22
ATOM     22  O   LIG A   1      -6.095   2.780 123.045  0.00  0.00    -0.461 OA
BRANCH  22  23
ATOM     23  C   LIG A   1      -6.749   3.206 121.935  0.00  0.00    +0.318 C 
ATOM     24  O   LIG A   1      -7.954   3.461 121.866  0.00  0.00    -0.250 OA
BRANCH  23  25
ATOM     25  C   LIG A   1      -5.854   3.296 120.757  0.00  0.00    +0.240 C 
BRANCH  25  26
ATOM     26  C   LIG A   1      -5.339   4.685 120.564  0.00  0.00    +0.316 C 
ATOM     27  O   LIG A   1      -5.360   5.322 119.533  0.00  0.00    -0.250 OA
BRANCH  26  28
ATOM     28  O   LIG A   1      -4.755   5.192 121.672  0.00  0.00    -0.480 OA
ATOM     29  H   LIG A   1      -3.872   5.487 121.363  0.00  0.00    +0.295 HD
ENDBRANCH  26  28
ENDBRANCH  25  26
ENDBRANCH  23  25
ENDBRANCH  22  23
ENDBRANCH  10  22
TORSDOF 6
ENDMDL
MODEL 3
REMARK VINA RESULT:      -7.7      4.696      8.717
REMARK  Name = NuBBE_144
REMARK  11 active torsions:
REMARK  status: ('A' for Active; 'I' for Inactive)
REMARK    1  A    between atoms: C_1  and  C_2
REMARK    2  A    between atoms: C_2  and  C_3
REMARK    3  A    between atoms: C_7  and  C_8
REMARK    4  A    between atoms: C_11  and  O_13
REMARK    5  A    between atoms: O_13  and  C_14
REMARK    6  A    between atoms: C_14  and  C_15
REMARK    7  A    between atoms: C_15  and  C_16
REMARK    8  A    between atoms: C_16  and  O_17
REMARK    9  A    between atoms: C_21  and  C_22
REMARK   10  A    between atoms: C_26  and  C_27
REMARK   11  A    between atoms: C_26  and  C_28
REMARK                            x       y       z     vdW  Elec       q    Type
REMARK                         _______ _______ _______ _____ _____    ______ ____
ROOT
ATOM      1  C   LIG A   1      -9.228   0.587 123.708  0.00  0.00    +0.011 C 
ATOM      2  C   LIG A   1      -8.354  -0.680 123.911  0.00  0.00    -0.028 C 
ATOM      3  C   LIG A   1      -7.124  -0.532 122.992  0.00  0.00    +0.011 C 
ATOM      4  C   LIG A   1      -9.250  -1.838 123.387  0.00  0.00    +0.007 C 
ATOM      5  C   LIG A   1      -8.730  -3.235 123.673  0.00  0.00    +0.001 C 
ATOM      6  C   LIG A   1      -8.432  -3.413 125.156  0.00  0.00    +0.007 C 
ATOM      7  C   LIG A   1      -7.426  -2.379 125.743  0.00  0.00    -0.020 C 
ATOM      8  C   LIG A   1      -6.051  -2.642 125.073  0.00  0.00    +0.012 C 
ATOM      9  C   LIG A   1      -7.985  -0.935 125.444  0.00  0.00    +0.042 C 
ATOM     10  C   LIG A   1      -7.106   0.148 126.142  0.00  0.00    +0.183 C 
ATOM     11  C   LIG A   1      -6.846  -0.123 127.631  0.00  0.00    +0.080 C 
ATOM     12  C   LIG A   1      -6.417  -1.528 128.058  0.00  0.00    +0.074 C 
ATOM     13  C   LIG A   1      -4.902  -1.690 127.848  0.00  0.00    +0.042 C 
ATOM     14  C   LIG A   1      -7.247  -2.617 127.313  0.00  0.00    +0.027 C 
ATOM     15  C   LIG A   1      -8.567  -2.861 128.068  0.00  0.00    +0.010 C 
ATOM     16  C   LIG A   1      -8.235  -3.305 129.481  0.00  0.00    +0.039 C 
ATOM     17  C   LIG A   1      -7.488  -2.219 130.252  0.00  0.00    +0.085 C 
ATOM     18  C   LIG A   1      -6.731  -2.897 131.411  0.00  0.00    +0.046 C 
ATOM     19  O   LIG A   1      -6.466  -1.571 129.501  0.00  0.00    -0.363 OA
ENDROOT
BRANCH  17  20
ATOM     20  C   LIG A   1      -8.468  -1.216 130.848  0.00  0.00    -0.001 C 
ATOM     21  C   LIG A   1      -8.307   0.103 131.021  0.00  0.00    +0.007 C 
ENDBRANCH  17  20
BRANCH  10  22
ATOM     22  O   LIG A   1      -7.658   1.492 126.015  0.00  0.00    -0.461 OA
BRANCH  22  23
ATOM     23  C   LIG A   1      -6.830   2.545 125.794  0.00  0.00    +0.318 C 
ATOM     24  O   LIG A   1      -5.800   2.519 125.115  0.00  0.00    -0.250 OA
BRANCH  23  25
ATOM     25  C   LIG A   1      -7.272   3.765 126.511  0.00  0.00    +0.240 C 
BRANCH  25  26
ATOM     26  C   LIG A   1      -8.189   4.593 125.672  0.00  0.00    +0.316 C 
ATOM     27  O   LIG A   1      -8.838   5.547 126.044  0.00  0.00    -0.250 OA
BRANCH  26  28
ATOM     28  O   LIG A   1      -8.301   4.140 124.404  0.00  0.00    -0.480 OA
ATOM     29  H   LIG A   1      -7.976   3.216 124.451  0.00  0.00    +0.295 HD
ENDBRANCH  26  28
ENDBRANCH  25  26
ENDBRANCH  23  25
ENDBRANCH  22  23
ENDBRANCH  10  22
TORSDOF 6
ENDMDL
MODEL 4
REMARK VINA RESULT:      -7.3      4.110      7.013
REMARK  Name = NuBBE_144
REMARK  11 active torsions:
REMARK  status: ('A' for Active; 'I' for Inactive)
REMARK    1  A    between atoms: C_1  and  C_2
REMARK    2  A    between atoms: C_2  and  C_3
REMARK    3  A    between atoms: C_7  and  C_8
REMARK    4  A    between atoms: C_11  and  O_13
REMARK    5  A    between atoms: O_13  and  C_14
REMARK    6  A    between atoms: C_14  and  C_15
REMARK    7  A    between atoms: C_15  and  C_16
REMARK    8  A    between atoms: C_16  and  O_17
REMARK    9  A    between atoms: C_21  and  C_22
REMARK   10  A    between atoms: C_26  and  C_27
REMARK   11  A    between atoms: C_26  and  C_28
REMARK                            x       y       z     vdW  Elec       q    Type
REMARK                         _______ _______ _______ _____ _____    ______ ____
ROOT
ATOM      1  C   LIG A   1      -9.052  -1.064 125.400  0.00  0.00    +0.011 C 
ATOM      2  C   LIG A   1      -8.169  -1.869 126.391  0.00  0.00    -0.028 C 
ATOM      3  C   LIG A   1      -6.927  -2.344 125.606  0.00  0.00    +0.011 C 
ATOM      4  C   LIG A   1      -9.046  -3.100 126.756  0.00  0.00    +0.007 C 
ATOM      5  C   LIG A   1      -8.516  -3.955 127.893  0.00  0.00    +0.001 C 
ATOM      6  C   LIG A   1      -8.236  -3.108 129.128  0.00  0.00    +0.007 C 
ATOM      7  C   LIG A   1      -7.249  -1.927 128.891  0.00  0.00    -0.020 C 
ATOM      8  C   LIG A   1      -5.862  -2.543 128.566  0.00  0.00    +0.012 C 
ATOM      9  C   LIG A   1      -7.818  -1.046 127.714  0.00  0.00    +0.042 C 
ATOM     10  C   LIG A   1      -6.959   0.243 127.529  0.00  0.00    +0.183 C 
ATOM     11  C   LIG A   1      -6.716   1.023 128.829  0.00  0.00    +0.080 C 
ATOM     12  C   LIG A   1      -6.279   0.254 130.077  0.00  0.00    +0.074 C 
ATOM     13  C   LIG A   1      -4.760   0.019 130.031  0.00  0.00    +0.042 C 
ATOM     14  C   LIG A   1      -7.088  -1.070 130.231  0.00  0.00    +0.027 C 
ATOM     15  C   LIG A   1      -8.416  -0.777 130.954  0.00  0.00    +0.010 C 
ATOM     16  C   LIG A   1      -8.098  -0.176 132.311  0.00  0.00    +0.039 C 
ATOM     17  C   LIG A   1      -7.372   1.161 132.179  0.00  0.00    +0.085 C 
ATOM     18  C   LIG A   1      -6.625   1.427 133.501  0.00  0.00    +0.046 C 
ATOM     19  O   LIG A   1      -6.348   1.171 131.191  0.00  0.00    -0.363 OA
ENDROOT
BRANCH  17  20
ATOM     20  C   LIG A   1      -8.371   2.293 131.964  0.00  0.00    -0.001 C 
ATOM     21  C   LIG A   1      -9.329   2.726 132.795  0.00  0.00    +0.007 C 
ENDBRANCH  17  20
BRANCH  10  22
ATOM     22  O   LIG A   1      -7.522   1.161 126.546  0.00  0.00    -0.461 OA
BRANCH  22  23
ATOM     23  C   LIG A   1      -6.710   1.768 125.643  0.00  0.00    +0.318 C 
ATOM     24  O   LIG A   1      -5.503   1.977 125.791  0.00  0.00    -0.250 OA
BRANCH  23  25
ATOM     25  C   LIG A   1      -7.446   2.214 124.437  0.00  0.00    +0.240 C 
BRANCH  25  26
ATOM     26  C   LIG A   1      -8.661   3.006 124.797  0.00  0.00    +0.316 C 
ATOM     27  O   LIG A   1      -8.679   4.150 125.195  0.00  0.00    -0.250 OA
BRANCH  26  28
ATOM     28  O   LIG A   1      -9.805   2.294 124.701  0.00  0.00    -0.480 OA
ATOM     29  H   LIG A   1      -9.502   1.365 124.623  0.00  0.00    +0.295 HD
ENDBRANCH  26  28
ENDBRANCH  25  26
ENDBRANCH  23  25
ENDBRANCH  22  23
ENDBRANCH  10  22
TORSDOF 6
ENDMDL
MODEL 5
REMARK VINA RESULT:      -7.2      3.299      6.133
REMARK  Name = NuBBE_144
REMARK  11 active torsions:
REMARK  status: ('A' for Active; 'I' for Inactive)
REMARK    1  A    between atoms: C_1  and  C_2
REMARK    2  A    between atoms: C_2  and  C_3
REMARK    3  A    between atoms: C_7  and  C_8
REMARK    4  A    between atoms: C_11  and  O_13
REMARK    5  A    between atoms: O_13  and  C_14
REMARK    6  A    between atoms: C_14  and  C_15
REMARK    7  A    between atoms: C_15  and  C_16
REMARK    8  A    between atoms: C_16  and  O_17
REMARK    9  A    between atoms: C_21  and  C_22
REMARK   10  A    between atoms: C_26  and  C_27
REMARK   11  A    between atoms: C_26  and  C_28
REMARK                            x       y       z     vdW  Elec       q    Type
REMARK                         _______ _______ _______ _____ _____    ______ ____
ROOT
ATOM      1  C   LIG A   1      -9.313  -2.425 126.159  0.00  0.00    +0.011 C 
ATOM      2  C   LIG A   1      -8.116  -2.323 127.143  0.00  0.00    -0.028 C 
ATOM      3  C   LIG A   1      -6.827  -2.410 126.299  0.00  0.00    +0.011 C 
ATOM      4  C   LIG A   1      -8.244  -3.602 128.019  0.00  0.00    +0.007 C 
ATOM      5  C   LIG A   1      -7.323  -3.652 129.225  0.00  0.00    +0.001 C 
ATOM      6  C   LIG A   1      -7.473  -2.398 130.078  0.00  0.00    +0.007 C 
ATOM      7  C   LIG A   1      -7.222  -1.064 129.316  0.00  0.00    -0.020 C 
ATOM      8  C   LIG A   1      -5.723  -1.038 128.912  0.00  0.00    +0.012 C 
ATOM      9  C   LIG A   1      -8.190  -1.025 128.072  0.00  0.00    +0.042 C 
ATOM     10  C   LIG A   1      -8.103   0.356 127.352  0.00  0.00    +0.183 C 
ATOM     11  C   LIG A   1      -8.249   1.561 128.293  0.00  0.00    +0.080 C 
ATOM     12  C   LIG A   1      -7.449   1.576 129.596  0.00  0.00    +0.074 C 
ATOM     13  C   LIG A   1      -6.020   2.072 129.318  0.00  0.00    +0.042 C 
ATOM     14  C   LIG A   1      -7.477   0.179 130.287  0.00  0.00    +0.027 C 
ATOM     15  C   LIG A   1      -8.751   0.058 131.145  0.00  0.00    +0.010 C 
ATOM     16  C   LIG A   1      -8.740   1.171 132.176  0.00  0.00    +0.039 C 
ATOM     17  C   LIG A   1      -8.790   2.548 131.519  0.00  0.00    +0.085 C 
ATOM     18  C   LIG A   1      -8.242   3.575 132.528  0.00  0.00    +0.046 C 
ATOM     19  O   LIG A   1      -7.939   2.683 130.386  0.00  0.00    -0.363 OA
ENDROOT
BRANCH  17  20
ATOM     20  C   LIG A   1     -10.229   2.931 131.189  0.00  0.00    -0.001 C 
ATOM     21  C   LIG A   1     -10.666   3.940 130.423  0.00  0.00    +0.007 C 
ENDBRANCH  17  20
BRANCH  10  22
ATOM     22  O   LIG A   1      -9.080   0.497 126.278  0.00  0.00    -0.461 OA
BRANCH  22  23
ATOM     23  C   LIG A   1      -8.817   1.316 125.228  0.00  0.00    +0.318 C 
ATOM     24  O   LIG A   1      -9.400   2.375 124.981  0.00  0.00    -0.250 OA
BRANCH  23  25
ATOM     25  C   LIG A   1      -7.756   0.774 124.346  0.00  0.00    +0.240 C 
BRANCH  25  26
ATOM     26  C   LIG A   1      -8.271  -0.333 123.485  0.00  0.00    +0.316 C 
ATOM     27  O   LIG A   1      -7.603  -1.162 122.905  0.00  0.00    -0.250 OA
BRANCH  26  28
ATOM     28  O   LIG A   1      -9.613  -0.309 123.336  0.00  0.00    -0.480 OA
ATOM     29  H   LIG A   1      -9.839   0.646 123.360  0.00  0.00    +0.295 HD
ENDBRANCH  26  28
ENDBRANCH  25  26
ENDBRANCH  23  25
ENDBRANCH  22  23
ENDBRANCH  10  22
TORSDOF 6
ENDMDL
MODEL 6
REMARK VINA RESULT:      -7.0      2.517      6.083
REMARK  Name = NuBBE_144
REMARK  11 active torsions:
REMARK  status: ('A' for Active; 'I' for Inactive)
REMARK    1  A    between atoms: C_1  and  C_2
REMARK    2  A    between atoms: C_2  and  C_3
REMARK    3  A    between atoms: C_7  and  C_8
REMARK    4  A    between atoms: C_11  and  O_13
REMARK    5  A    between atoms: O_13  and  C_14
REMARK    6  A    between atoms: C_14  and  C_15
REMARK    7  A    between atoms: C_15  and  C_16
REMARK    8  A    between atoms: C_16  and  O_17
REMARK    9  A    between atoms: C_21  and  C_22
REMARK   10  A    between atoms: C_26  and  C_27
REMARK   11  A    between atoms: C_26  and  C_28
REMARK                            x       y       z     vdW  Elec       q    Type
REMARK                         _______ _______ _______ _____ _____    ______ ____
ROOT
ATOM      1  C   LIG A   1      -8.024   5.599 134.171  0.00  0.00    +0.011 C 
ATOM      2  C   LIG A   1      -7.751   4.190 133.578  0.00  0.00    -0.028 C 
ATOM      3  C   LIG A   1      -9.094   3.431 133.578  0.00  0.00    +0.011 C 
ATOM      4  C   LIG A   1      -6.790   3.533 134.609  0.00  0.00    +0.007 C 
ATOM      5  C   LIG A   1      -6.175   2.217 134.168  0.00  0.00    +0.001 C 
ATOM      6  C   LIG A   1      -5.495   2.360 132.812  0.00  0.00    +0.007 C 
ATOM      7  C   LIG A   1      -6.422   2.881 131.675  0.00  0.00    -0.020 C 
ATOM      8  C   LIG A   1      -7.494   1.788 131.417  0.00  0.00    +0.012 C 
ATOM      9  C   LIG A   1      -7.045   4.250 132.146  0.00  0.00    +0.042 C 
ATOM     10  C   LIG A   1      -7.863   4.906 130.990  0.00  0.00    +0.183 C 
ATOM     11  C   LIG A   1      -7.103   4.993 129.659  0.00  0.00    +0.080 C 
ATOM     12  C   LIG A   1      -6.352   3.758 129.160  0.00  0.00    +0.074 C 
ATOM     13  C   LIG A   1      -7.333   2.814 128.443  0.00  0.00    +0.042 C 
ATOM     14  C   LIG A   1      -5.586   3.059 130.324  0.00  0.00    +0.027 C 
ATOM     15  C   LIG A   1      -4.216   3.735 130.515  0.00  0.00    +0.010 C 
ATOM     16  C   LIG A   1      -3.443   3.623 129.214  0.00  0.00    +0.039 C 
ATOM     17  C   LIG A   1      -4.139   4.368 128.078  0.00  0.00    +0.085 C 
ATOM     18  C   LIG A   1      -3.633   3.781 126.746  0.00  0.00    +0.046 C 
ATOM     19  O   LIG A   1      -5.548   4.172 128.032  0.00  0.00    -0.363 OA
ENDROOT
BRANCH  17  20
ATOM     20  C   LIG A   1      -3.779   5.849 128.110  0.00  0.00    -0.001 C 
ATOM     21  C   LIG A   1      -2.591   6.411 128.376  0.00  0.00    +0.007 C 
ENDBRANCH  17  20
BRANCH  10  22
ATOM     22  O   LIG A   1      -8.346   6.241 131.327  0.00  0.00    -0.461 OA
BRANCH  22  23
ATOM     23  C   LIG A   1      -9.646   6.565 131.108  0.00  0.00    +0.318 C 
ATOM     24  O   LIG A   1     -10.604   6.184 131.786  0.00  0.00    -0.250 OA
BRANCH  23  25
ATOM     25  C   LIG A   1      -9.817   7.414 129.905  0.00  0.00    +0.240 C 
BRANCH  25  26
ATOM     26  C   LIG A   1     -10.340   6.626 128.748  0.00  0.00    +0.316 C 
ATOM     27  O   LIG A   1      -9.771   6.434 127.695  0.00  0.00    -0.250 OA
BRANCH  26  28
ATOM     28  O   LIG A   1     -11.594   6.165 128.944  0.00  0.00    -0.480 OA
ATOM     29  H   LIG A   1     -11.944   6.726 129.670  0.00  0.00    +0.295 HD
ENDBRANCH  26  28
ENDBRANCH  25  26
ENDBRANCH  23  25
ENDBRANCH  22  23
ENDBRANCH  10  22
TORSDOF 6
ENDMDL
MODEL 7
REMARK VINA RESULT:      -7.0      2.717      3.685
REMARK  Name = NuBBE_144
REMARK  11 active torsions:
REMARK  status: ('A' for Active; 'I' for Inactive)
REMARK    1  A    between atoms: C_1  and  C_2
REMARK    2  A    between atoms: C_2  and  C_3
REMARK    3  A    between atoms: C_7  and  C_8
REMARK    4  A    between atoms: C_11  and  O_13
REMARK    5  A    between atoms: O_13  and  C_14
REMARK    6  A    between atoms: C_14  and  C_15
REMARK    7  A    between atoms: C_15  and  C_16
REMARK    8  A    between atoms: C_16  and  O_17
REMARK    9  A    between atoms: C_21  and  C_22
REMARK   10  A    between atoms: C_26  and  C_27
REMARK   11  A    between atoms: C_26  and  C_28
REMARK                            x       y       z     vdW  Elec       q    Type
REMARK                         _______ _______ _______ _____ _____    ______ ____
ROOT
ATOM      1  C   LIG A   1      -5.872   1.268 129.805  0.00  0.00    +0.011 C 
ATOM      2  C   LIG A   1      -6.851   1.454 130.996  0.00  0.00    -0.028 C 
ATOM      3  C   LIG A   1      -6.016   1.342 132.289  0.00  0.00    +0.011 C 
ATOM      4  C   LIG A   1      -7.801   0.227 130.891  0.00  0.00    +0.007 C 
ATOM      5  C   LIG A   1      -9.010   0.268 131.808  0.00  0.00    +0.001 C 
ATOM      6  C   LIG A   1      -9.786   1.567 131.630  0.00  0.00    +0.007 C 
ATOM      7  C   LIG A   1      -8.946   2.858 131.857  0.00  0.00    -0.020 C 
ATOM      8  C   LIG A   1      -8.545   2.891 133.356  0.00  0.00    +0.012 C 
ATOM      9  C   LIG A   1      -7.700   2.803 130.893  0.00  0.00    +0.042 C 
ATOM     10  C   LIG A   1      -6.899   4.140 130.954  0.00  0.00    +0.183 C 
ATOM     11  C   LIG A   1      -7.765   5.396 130.780  0.00  0.00    +0.080 C 
ATOM     12  C   LIG A   1      -9.067   5.505 131.575  0.00  0.00    +0.074 C 
ATOM     13  C   LIG A   1      -8.763   6.013 132.995  0.00  0.00    +0.042 C 
ATOM     14  C   LIG A   1      -9.841   4.152 131.573  0.00  0.00    +0.027 C 
ATOM     15  C   LIG A   1     -10.701   4.056 130.300  0.00  0.00    +0.010 C 
ATOM     16  C   LIG A   1     -11.664   5.229 130.284  0.00  0.00    +0.039 C 
ATOM     17  C   LIG A   1     -10.925   6.563 130.208  0.00  0.00    +0.085 C 
ATOM     18  C   LIG A   1     -11.872   7.659 130.733  0.00  0.00    +0.046 C 
ATOM     19  O   LIG A   1      -9.788   6.647 131.061  0.00  0.00    -0.363 OA
ENDROOT
BRANCH  17  20
ATOM     20  C   LIG A   1     -10.569   6.896 128.764  0.00  0.00    -0.001 C 
ATOM     21  C   LIG A   1     -10.575   8.093 128.160  0.00  0.00    +0.007 C 
ENDBRANCH  17  20
BRANCH  10  22
ATOM     22  O   LIG A   1      -5.816   4.196 129.979  0.00  0.00    -0.461 OA
BRANCH  22  23
ATOM     23  C   LIG A   1      -4.579   4.602 130.363  0.00  0.00    +0.318 C 
ATOM     24  O   LIG A   1      -4.262   4.957 131.502  0.00  0.00    -0.250 OA
BRANCH  23  25
ATOM     25  C   LIG A   1      -3.620   4.626 129.233  0.00  0.00    +0.240 C 
BRANCH  25  26
ATOM     26  C   LIG A   1      -3.393   6.016 128.735  0.00  0.00    +0.316 C 
ATOM     27  O   LIG A   1      -2.385   6.434 128.207  0.00  0.00    -0.250 OA
BRANCH  26  28
ATOM     28  O   LIG A   1      -4.430   6.844 128.985  0.00  0.00    -0.480 OA
ATOM     29  H   LIG A   1      -4.265   7.617 128.404  0.00  0.00    +0.295 HD
ENDBRANCH  26  28
ENDBRANCH  25  26
ENDBRANCH  23  25
ENDBRANCH  22  23
ENDBRANCH  10  22
TORSDOF 6
ENDMDL
MODEL 8
REMARK VINA RESULT:      -6.9      5.941      9.088
REMARK  Name = NuBBE_144
REMARK  11 active torsions:
REMARK  status: ('A' for Active; 'I' for Inactive)
REMARK    1  A    between atoms: C_1  and  C_2
REMARK    2  A    between atoms: C_2  and  C_3
REMARK    3  A    between atoms: C_7  and  C_8
REMARK    4  A    between atoms: C_11  and  O_13
REMARK    5  A    between atoms: O_13  and  C_14
REMARK    6  A    between atoms: C_14  and  C_15
REMARK    7  A    between atoms: C_15  and  C_16
REMARK    8  A    between atoms: C_16  and  O_17
REMARK    9  A    between atoms: C_21  and  C_22
REMARK   10  A    between atoms: C_26  and  C_27
REMARK   11  A    between atoms: C_26  and  C_28
REMARK                            x       y       z     vdW  Elec       q    Type
REMARK                         _______ _______ _______ _____ _____    ______ ____
ROOT
ATOM      1  C   LIG A   1      -8.695   0.810 123.660  0.00  0.00    +0.011 C 
ATOM      2  C   LIG A   1      -8.043  -0.590 123.822  0.00  0.00    -0.028 C 
ATOM      3  C   LIG A   1      -6.803  -0.620 122.904  0.00  0.00    +0.011 C 
ATOM      4  C   LIG A   1      -9.117  -1.567 123.267  0.00  0.00    +0.007 C 
ATOM      5  C   LIG A   1      -8.836  -3.039 123.509  0.00  0.00    +0.001 C 
ATOM      6  C   LIG A   1      -8.574  -3.309 124.985  0.00  0.00    +0.007 C 
ATOM      7  C   LIG A   1      -7.412  -2.473 125.599  0.00  0.00    -0.020 C 
ATOM      8  C   LIG A   1      -6.098  -2.940 124.917  0.00  0.00    +0.012 C 
ATOM      9  C   LIG A   1      -7.724  -0.949 125.346  0.00  0.00    +0.042 C 
ATOM     10  C   LIG A   1      -6.679  -0.047 126.073  0.00  0.00    +0.183 C 
ATOM     11  C   LIG A   1      -6.470  -0.403 127.552  0.00  0.00    +0.080 C 
ATOM     12  C   LIG A   1      -6.280  -1.872 127.935  0.00  0.00    +0.074 C 
ATOM     13  C   LIG A   1      -4.812  -2.275 127.716  0.00  0.00    +0.042 C 
ATOM     14  C   LIG A   1      -7.278  -2.786 127.161  0.00  0.00    +0.027 C 
ATOM     15  C   LIG A   1      -8.621  -2.830 127.913  0.00  0.00    +0.010 C 
ATOM     16  C   LIG A   1      -8.369  -3.365 129.310  0.00  0.00    +0.039 C 
ATOM     17  C   LIG A   1      -7.454  -2.442 130.111  0.00  0.00    +0.085 C 
ATOM     18  C   LIG A   1      -6.823  -3.270 131.247  0.00  0.00    +0.046 C 
ATOM     19  O   LIG A   1      -6.338  -1.949 129.377  0.00  0.00    -0.363 OA
ENDROOT
BRANCH  17  20
ATOM     20  C   LIG A   1      -8.257  -1.309 130.740  0.00  0.00    -0.001 C 
ATOM     21  C   LIG A   1      -8.136  -0.787 131.969  0.00  0.00    +0.007 C 
ENDBRANCH  17  20
BRANCH  10  22
ATOM     22  O   LIG A   1      -7.001   1.373 125.988  0.00  0.00    -0.461 OA
BRANCH  22  23
ATOM     23  C   LIG A   1      -6.173   2.289 126.553  0.00  0.00    +0.318 C 
ATOM     24  O   LIG A   1      -6.452   3.013 127.512  0.00  0.00    -0.250 OA
BRANCH  23  25
ATOM     25  C   LIG A   1      -4.870   2.374 125.852  0.00  0.00    +0.240 C 
BRANCH  25  26
ATOM     26  C   LIG A   1      -3.774   2.787 126.780  0.00  0.00    +0.316 C 
ATOM     27  O   LIG A   1      -2.957   3.660 126.583  0.00  0.00    -0.250 OA
BRANCH  26  28
ATOM     28  O   LIG A   1      -3.715   2.032 127.899  0.00  0.00    -0.480 OA
ATOM     29  H   LIG A   1      -2.754   1.935 128.071  0.00  0.00    +0.295 HD
ENDBRANCH  26  28
ENDBRANCH  25  26
ENDBRANCH  23  25
ENDBRANCH  22  23
ENDBRANCH  10  22
TORSDOF 6
ENDMDL
MODEL 9
REMARK VINA RESULT:      -6.9      4.367      7.547
REMARK  Name = NuBBE_144
REMARK  11 active torsions:
REMARK  status: ('A' for Active; 'I' for Inactive)
REMARK    1  A    between atoms: C_1  and  C_2
REMARK    2  A    between atoms: C_2  and  C_3
REMARK    3  A    between atoms: C_7  and  C_8
REMARK    4  A    between atoms: C_11  and  O_13
REMARK    5  A    between atoms: O_13  and  C_14
REMARK    6  A    between atoms: C_14  and  C_15
REMARK    7  A    between atoms: C_15  and  C_16
REMARK    8  A    between atoms: C_16  and  O_17
REMARK    9  A    between atoms: C_21  and  C_22
REMARK   10  A    between atoms: C_26  and  C_27
REMARK   11  A    between atoms: C_26  and  C_28
REMARK                            x       y       z     vdW  Elec       q    Type
REMARK                         _______ _______ _______ _____ _____    ______ ____
ROOT
ATOM      1  C   LIG A   1      -6.021   2.540 129.276  0.00  0.00    +0.011 C 
ATOM      2  C   LIG A   1      -5.123   3.586 128.561  0.00  0.00    -0.028 C 
ATOM      3  C   LIG A   1      -5.953   4.177 127.402  0.00  0.00    +0.011 C 
ATOM      4  C   LIG A   1      -3.958   2.738 127.977  0.00  0.00    +0.007 C 
ATOM      5  C   LIG A   1      -2.800   3.539 127.408  0.00  0.00    +0.001 C 
ATOM      6  C   LIG A   1      -2.278   4.542 128.428  0.00  0.00    +0.007 C 
ATOM      7  C   LIG A   1      -3.350   5.533 128.969  0.00  0.00    -0.020 C 
ATOM      8  C   LIG A   1      -3.786   6.433 127.781  0.00  0.00    +0.012 C 
ATOM      9  C   LIG A   1      -4.540   4.686 129.561  0.00  0.00    +0.042 C 
ATOM     10  C   LIG A   1      -5.579   5.615 130.262  0.00  0.00    +0.183 C 
ATOM     11  C   LIG A   1      -4.959   6.603 131.262  0.00  0.00    +0.080 C 
ATOM     12  C   LIG A   1      -3.720   7.394 130.840  0.00  0.00    +0.074 C 
ATOM     13  C   LIG A   1      -4.148   8.622 130.018  0.00  0.00    +0.042 C 
ATOM     14  C   LIG A   1      -2.707   6.485 130.079  0.00  0.00    +0.027 C 
ATOM     15  C   LIG A   1      -1.813   5.752 131.097  0.00  0.00    +0.010 C 
ATOM     16  C   LIG A   1      -1.088   6.791 131.932  0.00  0.00    +0.039 C 
ATOM     17  C   LIG A   1      -2.061   7.642 132.744  0.00  0.00    +0.085 C 
ATOM     18  C   LIG A   1      -1.349   8.959 133.109  0.00  0.00    +0.046 C 
ATOM     19  O   LIG A   1      -3.214   8.058 132.019  0.00  0.00    -0.363 OA
ENDROOT
BRANCH  17  20
ATOM     20  C   LIG A   1      -2.438   6.933 134.039  0.00  0.00    -0.001 C 
ATOM     21  C   LIG A   1      -3.602   6.978 134.704  0.00  0.00    +0.007 C 
ENDBRANCH  17  20
BRANCH  10  22
ATOM     22  O   LIG A   1      -6.629   4.872 130.949  0.00  0.00    -0.461 OA
BRANCH  22  23
ATOM     23  C   LIG A   1      -7.925   5.257 130.821  0.00  0.00    +0.318 C 
ATOM     24  O   LIG A   1      -8.402   5.862 129.857  0.00  0.00    -0.250 OA
BRANCH  23  25
ATOM     25  C   LIG A   1      -8.733   4.910 132.014  0.00  0.00    +0.240 C 
BRANCH  25  26
ATOM     26  C   LIG A   1     -10.067   5.582 131.987  0.00  0.00    +0.316 C 
ATOM     27  O   LIG A   1     -10.395   6.553 132.634  0.00  0.00    -0.250 OA
BRANCH  26  28
ATOM     28  O   LIG A   1     -10.959   4.959 131.187  0.00  0.00    -0.480 OA
ATOM     29  H   LIG A   1     -11.175   5.627 130.502  0.00  0.00    +0.295 HD
ENDBRANCH  26  28
ENDBRANCH  25  26
ENDBRANCH  23  25
ENDBRANCH  22  23
ENDBRANCH  10  22
TORSDOF 6
ENDMDL
