MODEL 1
REMARK VINA RESULT:      -8.2      0.000      0.000
REMARK  Name = NuBBE_1465
REMARK  12 active torsions:
REMARK  status: ('A' for Active; 'I' for Inactive)
REMARK    1  A    between atoms: C_1  and  C_2
REMARK    2  A    between atoms: C_2  and  O_3
REMARK    3  A    between atoms: C_6  and  C_7
REMARK    4  A    between atoms: C_12  and  C_13
REMARK    5  A    between atoms: C_12  and  C_14
REMARK    6  A    between atoms: C_15  and  C_17
REMARK    7  A    between atoms: C_17  and  C_18
REMARK    8  A    between atoms: C_18  and  O_19
REMARK    9  A    between atoms: O_19  and  C_20
REMARK   10  A    between atoms: C_25  and  C_39
REMARK   11  A    between atoms: C_26  and  C_28
REMARK   12  A    between atoms: C_35  and  O_37
REMARK                            x       y       z     vdW  Elec       q    Type
REMARK                         _______ _______ _______ _____ _____    ______ ____
ROOT
ATOM      1  C   LIG A   1      -5.394  -0.315 125.725  0.00  0.00    +0.090 C 
ATOM      2  C   LIG A   1      -5.600   1.028 126.441  0.00  0.00    +0.220 C 
ATOM      3  C   LIG A   1      -6.827   1.891 125.896  0.00  0.00    +0.103 C 
ATOM      4  C   LIG A   1      -7.256   2.937 126.974  0.00  0.00    -0.044 C 
ATOM      5  C   LIG A   1      -7.197   2.574 128.476  0.00  0.00    +0.051 C 
ATOM      6  C   LIG A   1      -8.371   1.593 128.761  0.00  0.00    +0.024 C 
ATOM      7  C   LIG A   1      -5.918   1.765 128.668  0.00  0.00    +0.115 C 
ATOM      8  O   LIG A   1      -5.787   0.654 127.833  0.00  0.00    -0.464 OA
ATOM      9  C   LIG A   1      -4.939   2.035 129.540  0.00  0.00    +0.088 C 
ATOM     10  C   LIG A   1      -4.909   3.308 130.295  0.00  0.00    +0.165 C 
ATOM     11  C   LIG A   1      -5.838   4.432 129.828  0.00  0.00    +0.032 C 
ATOM     12  C   LIG A   1      -5.884   5.541 130.903  0.00  0.00    +0.019 C 
ATOM     13  C   LIG A   1      -5.157   5.075 128.598  0.00  0.00    +0.019 C 
ATOM     14  C   LIG A   1      -7.258   3.849 129.462  0.00  0.00    +0.030 C 
ATOM     15  O   LIG A   1      -4.058   3.458 131.171  0.00  0.00    -0.292 OA
ATOM     16  C   LIG A   1      -7.721   4.048 126.370  0.00  0.00    -0.025 C 
ATOM     17  C   LIG A   1      -7.652   3.963 124.872  0.00  0.00    +0.039 C 
ATOM     18  C   LIG A   1      -6.578   2.864 124.647  0.00  0.00    +0.031 C 
ATOM     19  C   LIG A   1      -6.717   2.121 123.290  0.00  0.00    +0.217 C 
ATOM     20  O   LIG A   1      -7.858   1.261 123.209  0.00  0.00    -0.454 OA
ATOM     21  C   LIG A   1      -8.008   0.355 124.195  0.00  0.00    +0.338 C 
ATOM     22  C   LIG A   1      -8.045   0.947 125.592  0.00  0.00    +0.240 C 
ATOM     23  O   LIG A   1      -8.315  -0.811 123.969  0.00  0.00    -0.248 OA
ATOM     24  C   LIG A   1      -5.208   3.605 124.637  0.00  0.00    +0.017 C 
ENDROOT
BRANCH  19  25
ATOM     25  C   LIG A   1      -6.700   3.013 122.072  0.00  0.00    +0.031 A 
ATOM     26  C   LIG A   1      -7.780   3.501 121.360  0.00  0.00    +0.202 A 
ATOM     27  O   LIG A   1      -7.373   4.255 120.306  0.00  0.00    -0.471 OA
ATOM     28  C   LIG A   1      -6.018   4.244 120.314  0.00  0.00    +0.195 A 
ATOM     29  C   LIG A   1      -5.552   3.493 121.367  0.00  0.00    +0.048 A 
ENDBRANCH  19  25
BRANCH   2  30
ATOM     30  O   LIG A   1      -4.335   1.668 126.308  0.00  0.00    -0.355 OA
ATOM     31  H   LIG A   1      -4.312   2.078 125.431  0.00  0.00    +0.214 HD
ENDBRANCH   2  30
BRANCH  22  32
ATOM     32  O   LIG A   1      -9.323   1.604 125.676  0.00  0.00    -0.380 OA
ATOM     33  H   LIG A   1      -9.161   2.563 125.592  0.00  0.00    +0.211 HD
ENDBRANCH  22  32
BRANCH  14  34
ATOM     34  C   LIG A   1      -8.216   3.718 130.682  0.00  0.00    +0.126 C 
BRANCH  34  35
ATOM     35  C   LIG A   1      -9.514   4.463 130.684  0.00  0.00    +0.307 C 
ATOM     36  O   LIG A   1     -10.520   4.094 130.088  0.00  0.00    -0.251 OA
BRANCH  35  37
ATOM     37  O   LIG A   1      -9.466   5.568 131.438  0.00  0.00    -0.468 OA
ATOM     38  C   LIG A   1      -9.436   6.822 130.739  0.00  0.00    +0.280 C 
ENDBRANCH  35  37
ENDBRANCH  34  35
ENDBRANCH  14  34
TORSDOF 6
ENDMDL
MODEL 2
REMARK VINA RESULT:      -8.2      2.066      7.371
REMARK  Name = NuBBE_1465
REMARK  12 active torsions:
REMARK  status: ('A' for Active; 'I' for Inactive)
REMARK    1  A    between atoms: C_1  and  C_2
REMARK    2  A    between atoms: C_2  and  O_3
REMARK    3  A    between atoms: C_6  and  C_7
REMARK    4  A    between atoms: C_12  and  C_13
REMARK    5  A    between atoms: C_12  and  C_14
REMARK    6  A    between atoms: C_15  and  C_17
REMARK    7  A    between atoms: C_17  and  C_18
REMARK    8  A    between atoms: C_18  and  O_19
REMARK    9  A    between atoms: O_19  and  C_20
REMARK   10  A    between atoms: C_25  and  C_39
REMARK   11  A    between atoms: C_26  and  C_28
REMARK   12  A    between atoms: C_35  and  O_37
REMARK                            x       y       z     vdW  Elec       q    Type
REMARK                         _______ _______ _______ _____ _____    ______ ____
ROOT
ATOM      1  C   LIG A   1      -3.793   2.353 128.544  0.00  0.00    +0.090 C 
ATOM      2  C   LIG A   1      -4.966   1.523 128.003  0.00  0.00    +0.220 C 
ATOM      3  C   LIG A   1      -6.392   2.228 128.127  0.00  0.00    +0.103 C 
ATOM      4  C   LIG A   1      -7.395   1.569 127.126  0.00  0.00    -0.044 C 
ATOM      5  C   LIG A   1      -6.908   1.090 125.739  0.00  0.00    +0.051 C 
ATOM      6  C   LIG A   1      -6.662   2.359 124.872  0.00  0.00    +0.024 C 
ATOM      7  C   LIG A   1      -5.535   0.464 125.964  0.00  0.00    +0.115 C 
ATOM      8  O   LIG A   1      -4.609   1.280 126.614  0.00  0.00    -0.464 OA
ATOM      9  C   LIG A   1      -5.165  -0.771 125.604  0.00  0.00    +0.088 C 
ATOM     10  C   LIG A   1      -6.151  -1.759 125.113  0.00  0.00    +0.165 C 
ATOM     11  C   LIG A   1      -7.635  -1.444 125.322  0.00  0.00    +0.032 C 
ATOM     12  C   LIG A   1      -8.491  -2.423 124.486  0.00  0.00    +0.019 C 
ATOM     13  C   LIG A   1      -7.946  -1.778 126.799  0.00  0.00    +0.019 C 
ATOM     14  C   LIG A   1      -7.921   0.075 125.002  0.00  0.00    +0.030 C 
ATOM     15  O   LIG A   1      -5.746  -2.838 124.682  0.00  0.00    -0.292 OA
ATOM     16  C   LIG A   1      -8.639   1.598 127.643  0.00  0.00    -0.025 C 
ATOM     17  C   LIG A   1      -8.679   2.208 129.015  0.00  0.00    +0.039 C 
ATOM     18  C   LIG A   1      -7.210   2.056 129.494  0.00  0.00    +0.031 C 
ATOM     19  C   LIG A   1      -6.788   3.104 130.562  0.00  0.00    +0.217 C 
ATOM     20  O   LIG A   1      -6.665   4.437 130.057  0.00  0.00    -0.454 OA
ATOM     21  C   LIG A   1      -5.879   4.608 128.976  0.00  0.00    +0.338 C 
ATOM     22  C   LIG A   1      -6.260   3.755 127.780  0.00  0.00    +0.240 C 
ATOM     23  O   LIG A   1      -5.075   5.530 128.894  0.00  0.00    -0.248 OA
ATOM     24  C   LIG A   1      -7.122   0.650 130.157  0.00  0.00    +0.017 C 
ENDROOT
BRANCH  19  25
ATOM     25  C   LIG A   1      -7.656   3.136 131.798  0.00  0.00    +0.031 A 
ATOM     26  C   LIG A   1      -7.486   2.429 132.974  0.00  0.00    +0.202 A 
ATOM     27  O   LIG A   1      -8.483   2.699 133.856  0.00  0.00    -0.471 OA
ATOM     28  C   LIG A   1      -9.324   3.571 133.247  0.00  0.00    +0.195 A 
ATOM     29  C   LIG A   1      -8.871   3.867 131.983  0.00  0.00    +0.048 A 
ENDBRANCH  19  25
BRANCH   2  30
ATOM     30  O   LIG A   1      -4.859   0.298 128.720  0.00  0.00    -0.355 OA
ATOM     31  H   LIG A   1      -4.583   0.517 129.622  0.00  0.00    +0.214 HD
ENDBRANCH   2  30
BRANCH  22  32
ATOM     32  O   LIG A   1      -7.477   4.344 127.285  0.00  0.00    -0.380 OA
ATOM     33  H   LIG A   1      -7.468   5.285 127.544  0.00  0.00    +0.211 HD
ENDBRANCH  22  32
BRANCH  14  34
ATOM     34  C   LIG A   1      -8.189   0.359 123.495  0.00  0.00    +0.126 C 
BRANCH  34  35
ATOM     35  C   LIG A   1      -9.524   0.885 123.070  0.00  0.00    +0.307 C 
ATOM     36  O   LIG A   1     -10.478   0.177 122.767  0.00  0.00    -0.251 OA
BRANCH  35  37
ATOM     37  O   LIG A   1      -9.574   2.223 123.085  0.00  0.00    -0.468 OA
ATOM     38  C   LIG A   1      -8.837   2.905 122.059  0.00  0.00    +0.280 C 
ENDBRANCH  35  37
ENDBRANCH  34  35
ENDBRANCH  14  34
TORSDOF 6
ENDMDL
MODEL 3
REMARK VINA RESULT:      -8.0      3.163      7.323
REMARK  Name = NuBBE_1465
REMARK  12 active torsions:
REMARK  status: ('A' for Active; 'I' for Inactive)
REMARK    1  A    between atoms: C_1  and  C_2
REMARK    2  A    between atoms: C_2  and  O_3
REMARK    3  A    between atoms: C_6  and  C_7
REMARK    4  A    between atoms: C_12  and  C_13
REMARK    5  A    between atoms: C_12  and  C_14
REMARK    6  A    between atoms: C_15  and  C_17
REMARK    7  A    between atoms: C_17  and  C_18
REMARK    8  A    between atoms: C_18  and  O_19
REMARK    9  A    between atoms: O_19  and  C_20
REMARK   10  A    between atoms: C_25  and  C_39
REMARK   11  A    between atoms: C_26  and  C_28
REMARK   12  A    between atoms: C_35  and  O_37
REMARK                            x       y       z     vdW  Elec       q    Type
REMARK                         _______ _______ _______ _____ _____    ______ ____
ROOT
ATOM      1  C   LIG A   1      -3.960   2.785 130.120  0.00  0.00    +0.090 C 
ATOM      2  C   LIG A   1      -5.090   1.763 129.935  0.00  0.00    +0.220 C 
ATOM      3  C   LIG A   1      -6.427   2.358 129.297  0.00  0.00    +0.103 C 
ATOM      4  C   LIG A   1      -7.284   1.200 128.692  0.00  0.00    -0.044 C 
ATOM      5  C   LIG A   1      -6.593  -0.004 128.011  0.00  0.00    +0.051 C 
ATOM      6  C   LIG A   1      -6.046   0.492 126.640  0.00  0.00    +0.024 C 
ATOM      7  C   LIG A   1      -5.368  -0.328 128.859  0.00  0.00    +0.115 C 
ATOM      8  O   LIG A   1      -4.501   0.743 129.083  0.00  0.00    -0.464 OA
ATOM      9  C   LIG A   1      -5.075  -1.518 129.396  0.00  0.00    +0.088 C 
ATOM     10  C   LIG A   1      -6.050  -2.631 129.384  0.00  0.00    +0.165 C 
ATOM     11  C   LIG A   1      -7.502  -2.297 129.031  0.00  0.00    +0.032 C 
ATOM     12  C   LIG A   1      -8.284  -3.606 128.776  0.00  0.00    +0.019 C 
ATOM     13  C   LIG A   1      -8.128  -1.682 130.304  0.00  0.00    +0.019 C 
ATOM     14  C   LIG A   1      -7.551  -1.288 127.819  0.00  0.00    +0.030 C 
ATOM     15  O   LIG A   1      -5.691  -3.739 129.780  0.00  0.00    -0.292 OA
ATOM     16  C   LIG A   1      -8.593   1.499 128.801  0.00  0.00    -0.025 C 
ATOM     17  C   LIG A   1      -8.830   2.811 129.492  0.00  0.00    +0.039 C 
ATOM     18  C   LIG A   1      -7.507   3.022 130.276  0.00  0.00    +0.031 C 
ATOM     19  C   LIG A   1      -7.187   4.513 130.574  0.00  0.00    +0.217 C 
ATOM     20  O   LIG A   1      -6.822   5.275 129.419  0.00  0.00    -0.454 OA
ATOM     21  C   LIG A   1      -5.828   4.782 128.656  0.00  0.00    +0.338 C 
ATOM     22  C   LIG A   1      -6.062   3.370 128.152  0.00  0.00    +0.240 C 
ATOM     23  O   LIG A   1      -4.926   5.491 128.222  0.00  0.00    -0.248 OA
ATOM     24  C   LIG A   1      -7.705   2.303 131.644  0.00  0.00    +0.017 C 
ENDROOT
BRANCH  19  25
ATOM     25  C   LIG A   1      -8.268   5.259 131.320  0.00  0.00    +0.031 A 
ATOM     26  C   LIG A   1      -8.282   5.628 132.653  0.00  0.00    +0.202 A 
ATOM     27  O   LIG A   1      -9.437   6.266 132.973  0.00  0.00    -0.471 OA
ATOM     28  C   LIG A   1     -10.195   6.298 131.849  0.00  0.00    +0.195 A 
ATOM     29  C   LIG A   1      -9.533   5.688 130.810  0.00  0.00    +0.048 A 
ENDBRANCH  19  25
BRANCH   2  30
ATOM     30  O   LIG A   1      -5.260   1.221 131.240  0.00  0.00    -0.355 OA
ATOM     31  H   LIG A   1      -4.703   1.740 131.840  0.00  0.00    +0.214 HD
ENDBRANCH   2  30
BRANCH  22  32
ATOM     32  O   LIG A   1      -7.087   3.506 127.150  0.00  0.00    -0.380 OA
ATOM     33  H   LIG A   1      -6.673   3.324 126.285  0.00  0.00    +0.211 HD
ENDBRANCH  22  32
BRANCH  14  34
ATOM     34  C   LIG A   1      -7.490  -1.977 126.424  0.00  0.00    +0.126 C 
BRANCH  34  35
ATOM     35  C   LIG A   1      -8.726  -2.052 125.584  0.00  0.00    +0.307 C 
ATOM     36  O   LIG A   1      -9.535  -1.138 125.467  0.00  0.00    -0.251 OA
BRANCH  35  37
ATOM     37  O   LIG A   1      -8.837  -3.224 124.945  0.00  0.00    -0.468 OA
ATOM     38  C   LIG A   1      -9.416  -3.187 123.632  0.00  0.00    +0.280 C 
ENDBRANCH  35  37
ENDBRANCH  34  35
ENDBRANCH  14  34
TORSDOF 6
ENDMDL
MODEL 4
REMARK VINA RESULT:      -8.0      2.447      6.766
REMARK  Name = NuBBE_1465
REMARK  12 active torsions:
REMARK  status: ('A' for Active; 'I' for Inactive)
REMARK    1  A    between atoms: C_1  and  C_2
REMARK    2  A    between atoms: C_2  and  O_3
REMARK    3  A    between atoms: C_6  and  C_7
REMARK    4  A    between atoms: C_12  and  C_13
REMARK    5  A    between atoms: C_12  and  C_14
REMARK    6  A    between atoms: C_15  and  C_17
REMARK    7  A    between atoms: C_17  and  C_18
REMARK    8  A    between atoms: C_18  and  O_19
REMARK    9  A    between atoms: O_19  and  C_20
REMARK   10  A    between atoms: C_25  and  C_39
REMARK   11  A    between atoms: C_26  and  C_28
REMARK   12  A    between atoms: C_35  and  O_37
REMARK                            x       y       z     vdW  Elec       q    Type
REMARK                         _______ _______ _______ _____ _____    ______ ____
ROOT
ATOM      1  C   LIG A   1      -7.813   4.203 124.940  0.00  0.00    +0.090 C 
ATOM      2  C   LIG A   1      -7.239   2.793 125.145  0.00  0.00    +0.220 C 
ATOM      3  C   LIG A   1      -6.928   2.417 126.665  0.00  0.00    +0.103 C 
ATOM      4  C   LIG A   1      -6.850   0.864 126.819  0.00  0.00    -0.044 C 
ATOM      5  C   LIG A   1      -7.787  -0.047 125.992  0.00  0.00    +0.051 C 
ATOM      6  C   LIG A   1      -9.213   0.080 126.604  0.00  0.00    +0.024 C 
ATOM      7  C   LIG A   1      -7.870   0.577 124.602  0.00  0.00    +0.115 C 
ATOM      8  O   LIG A   1      -8.251   1.919 124.576  0.00  0.00    -0.464 OA
ATOM      9  C   LIG A   1      -7.604  -0.041 123.446  0.00  0.00    +0.088 C 
ATOM     10  C   LIG A   1      -6.987  -1.386 123.414  0.00  0.00    +0.165 C 
ATOM     11  C   LIG A   1      -6.375  -1.917 124.714  0.00  0.00    +0.032 C 
ATOM     12  C   LIG A   1      -6.066  -3.423 124.559  0.00  0.00    +0.019 C 
ATOM     13  C   LIG A   1      -5.001  -1.224 124.861  0.00  0.00    +0.019 C 
ATOM     14  C   LIG A   1      -7.320  -1.590 125.935  0.00  0.00    +0.030 C 
ATOM     15  O   LIG A   1      -6.874  -1.962 122.332  0.00  0.00    -0.292 OA
ATOM     16  C   LIG A   1      -5.963   0.546 127.782  0.00  0.00    -0.025 C 
ATOM     17  C   LIG A   1      -5.301   1.755 128.378  0.00  0.00    +0.039 C 
ATOM     18  C   LIG A   1      -5.505   2.829 127.275  0.00  0.00    +0.031 C 
ATOM     19  C   LIG A   1      -5.500   4.287 127.813  0.00  0.00    +0.217 C 
ATOM     20  O   LIG A   1      -6.650   4.627 128.594  0.00  0.00    -0.454 OA
ATOM     21  C   LIG A   1      -7.854   4.395 128.036  0.00  0.00    +0.338 C 
ATOM     22  C   LIG A   1      -8.076   2.961 127.591  0.00  0.00    +0.240 C 
ATOM     23  O   LIG A   1      -8.767   5.212 128.091  0.00  0.00    -0.248 OA
ATOM     24  C   LIG A   1      -4.292   2.681 126.310  0.00  0.00    +0.017 C 
ENDROOT
BRANCH  19  25
ATOM     25  C   LIG A   1      -4.262   4.675 128.586  0.00  0.00    +0.031 A 
ATOM     26  C   LIG A   1      -3.947   4.368 129.896  0.00  0.00    +0.202 A 
ATOM     27  O   LIG A   1      -2.755   4.911 130.254  0.00  0.00    -0.471 OA
ATOM     28  C   LIG A   1      -2.295   5.597 129.179  0.00  0.00    +0.195 A 
ATOM     29  C   LIG A   1      -3.181   5.494 128.133  0.00  0.00    +0.048 A 
ENDBRANCH  19  25
BRANCH   2  30
ATOM     30  O   LIG A   1      -6.096   2.777 124.298  0.00  0.00    -0.355 OA
ATOM     31  H   LIG A   1      -5.754   1.871 124.295  0.00  0.00    +0.214 HD
ENDBRANCH   2  30
BRANCH  22  32
ATOM     32  O   LIG A   1      -8.233   2.220 128.814  0.00  0.00    -0.380 OA
ATOM     33  H   LIG A   1      -9.116   1.803 128.789  0.00  0.00    +0.211 HD
ENDBRANCH  22  32
BRANCH  14  34
ATOM     34  C   LIG A   1      -8.440  -2.646 126.163  0.00  0.00    +0.126 C 
BRANCH  34  35
ATOM     35  C   LIG A   1      -8.537  -3.345 127.483  0.00  0.00    +0.307 C 
ATOM     36  O   LIG A   1      -9.405  -4.163 127.767  0.00  0.00    -0.251 OA
BRANCH  35  37
ATOM     37  O   LIG A   1      -7.547  -3.000 128.317  0.00  0.00    -0.468 OA
ATOM     38  C   LIG A   1      -7.934  -2.382 129.553  0.00  0.00    +0.280 C 
ENDBRANCH  35  37
ENDBRANCH  34  35
ENDBRANCH  14  34
TORSDOF 6
ENDMDL
MODEL 5
REMARK VINA RESULT:      -7.9      4.598      7.485
REMARK  Name = NuBBE_1465
REMARK  12 active torsions:
REMARK  status: ('A' for Active; 'I' for Inactive)
REMARK    1  A    between atoms: C_1  and  C_2
REMARK    2  A    between atoms: C_2  and  O_3
REMARK    3  A    between atoms: C_6  and  C_7
REMARK    4  A    between atoms: C_12  and  C_13
REMARK    5  A    between atoms: C_12  and  C_14
REMARK    6  A    between atoms: C_15  and  C_17
REMARK    7  A    between atoms: C_17  and  C_18
REMARK    8  A    between atoms: C_18  and  O_19
REMARK    9  A    between atoms: O_19  and  C_20
REMARK   10  A    between atoms: C_25  and  C_39
REMARK   11  A    between atoms: C_26  and  C_28
REMARK   12  A    between atoms: C_35  and  O_37
REMARK                            x       y       z     vdW  Elec       q    Type
REMARK                         _______ _______ _______ _____ _____    ______ ____
ROOT
ATOM      1  C   LIG A   1      -7.696   1.838 131.185  0.00  0.00    +0.090 C 
ATOM      2  C   LIG A   1      -6.871   3.016 130.646  0.00  0.00    +0.220 C 
ATOM      3  C   LIG A   1      -7.191   4.421 131.332  0.00  0.00    +0.103 C 
ATOM      4  C   LIG A   1      -5.999   5.404 131.103  0.00  0.00    -0.044 C 
ATOM      5  C   LIG A   1      -4.545   4.877 131.106  0.00  0.00    +0.051 C 
ATOM      6  C   LIG A   1      -4.175   4.553 132.583  0.00  0.00    +0.024 C 
ATOM      7  C   LIG A   1      -4.577   3.536 130.378  0.00  0.00    +0.115 C 
ATOM      8  O   LIG A   1      -5.494   2.611 130.878  0.00  0.00    -0.464 OA
ATOM      9  C   LIG A   1      -3.825   3.195 129.326  0.00  0.00    +0.088 C 
ATOM     10  C   LIG A   1      -2.997   4.194 128.613  0.00  0.00    +0.165 C 
ATOM     11  C   LIG A   1      -3.262   5.673 128.905  0.00  0.00    +0.032 C 
ATOM     12  C   LIG A   1      -2.118   6.527 128.313  0.00  0.00    +0.019 C 
ATOM     13  C   LIG A   1      -4.524   6.055 128.100  0.00  0.00    +0.019 C 
ATOM     14  C   LIG A   1      -3.476   5.893 130.453  0.00  0.00    +0.030 C 
ATOM     15  O   LIG A   1      -2.232   3.808 127.729  0.00  0.00    -0.292 OA
ATOM     16  C   LIG A   1      -6.461   6.666 131.010  0.00  0.00    -0.025 C 
ATOM     17  C   LIG A   1      -7.957   6.742 131.114  0.00  0.00    +0.039 C 
ATOM     18  C   LIG A   1      -8.394   5.300 130.740  0.00  0.00    +0.031 C 
ATOM     19  C   LIG A   1      -9.768   4.887 131.337  0.00  0.00    +0.217 C 
ATOM     20  O   LIG A   1      -9.756   4.697 132.755  0.00  0.00    -0.454 OA
ATOM     21  C   LIG A   1      -8.822   3.862 133.249  0.00  0.00    +0.338 C 
ATOM     22  C   LIG A   1      -7.395   4.223 132.877  0.00  0.00    +0.240 C 
ATOM     23  O   LIG A   1      -9.083   3.024 134.106  0.00  0.00    -0.248 OA
ATOM     24  C   LIG A   1      -8.534   5.287 129.189  0.00  0.00    +0.017 C 
ENDROOT
BRANCH  19  25
ATOM     25  C   LIG A   1     -10.915   5.803 130.983  0.00  0.00    +0.031 A 
ATOM     26  C   LIG A   1     -11.618   6.647 131.823  0.00  0.00    +0.202 A 
ATOM     27  O   LIG A   1     -12.602   7.300 131.150  0.00  0.00    -0.471 OA
ATOM     28  C   LIG A   1     -12.557   6.865 129.867  0.00  0.00    +0.195 A 
ATOM     29  C   LIG A   1     -11.550   5.943 129.710  0.00  0.00    +0.048 A 
ENDBRANCH  19  25
BRANCH   2  30
ATOM     30  O   LIG A   1      -7.125   2.981 129.246  0.00  0.00    -0.355 OA
ATOM     31  H   LIG A   1      -6.317   2.663 128.816  0.00  0.00    +0.214 HD
ENDBRANCH   2  30
BRANCH  22  32
ATOM     32  O   LIG A   1      -7.101   5.397 133.655  0.00  0.00    -0.380 OA
ATOM     33  H   LIG A   1      -7.818   5.496 134.311  0.00  0.00    +0.211 HD
ENDBRANCH  22  32
BRANCH  14  34
ATOM     34  C   LIG A   1      -2.153   6.089 131.250  0.00  0.00    +0.126 C 
BRANCH  34  35
ATOM     35  C   LIG A   1      -1.934   7.356 132.016  0.00  0.00    +0.307 C 
ATOM     36  O   LIG A   1      -2.783   8.229 132.159  0.00  0.00    -0.251 OA
BRANCH  35  37
ATOM     37  O   LIG A   1      -0.711   7.420 132.556  0.00  0.00    -0.468 OA
ATOM     38  C   LIG A   1      -0.385   8.623 133.268  0.00  0.00    +0.280 C 
ENDBRANCH  35  37
ENDBRANCH  34  35
ENDBRANCH  14  34
TORSDOF 6
ENDMDL
MODEL 6
REMARK VINA RESULT:      -7.9      3.252      4.278
REMARK  Name = NuBBE_1465
REMARK  12 active torsions:
REMARK  status: ('A' for Active; 'I' for Inactive)
REMARK    1  A    between atoms: C_1  and  C_2
REMARK    2  A    between atoms: C_2  and  O_3
REMARK    3  A    between atoms: C_6  and  C_7
REMARK    4  A    between atoms: C_12  and  C_13
REMARK    5  A    between atoms: C_12  and  C_14
REMARK    6  A    between atoms: C_15  and  C_17
REMARK    7  A    between atoms: C_17  and  C_18
REMARK    8  A    between atoms: C_18  and  O_19
REMARK    9  A    between atoms: O_19  and  C_20
REMARK   10  A    between atoms: C_25  and  C_39
REMARK   11  A    between atoms: C_26  and  C_28
REMARK   12  A    between atoms: C_35  and  O_37
REMARK                            x       y       z     vdW  Elec       q    Type
REMARK                         _______ _______ _______ _____ _____    ______ ____
ROOT
ATOM      1  C   LIG A   1      -5.519  -2.458 124.615  0.00  0.00    +0.090 C 
ATOM      2  C   LIG A   1      -5.816  -1.596 125.851  0.00  0.00    +0.220 C 
ATOM      3  C   LIG A   1      -7.227  -0.850 125.818  0.00  0.00    +0.103 C 
ATOM      4  C   LIG A   1      -7.643  -0.445 127.269  0.00  0.00    -0.044 C 
ATOM      5  C   LIG A   1      -7.306  -1.370 128.461  0.00  0.00    +0.051 C 
ATOM      6  C   LIG A   1      -8.263  -2.595 128.380  0.00  0.00    +0.024 C 
ATOM      7  C   LIG A   1      -5.905  -1.913 128.195  0.00  0.00    +0.115 C 
ATOM      8  O   LIG A   1      -5.735  -2.535 126.958  0.00  0.00    -0.464 OA
ATOM      9  C   LIG A   1      -4.860  -1.833 129.027  0.00  0.00    +0.088 C 
ATOM     10  C   LIG A   1      -4.910  -1.002 130.251  0.00  0.00    +0.165 C 
ATOM     11  C   LIG A   1      -6.057   0.004 130.379  0.00  0.00    +0.032 C 
ATOM     12  C   LIG A   1      -6.109   0.543 131.827  0.00  0.00    +0.019 C 
ATOM     13  C   LIG A   1      -5.673   1.215 129.499  0.00  0.00    +0.019 C 
ATOM     14  C   LIG A   1      -7.412  -0.650 129.901  0.00  0.00    +0.030 C 
ATOM     15  O   LIG A   1      -3.970  -1.056 131.043  0.00  0.00    -0.292 OA
ATOM     16  C   LIG A   1      -8.355   0.698 127.235  0.00  0.00    -0.025 C 
ATOM     17  C   LIG A   1      -8.498   1.248 125.844  0.00  0.00    +0.039 C 
ATOM     18  C   LIG A   1      -7.316   0.577 125.094  0.00  0.00    +0.031 C 
ATOM     19  C   LIG A   1      -7.543   0.441 123.563  0.00  0.00    +0.217 C 
ATOM     20  O   LIG A   1      -8.540  -0.520 123.202  0.00  0.00    -0.454 OA
ATOM     21  C   LIG A   1      -8.403  -1.759 123.712  0.00  0.00    +0.338 C 
ATOM     22  C   LIG A   1      -8.320  -1.811 125.227  0.00  0.00    +0.240 C 
ATOM     23  O   LIG A   1      -8.560  -2.766 123.029  0.00  0.00    -0.248 OA
ATOM     24  C   LIG A   1      -6.091   1.515 125.305  0.00  0.00    +0.017 C 
ENDROOT
BRANCH  19  25
ATOM     25  C   LIG A   1      -7.843   1.737 122.847  0.00  0.00    +0.031 A 
ATOM     26  C   LIG A   1      -9.079   2.299 122.589  0.00  0.00    +0.202 A 
ATOM     27  O   LIG A   1      -8.955   3.462 121.900  0.00  0.00    -0.471 OA
ATOM     28  C   LIG A   1      -7.630   3.656 121.687  0.00  0.00    +0.195 A 
ATOM     29  C   LIG A   1      -6.904   2.626 122.238  0.00  0.00    +0.048 A 
ENDBRANCH  19  25
BRANCH   2  30
ATOM     30  O   LIG A   1      -4.696  -0.719 125.917  0.00  0.00    -0.355 OA
ATOM     31  H   LIG A   1      -3.995  -1.185 126.396  0.00  0.00    +0.214 HD
ENDBRANCH   2  30
BRANCH  22  32
ATOM     32  O   LIG A   1      -9.655  -1.515 125.675  0.00  0.00    -0.380 OA
ATOM     33  H   LIG A   1      -9.658  -1.593 126.648  0.00  0.00    +0.211 HD
ENDBRANCH  22  32
BRANCH  14  34
ATOM     34  C   LIG A   1      -8.146  -1.457 131.011  0.00  0.00    +0.126 C 
BRANCH  34  35
ATOM     35  C   LIG A   1      -7.405  -2.516 131.765  0.00  0.00    +0.307 C 
ATOM     36  O   LIG A   1      -6.881  -3.494 131.242  0.00  0.00    -0.251 OA
BRANCH  35  37
ATOM     37  O   LIG A   1      -7.351  -2.263 133.079  0.00  0.00    -0.468 OA
ATOM     38  C   LIG A   1      -7.875  -3.276 133.950  0.00  0.00    +0.280 C 
ENDBRANCH  35  37
ENDBRANCH  34  35
ENDBRANCH  14  34
TORSDOF 6
ENDMDL
MODEL 7
REMARK VINA RESULT:      -7.8      2.420      7.061
REMARK  Name = NuBBE_1465
REMARK  12 active torsions:
REMARK  status: ('A' for Active; 'I' for Inactive)
REMARK    1  A    between atoms: C_1  and  C_2
REMARK    2  A    between atoms: C_2  and  O_3
REMARK    3  A    between atoms: C_6  and  C_7
REMARK    4  A    between atoms: C_12  and  C_13
REMARK    5  A    between atoms: C_12  and  C_14
REMARK    6  A    between atoms: C_15  and  C_17
REMARK    7  A    between atoms: C_17  and  C_18
REMARK    8  A    between atoms: C_18  and  O_19
REMARK    9  A    between atoms: O_19  and  C_20
REMARK   10  A    between atoms: C_25  and  C_39
REMARK   11  A    between atoms: C_26  and  C_28
REMARK   12  A    between atoms: C_35  and  O_37
REMARK                            x       y       z     vdW  Elec       q    Type
REMARK                         _______ _______ _______ _____ _____    ______ ____
ROOT
ATOM      1  C   LIG A   1      -8.697   3.631 129.213  0.00  0.00    +0.090 C 
ATOM      2  C   LIG A   1      -8.079   2.887 128.020  0.00  0.00    +0.220 C 
ATOM      3  C   LIG A   1      -6.557   2.454 128.224  0.00  0.00    +0.103 C 
ATOM      4  C   LIG A   1      -6.197   1.305 127.228  0.00  0.00    -0.044 C 
ATOM      5  C   LIG A   1      -7.247   0.227 126.874  0.00  0.00    +0.051 C 
ATOM      6  C   LIG A   1      -7.390  -0.705 128.112  0.00  0.00    +0.024 C 
ATOM      7  C   LIG A   1      -8.580   0.958 126.743  0.00  0.00    +0.115 C 
ATOM      8  O   LIG A   1      -8.944   1.731 127.846  0.00  0.00    -0.464 OA
ATOM      9  C   LIG A   1      -9.395   0.923 125.682  0.00  0.00    +0.088 C 
ATOM     10  C   LIG A   1      -8.973   0.307 124.405  0.00  0.00    +0.165 C 
ATOM     11  C   LIG A   1      -7.485  -0.004 124.225  0.00  0.00    +0.032 C 
ATOM     12  C   LIG A   1      -7.294  -0.904 122.983  0.00  0.00    +0.019 C 
ATOM     13  C   LIG A   1      -6.801   1.337 123.874  0.00  0.00    +0.019 C 
ATOM     14  C   LIG A   1      -6.893  -0.625 125.550  0.00  0.00    +0.030 C 
ATOM     15  O   LIG A   1      -9.799   0.192 123.500  0.00  0.00    -0.292 OA
ATOM     16  C   LIG A   1      -4.902   1.401 126.871  0.00  0.00    -0.025 C 
ATOM     17  C   LIG A   1      -4.217   2.583 127.496  0.00  0.00    +0.039 C 
ATOM     18  C   LIG A   1      -5.409   3.510 127.856  0.00  0.00    +0.031 C 
ATOM     19  C   LIG A   1      -5.113   4.483 129.031  0.00  0.00    +0.217 C 
ATOM     20  O   LIG A   1      -5.004   3.844 130.307  0.00  0.00    -0.454 OA
ATOM     21  C   LIG A   1      -6.025   3.047 130.676  0.00  0.00    +0.338 C 
ATOM     22  C   LIG A   1      -6.345   1.936 129.692  0.00  0.00    +0.240 C 
ATOM     23  O   LIG A   1      -6.500   3.078 131.807  0.00  0.00    -0.248 OA
ATOM     24  C   LIG A   1      -5.674   4.374 126.588  0.00  0.00    +0.017 C 
ENDROOT
BRANCH  19  25
ATOM     25  C   LIG A   1      -3.906   5.370 128.832  0.00  0.00    +0.031 A 
ATOM     26  C   LIG A   1      -2.691   5.311 129.490  0.00  0.00    +0.202 A 
ATOM     27  O   LIG A   1      -1.854   6.290 129.060  0.00  0.00    -0.471 OA
ATOM     28  C   LIG A   1      -2.530   7.008 128.130  0.00  0.00    +0.195 A 
ATOM     29  C   LIG A   1      -3.794   6.495 127.957  0.00  0.00    +0.048 A 
ENDBRANCH  19  25
BRANCH   2  30
ATOM     30  O   LIG A   1      -8.289   3.779 126.932  0.00  0.00    -0.355 OA
ATOM     31  H   LIG A   1      -9.059   3.455 126.441  0.00  0.00    +0.214 HD
ENDBRANCH   2  30
BRANCH  22  32
ATOM     32  O   LIG A   1      -5.255   1.006 129.827  0.00  0.00    -0.380 OA
ATOM     33  H   LIG A   1      -5.181   0.522 128.982  0.00  0.00    +0.211 HD
ENDBRANCH  22  32
BRANCH  14  34
ATOM     34  C   LIG A   1      -7.086  -2.165 125.663  0.00  0.00    +0.126 C 
BRANCH  34  35
ATOM     35  C   LIG A   1      -8.440  -2.758 125.433  0.00  0.00    +0.307 C 
ATOM     36  O   LIG A   1      -9.422  -2.522 126.129  0.00  0.00    -0.251 OA
BRANCH  35  37
ATOM     37  O   LIG A   1      -8.471  -3.558 124.359  0.00  0.00    -0.468 OA
ATOM     38  C   LIG A   1      -9.622  -3.447 123.508  0.00  0.00    +0.280 C 
ENDBRANCH  35  37
ENDBRANCH  34  35
ENDBRANCH  14  34
TORSDOF 6
ENDMDL
MODEL 8
REMARK VINA RESULT:      -7.6      3.487      7.692
REMARK  Name = NuBBE_1465
REMARK  12 active torsions:
REMARK  status: ('A' for Active; 'I' for Inactive)
REMARK    1  A    between atoms: C_1  and  C_2
REMARK    2  A    between atoms: C_2  and  O_3
REMARK    3  A    between atoms: C_6  and  C_7
REMARK    4  A    between atoms: C_12  and  C_13
REMARK    5  A    between atoms: C_12  and  C_14
REMARK    6  A    between atoms: C_15  and  C_17
REMARK    7  A    between atoms: C_17  and  C_18
REMARK    8  A    between atoms: C_18  and  O_19
REMARK    9  A    between atoms: O_19  and  C_20
REMARK   10  A    between atoms: C_25  and  C_39
REMARK   11  A    between atoms: C_26  and  C_28
REMARK   12  A    between atoms: C_35  and  O_37
REMARK                            x       y       z     vdW  Elec       q    Type
REMARK                         _______ _______ _______ _____ _____    ______ ____
ROOT
ATOM      1  C   LIG A   1      -9.244   5.529 129.575  0.00  0.00    +0.090 C 
ATOM      2  C   LIG A   1      -8.340   4.302 129.385  0.00  0.00    +0.220 C 
ATOM      3  C   LIG A   1      -7.390   3.978 130.626  0.00  0.00    +0.103 C 
ATOM      4  C   LIG A   1      -6.919   2.490 130.555  0.00  0.00    -0.044 C 
ATOM      5  C   LIG A   1      -7.877   1.395 130.032  0.00  0.00    +0.051 C 
ATOM      6  C   LIG A   1      -8.945   1.149 131.138  0.00  0.00    +0.024 C 
ATOM      7  C   LIG A   1      -8.627   2.013 128.855  0.00  0.00    +0.115 C 
ATOM      8  O   LIG A   1      -9.274   3.218 129.130  0.00  0.00    -0.464 OA
ATOM      9  C   LIG A   1      -8.700   1.509 127.618  0.00  0.00    +0.088 C 
ATOM     10  C   LIG A   1      -7.864   0.360 127.202  0.00  0.00    +0.165 C 
ATOM     11  C   LIG A   1      -6.697  -0.033 128.111  0.00  0.00    +0.032 C 
ATOM     12  C   LIG A   1      -6.148  -1.411 127.675  0.00  0.00    +0.019 C 
ATOM     13  C   LIG A   1      -5.562   0.976 127.820  0.00  0.00    +0.019 C 
ATOM     14  C   LIG A   1      -7.141   0.019 129.624  0.00  0.00    +0.030 C 
ATOM     15  O   LIG A   1      -8.055  -0.142 126.095  0.00  0.00    -0.292 OA
ATOM     16  C   LIG A   1      -5.682   2.379 131.077  0.00  0.00    -0.025 C 
ATOM     17  C   LIG A   1      -5.124   3.700 131.525  0.00  0.00    +0.039 C 
ATOM     18  C   LIG A   1      -5.970   4.716 130.711  0.00  0.00    +0.031 C 
ATOM     19  C   LIG A   1      -6.079   6.116 131.377  0.00  0.00    +0.217 C 
ATOM     20  O   LIG A   1      -6.880   6.140 132.562  0.00  0.00    -0.454 OA
ATOM     21  C   LIG A   1      -8.123   5.629 132.465  0.00  0.00    +0.338 C 
ATOM     22  C   LIG A   1      -8.179   4.196 131.967  0.00  0.00    +0.240 C 
ATOM     23  O   LIG A   1      -9.099   6.192 132.951  0.00  0.00    -0.248 OA
ATOM     24  C   LIG A   1      -5.226   4.898 129.355  0.00  0.00    +0.017 C 
ENDROOT
BRANCH  19  25
ATOM     25  C   LIG A   1      -4.756   6.781 131.677  0.00  0.00    +0.031 A 
ATOM     26  C   LIG A   1      -4.012   6.706 132.840  0.00  0.00    +0.202 A 
ATOM     27  O   LIG A   1      -2.886   7.459 132.750  0.00  0.00    -0.471 OA
ATOM     28  C   LIG A   1      -2.901   8.049 131.529  0.00  0.00    +0.195 A 
ATOM     29  C   LIG A   1      -4.027   7.676 130.834  0.00  0.00    +0.048 A 
ENDBRANCH  19  25
BRANCH   2  30
ATOM     30  O   LIG A   1      -7.641   4.592 128.179  0.00  0.00    -0.355 OA
ATOM     31  H   LIG A   1      -8.301   4.638 127.471  0.00  0.00    +0.214 HD
ENDBRANCH   2  30
BRANCH  22  32
ATOM     32  O   LIG A   1      -7.682   3.410 133.066  0.00  0.00    -0.380 OA
ATOM     33  H   LIG A   1      -6.827   3.795 133.335  0.00  0.00    +0.211 HD
ENDBRANCH  22  32
BRANCH  14  34
ATOM     34  C   LIG A   1      -7.823  -1.289 130.124  0.00  0.00    +0.126 C 
BRANCH  34  35
ATOM     35  C   LIG A   1      -7.223  -2.041 131.270  0.00  0.00    +0.307 C 
ATOM     36  O   LIG A   1      -6.734  -1.509 132.261  0.00  0.00    -0.251 OA
BRANCH  35  37
ATOM     37  O   LIG A   1      -7.307  -3.368 131.109  0.00  0.00    -0.468 OA
ATOM     38  C   LIG A   1      -6.279  -3.985 130.321  0.00  0.00    +0.280 C 
ENDBRANCH  35  37
ENDBRANCH  34  35
ENDBRANCH  14  34
TORSDOF 6
ENDMDL
MODEL 9
REMARK VINA RESULT:      -7.5      4.435      7.168
REMARK  Name = NuBBE_1465
REMARK  12 active torsions:
REMARK  status: ('A' for Active; 'I' for Inactive)
REMARK    1  A    between atoms: C_1  and  C_2
REMARK    2  A    between atoms: C_2  and  O_3
REMARK    3  A    between atoms: C_6  and  C_7
REMARK    4  A    between atoms: C_12  and  C_13
REMARK    5  A    between atoms: C_12  and  C_14
REMARK    6  A    between atoms: C_15  and  C_17
REMARK    7  A    between atoms: C_17  and  C_18
REMARK    8  A    between atoms: C_18  and  O_19
REMARK    9  A    between atoms: O_19  and  C_20
REMARK   10  A    between atoms: C_25  and  C_39
REMARK   11  A    between atoms: C_26  and  C_28
REMARK   12  A    between atoms: C_35  and  O_37
REMARK                            x       y       z     vdW  Elec       q    Type
REMARK                         _______ _______ _______ _____ _____    ______ ____
ROOT
ATOM      1  C   LIG A   1      -7.761   2.643 128.981  0.00  0.00    +0.090 C 
ATOM      2  C   LIG A   1      -7.009   3.811 129.637  0.00  0.00    +0.220 C 
ATOM      3  C   LIG A   1      -7.674   4.358 130.981  0.00  0.00    +0.103 C 
ATOM      4  C   LIG A   1      -6.612   5.148 131.811  0.00  0.00    -0.044 C 
ATOM      5  C   LIG A   1      -5.139   4.680 131.834  0.00  0.00    +0.051 C 
ATOM      6  C   LIG A   1      -5.075   3.398 132.714  0.00  0.00    +0.024 C 
ATOM      7  C   LIG A   1      -4.813   4.230 130.413  0.00  0.00    +0.115 C 
ATOM      8  O   LIG A   1      -5.679   3.276 129.879  0.00  0.00    -0.464 OA
ATOM      9  C   LIG A   1      -3.798   4.672 129.661  0.00  0.00    +0.088 C 
ATOM     10  C   LIG A   1      -2.979   5.833 130.077  0.00  0.00    +0.165 C 
ATOM     11  C   LIG A   1      -3.510   6.703 131.219  0.00  0.00    +0.032 C 
ATOM     12  C   LIG A   1      -2.393   7.657 131.701  0.00  0.00    +0.019 C 
ATOM     13  C   LIG A   1      -4.595   7.614 130.601  0.00  0.00    +0.019 C 
ATOM     14  C   LIG A   1      -4.103   5.796 132.366  0.00  0.00    +0.030 C 
ATOM     15  O   LIG A   1      -1.984   6.125 129.414  0.00  0.00    -0.292 OA
ATOM     16  C   LIG A   1      -7.214   6.144 132.490  0.00  0.00    -0.025 C 
ATOM     17  C   LIG A   1      -8.690   6.217 132.220  0.00  0.00    +0.039 C 
ATOM     18  C   LIG A   1      -8.820   5.472 130.863  0.00  0.00    +0.031 C 
ATOM     19  C   LIG A   1     -10.222   4.845 130.626  0.00  0.00    +0.217 C 
ATOM     20  O   LIG A   1     -10.509   3.721 131.464  0.00  0.00    -0.454 OA
ATOM     21  C   LIG A   1      -9.605   2.723 131.474  0.00  0.00    +0.338 C 
ATOM     22  C   LIG A   1      -8.197   3.153 131.842  0.00  0.00    +0.240 C 
ATOM     23  O   LIG A   1      -9.935   1.543 131.415  0.00  0.00    -0.248 OA
ATOM     24  C   LIG A   1      -8.598   6.551 129.763  0.00  0.00    +0.017 C 
ENDROOT
BRANCH  19  25
ATOM     25  C   LIG A   1     -11.376   5.816 130.711  0.00  0.00    +0.031 A 
ATOM     26  C   LIG A   1     -11.910   6.404 131.843  0.00  0.00    +0.202 A 
ATOM     27  O   LIG A   1     -12.960   7.206 131.529  0.00  0.00    -0.471 OA
ATOM     28  C   LIG A   1     -13.129   7.128 130.186  0.00  0.00    +0.195 A 
ATOM     29  C   LIG A   1     -12.192   6.285 129.636  0.00  0.00    +0.048 A 
ENDBRANCH  19  25
BRANCH   2  30
ATOM     30  O   LIG A   1      -6.927   4.776 128.594  0.00  0.00    -0.355 OA
ATOM     31  H   LIG A   1      -5.990   4.880 128.374  0.00  0.00    +0.214 HD
ENDBRANCH   2  30
BRANCH  22  32
ATOM     32  O   LIG A   1      -8.258   3.433 133.253  0.00  0.00    -0.380 OA
ATOM     33  H   LIG A   1      -8.415   4.392 133.351  0.00  0.00    +0.211 HD
ENDBRANCH  22  32
BRANCH  14  34
ATOM     34  C   LIG A   1      -3.039   5.302 133.390  0.00  0.00    +0.126 C 
BRANCH  34  35
ATOM     35  C   LIG A   1      -3.072   5.816 134.795  0.00  0.00    +0.307 C 
ATOM     36  O   LIG A   1      -2.255   6.604 135.259  0.00  0.00    -0.251 OA
BRANCH  35  37
ATOM     37  O   LIG A   1      -4.116   5.342 135.487  0.00  0.00    -0.468 OA
ATOM     38  C   LIG A   1      -5.137   6.289 135.839  0.00  0.00    +0.280 C 
ENDBRANCH  35  37
ENDBRANCH  34  35
ENDBRANCH  14  34
TORSDOF 6
ENDMDL
