MODEL 1
REMARK VINA RESULT:      -8.2      0.000      0.000
REMARK  Name = NuBBE_77
REMARK  12 active torsions:
REMARK  status: ('A' for Active; 'I' for Inactive)
REMARK    1  A    between atoms: C_1  and  C_2
REMARK    2  A    between atoms: C_11  and  C_12
REMARK    3  A    between atoms: C_17  and  O_21
REMARK    4  A    between atoms: C_24  and  C_26
REMARK    5  A    between atoms: C_26  and  C_28
REMARK    6  A    between atoms: C_26  and  C_37
REMARK    7  A    between atoms: C_29  and  C_30
REMARK    8  A    between atoms: C_30  and  C_32
REMARK    9  A    between atoms: C_30  and  C_35
REMARK   10  A    between atoms: C_32  and  C_33
REMARK   11  A    between atoms: C_32  and  C_34
REMARK   12  A    between atoms: C_35  and  C_36
REMARK                            x       y       z     vdW  Elec       q    Type
REMARK                         _______ _______ _______ _____ _____    ______ ____
ROOT
ATOM      1  C   LIG A   1      -8.020   1.689 127.612  0.00  0.00    +0.012 C 
ATOM      2  C   LIG A   1      -6.487   1.419 127.731  0.00  0.00    -0.026 C 
ATOM      3  C   LIG A   1      -5.700   1.782 126.453  0.00  0.00    -0.001 C 
ATOM      4  C   LIG A   1      -5.922   0.885 125.226  0.00  0.00    +0.000 C 
ATOM      5  C   LIG A   1      -5.768  -0.624 125.603  0.00  0.00    +0.003 C 
ATOM      6  C   LIG A   1      -5.445  -0.843 127.108  0.00  0.00    +0.005 C 
ATOM      7  C   LIG A   1      -6.363  -0.079 128.065  0.00  0.00    +0.007 C 
ATOM      8  C   LIG A   1      -6.776  -1.664 124.967  0.00  0.00    -0.008 C 
ATOM      9  C   LIG A   1      -5.921  -2.925 124.633  0.00  0.00    +0.016 C 
ATOM     10  C   LIG A   1      -7.466  -1.140 123.715  0.00  0.00    -0.065 C 
ATOM     11  C   LIG A   1      -7.567   0.174 123.424  0.00  0.00    -0.027 C 
ATOM     12  C   LIG A   1      -7.087   1.264 124.320  0.00  0.00    +0.031 C 
ATOM     13  C   LIG A   1      -8.319  -2.133 122.962  0.00  0.00    +0.062 C 
ATOM     14  C   LIG A   1      -9.446  -2.608 123.892  0.00  0.00    +0.119 C 
ATOM     15  C   LIG A   1      -8.934  -3.075 125.260  0.00  0.00    +0.032 C 
ATOM     16  C   LIG A   1      -7.940  -2.091 125.905  0.00  0.00    +0.013 C 
ATOM     17  C   LIG A   1      -5.853   3.296 126.343  0.00  0.00    +0.004 C 
ATOM     18  C   LIG A   1      -5.924   3.773 127.810  0.00  0.00    +0.005 C 
ATOM     19  C   LIG A   1      -5.881   2.491 128.718  0.00  0.00    +0.002 C 
ENDROOT
BRANCH  14  20
ATOM     20  O   LIG A   1     -10.180  -3.664 123.276  0.00  0.00    -0.392 OA
ATOM     21  H   LIG A   1     -10.521  -3.335 122.427  0.00  0.00    +0.210 HD
ENDBRANCH  14  20
BRANCH  19  22
ATOM     22  C   LIG A   1      -4.422   2.321 129.293  0.00  0.00    +0.012 C 
ATOM     23  C   LIG A   1      -4.317   1.807 130.732  0.00  0.00    +0.012 C 
BRANCH  22  24
ATOM     24  C   LIG A   1      -3.674   3.654 129.254  0.00  0.00    -0.027 C 
ATOM     25  C   LIG A   1      -3.525   4.464 130.321  0.00  0.00    -0.027 C 
BRANCH  25  26
ATOM     26  C   LIG A   1      -2.757   5.777 130.316  0.00  0.00    +0.014 C 
BRANCH  26  27
ATOM     27  C   LIG A   1      -3.623   6.936 130.909  0.00  0.00    -0.010 C 
ATOM     28  C   LIG A   1      -5.005   6.450 131.374  0.00  0.00    +0.008 C 
ATOM     29  C   LIG A   1      -2.964   7.697 132.069  0.00  0.00    +0.008 C 
ENDBRANCH  26  27
BRANCH  26  30
ATOM     30  C   LIG A   1      -2.199   6.109 128.914  0.00  0.00    +0.004 C 
ATOM     31  C   LIG A   1      -3.012   7.150 128.151  0.00  0.00    +0.004 C 
ENDBRANCH  26  30
ENDBRANCH  25  26
ENDBRANCH  22  24
ENDBRANCH  19  22
TORSDOF 6
ENDMDL
MODEL 2
REMARK VINA RESULT:      -8.1      4.318      8.508
REMARK  Name = NuBBE_77
REMARK  12 active torsions:
REMARK  status: ('A' for Active; 'I' for Inactive)
REMARK    1  A    between atoms: C_1  and  C_2
REMARK    2  A    between atoms: C_11  and  C_12
REMARK    3  A    between atoms: C_17  and  O_21
REMARK    4  A    between atoms: C_24  and  C_26
REMARK    5  A    between atoms: C_26  and  C_28
REMARK    6  A    between atoms: C_26  and  C_37
REMARK    7  A    between atoms: C_29  and  C_30
REMARK    8  A    between atoms: C_30  and  C_32
REMARK    9  A    between atoms: C_30  and  C_35
REMARK   10  A    between atoms: C_32  and  C_33
REMARK   11  A    between atoms: C_32  and  C_34
REMARK   12  A    between atoms: C_35  and  C_36
REMARK                            x       y       z     vdW  Elec       q    Type
REMARK                         _______ _______ _______ _____ _____    ______ ____
ROOT
ATOM      1  C   LIG A   1      -5.072   0.371 130.550  0.00  0.00    +0.012 C 
ATOM      2  C   LIG A   1      -5.469  -0.381 129.240  0.00  0.00    -0.026 C 
ATOM      3  C   LIG A   1      -6.920  -0.910 129.253  0.00  0.00    -0.001 C 
ATOM      4  C   LIG A   1      -7.220  -2.080 130.202  0.00  0.00    +0.000 C 
ATOM      5  C   LIG A   1      -6.177  -3.228 130.020  0.00  0.00    +0.003 C 
ATOM      6  C   LIG A   1      -5.098  -2.904 128.947  0.00  0.00    +0.005 C 
ATOM      7  C   LIG A   1      -4.451  -1.527 129.105  0.00  0.00    +0.007 C 
ATOM      8  C   LIG A   1      -5.645  -3.974 131.310  0.00  0.00    -0.008 C 
ATOM      9  C   LIG A   1      -5.543  -5.479 130.913  0.00  0.00    +0.016 C 
ATOM     10  C   LIG A   1      -6.557  -3.802 132.517  0.00  0.00    -0.065 C 
ATOM     11  C   LIG A   1      -7.452  -2.798 132.629  0.00  0.00    -0.027 C 
ATOM     12  C   LIG A   1      -7.605  -1.705 131.629  0.00  0.00    +0.031 C 
ATOM     13  C   LIG A   1      -6.201  -4.615 133.740  0.00  0.00    +0.062 C 
ATOM     14  C   LIG A   1      -4.801  -4.196 134.211  0.00  0.00    +0.119 C 
ATOM     15  C   LIG A   1      -3.763  -4.204 133.081  0.00  0.00    +0.032 C 
ATOM     16  C   LIG A   1      -4.251  -3.497 131.803  0.00  0.00    +0.013 C 
ATOM     17  C   LIG A   1      -7.774   0.354 129.288  0.00  0.00    +0.004 C 
ATOM     18  C   LIG A   1      -6.946   1.386 128.492  0.00  0.00    +0.005 C 
ATOM     19  C   LIG A   1      -5.598   0.689 128.087  0.00  0.00    +0.002 C 
ENDROOT
BRANCH  14  20
ATOM     20  O   LIG A   1      -4.359  -5.049 135.265  0.00  0.00    -0.392 OA
ATOM     21  H   LIG A   1      -3.447  -5.319 135.068  0.00  0.00    +0.210 HD
ENDBRANCH  14  20
BRANCH  19  22
ATOM     22  C   LIG A   1      -5.689   0.238 126.578  0.00  0.00    +0.012 C 
ATOM     23  C   LIG A   1      -6.041   1.332 125.565  0.00  0.00    +0.012 C 
BRANCH  22  24
ATOM     24  C   LIG A   1      -6.740  -0.860 126.412  0.00  0.00    -0.027 C 
ATOM     25  C   LIG A   1      -6.591  -1.926 125.601  0.00  0.00    -0.027 C 
BRANCH  25  26
ATOM     26  C   LIG A   1      -7.605  -3.049 125.445  0.00  0.00    +0.014 C 
BRANCH  26  27
ATOM     27  C   LIG A   1      -8.002  -3.242 123.944  0.00  0.00    -0.010 C 
ATOM     28  C   LIG A   1      -9.523  -3.340 123.754  0.00  0.00    +0.008 C 
ATOM     29  C   LIG A   1      -7.467  -2.157 122.998  0.00  0.00    +0.008 C 
ENDBRANCH  26  27
BRANCH  26  30
ATOM     30  C   LIG A   1      -8.831  -2.845 126.363  0.00  0.00    +0.004 C 
ATOM     31  C   LIG A   1      -8.905  -3.825 127.529  0.00  0.00    +0.004 C 
ENDBRANCH  26  30
ENDBRANCH  25  26
ENDBRANCH  22  24
ENDBRANCH  19  22
TORSDOF 6
ENDMDL
MODEL 3
REMARK VINA RESULT:      -7.9      4.171      6.933
REMARK  Name = NuBBE_77
REMARK  12 active torsions:
REMARK  status: ('A' for Active; 'I' for Inactive)
REMARK    1  A    between atoms: C_1  and  C_2
REMARK    2  A    between atoms: C_11  and  C_12
REMARK    3  A    between atoms: C_17  and  O_21
REMARK    4  A    between atoms: C_24  and  C_26
REMARK    5  A    between atoms: C_26  and  C_28
REMARK    6  A    between atoms: C_26  and  C_37
REMARK    7  A    between atoms: C_29  and  C_30
REMARK    8  A    between atoms: C_30  and  C_32
REMARK    9  A    between atoms: C_30  and  C_35
REMARK   10  A    between atoms: C_32  and  C_33
REMARK   11  A    between atoms: C_32  and  C_34
REMARK   12  A    between atoms: C_35  and  C_36
REMARK                            x       y       z     vdW  Elec       q    Type
REMARK                         _______ _______ _______ _____ _____    ______ ____
ROOT
ATOM      1  C   LIG A   1      -9.514  -0.773 125.983  0.00  0.00    +0.012 C 
ATOM      2  C   LIG A   1      -8.161  -1.181 125.319  0.00  0.00    -0.026 C 
ATOM      3  C   LIG A   1      -7.834  -2.683 125.468  0.00  0.00    -0.001 C 
ATOM      4  C   LIG A   1      -7.470  -3.174 126.877  0.00  0.00    +0.000 C 
ATOM      5  C   LIG A   1      -6.373  -2.266 127.519  0.00  0.00    +0.003 C 
ATOM      6  C   LIG A   1      -5.934  -1.097 126.592  0.00  0.00    +0.005 C 
ATOM      7  C   LIG A   1      -7.095  -0.300 125.995  0.00  0.00    +0.007 C 
ATOM      8  C   LIG A   1      -6.500  -1.902 129.054  0.00  0.00    -0.008 C 
ATOM      9  C   LIG A   1      -5.048  -1.957 129.620  0.00  0.00    +0.016 C 
ATOM     10  C   LIG A   1      -7.408  -2.855 129.820  0.00  0.00    -0.065 C 
ATOM     11  C   LIG A   1      -8.338  -3.629 129.222  0.00  0.00    -0.027 C 
ATOM     12  C   LIG A   1      -8.638  -3.592 127.763  0.00  0.00    +0.031 C 
ATOM     13  C   LIG A   1      -7.452  -2.669 131.318  0.00  0.00    +0.062 C 
ATOM     14  C   LIG A   1      -7.979  -1.258 131.617  0.00  0.00    +0.119 C 
ATOM     15  C   LIG A   1      -7.241  -0.166 130.833  0.00  0.00    +0.032 C 
ATOM     16  C   LIG A   1      -7.088  -0.491 129.336  0.00  0.00    +0.013 C 
ATOM     17  C   LIG A   1      -8.925  -3.380 124.662  0.00  0.00    +0.004 C 
ATOM     18  C   LIG A   1      -9.235  -2.392 123.517  0.00  0.00    +0.005 C 
ATOM     19  C   LIG A   1      -8.351  -1.115 123.753  0.00  0.00    +0.002 C 
ENDROOT
BRANCH  14  20
ATOM     20  O   LIG A   1      -7.887  -0.983 133.014  0.00  0.00    -0.392 OA
ATOM     21  H   LIG A   1      -6.957  -1.087 133.277  0.00  0.00    +0.210 HD
ENDBRANCH  14  20
BRANCH  19  22
ATOM     22  C   LIG A   1      -7.103  -1.173 122.789  0.00  0.00    +0.012 C 
ATOM     23  C   LIG A   1      -6.011  -2.183 123.155  0.00  0.00    +0.012 C 
BRANCH  22  24
ATOM     24  C   LIG A   1      -6.422   0.194 122.714  0.00  0.00    -0.027 C 
ATOM     25  C   LIG A   1      -7.072   1.366 122.847  0.00  0.00    -0.027 C 
BRANCH  25  26
ATOM     26  C   LIG A   1      -6.412   2.736 122.811  0.00  0.00    +0.014 C 
BRANCH  26  27
ATOM     27  C   LIG A   1      -6.687   3.527 124.133  0.00  0.00    -0.010 C 
ATOM     28  C   LIG A   1      -8.139   3.376 124.608  0.00  0.00    +0.008 C 
ATOM     29  C   LIG A   1      -5.757   3.162 125.299  0.00  0.00    +0.008 C 
ENDBRANCH  26  27
BRANCH  26  30
ATOM     30  C   LIG A   1      -6.812   3.531 121.549  0.00  0.00    +0.004 C 
ATOM     31  C   LIG A   1      -5.638   3.909 120.652  0.00  0.00    +0.004 C 
ENDBRANCH  26  30
ENDBRANCH  25  26
ENDBRANCH  22  24
ENDBRANCH  19  22
TORSDOF 6
ENDMDL
MODEL 4
REMARK VINA RESULT:      -7.9      4.138      8.635
REMARK  Name = NuBBE_77
REMARK  12 active torsions:
REMARK  status: ('A' for Active; 'I' for Inactive)
REMARK    1  A    between atoms: C_1  and  C_2
REMARK    2  A    between atoms: C_11  and  C_12
REMARK    3  A    between atoms: C_17  and  O_21
REMARK    4  A    between atoms: C_24  and  C_26
REMARK    5  A    between atoms: C_26  and  C_28
REMARK    6  A    between atoms: C_26  and  C_37
REMARK    7  A    between atoms: C_29  and  C_30
REMARK    8  A    between atoms: C_30  and  C_32
REMARK    9  A    between atoms: C_30  and  C_35
REMARK   10  A    between atoms: C_32  and  C_33
REMARK   11  A    between atoms: C_32  and  C_34
REMARK   12  A    between atoms: C_35  and  C_36
REMARK                            x       y       z     vdW  Elec       q    Type
REMARK                         _______ _______ _______ _____ _____    ______ ____
ROOT
ATOM      1  C   LIG A   1      -5.284   0.282 132.453  0.00  0.00    +0.012 C 
ATOM      2  C   LIG A   1      -6.228  -0.494 131.480  0.00  0.00    -0.026 C 
ATOM      3  C   LIG A   1      -6.299   0.128 130.069  0.00  0.00    -0.001 C 
ATOM      4  C   LIG A   1      -7.023   1.478 129.945  0.00  0.00    +0.000 C 
ATOM      5  C   LIG A   1      -8.422   1.426 130.637  0.00  0.00    +0.003 C 
ATOM      6  C   LIG A   1      -8.729   0.046 131.283  0.00  0.00    +0.005 C 
ATOM      7  C   LIG A   1      -7.605  -0.497 132.167  0.00  0.00    +0.007 C 
ATOM      8  C   LIG A   1      -8.896   2.685 131.471  0.00  0.00    -0.008 C 
ATOM      9  C   LIG A   1     -10.417   2.844 131.163  0.00  0.00    +0.016 C 
ATOM     10  C   LIG A   1      -8.143   3.958 131.110  0.00  0.00    -0.065 C 
ATOM     11  C   LIG A   1      -6.938   3.956 130.503  0.00  0.00    -0.027 C 
ATOM     12  C   LIG A   1      -6.171   2.720 130.182  0.00  0.00    +0.031 C 
ATOM     13  C   LIG A   1      -8.648   5.231 131.747  0.00  0.00    +0.062 C 
ATOM     14  C   LIG A   1      -8.528   5.092 133.272  0.00  0.00    +0.119 C 
ATOM     15  C   LIG A   1      -9.145   3.793 133.804  0.00  0.00    +0.032 C 
ATOM     16  C   LIG A   1      -8.715   2.546 133.008  0.00  0.00    +0.013 C 
ATOM     17  C   LIG A   1      -4.889  -0.047 129.515  0.00  0.00    +0.004 C 
ATOM     18  C   LIG A   1      -4.397  -1.365 130.154  0.00  0.00    +0.005 C 
ATOM     19  C   LIG A   1      -5.531  -1.864 131.120  0.00  0.00    +0.002 C 
ENDROOT
BRANCH  14  20
ATOM     20  O   LIG A   1      -9.141   6.206 133.918  0.00  0.00    -0.392 OA
ATOM     21  H   LIG A   1      -9.707   6.655 133.267  0.00  0.00    +0.210 HD
ENDBRANCH  14  20
BRANCH  19  22
ATOM     22  C   LIG A   1      -6.341  -3.014 130.405  0.00  0.00    +0.012 C 
ATOM     23  C   LIG A   1      -5.879  -4.446 130.690  0.00  0.00    +0.012 C 
BRANCH  22  24
ATOM     24  C   LIG A   1      -6.291  -2.837 128.887  0.00  0.00    -0.027 C 
ATOM     25  C   LIG A   1      -7.343  -2.448 128.141  0.00  0.00    -0.027 C 
BRANCH  25  26
ATOM     26  C   LIG A   1      -7.310  -2.232 126.635  0.00  0.00    +0.014 C 
BRANCH  26  27
ATOM     27  C   LIG A   1      -8.154  -3.320 125.893  0.00  0.00    -0.010 C 
ATOM     28  C   LIG A   1      -9.633  -2.923 125.770  0.00  0.00    +0.008 C 
ATOM     29  C   LIG A   1      -7.635  -3.688 124.496  0.00  0.00    +0.008 C 
ENDBRANCH  26  27
BRANCH  26  30
ATOM     30  C   LIG A   1      -5.863  -2.137 126.103  0.00  0.00    +0.004 C 
ATOM     31  C   LIG A   1      -5.371  -0.709 125.888  0.00  0.00    +0.004 C 
ENDBRANCH  26  30
ENDBRANCH  25  26
ENDBRANCH  22  24
ENDBRANCH  19  22
TORSDOF 6
ENDMDL
MODEL 5
REMARK VINA RESULT:      -7.9      3.508      9.450
REMARK  Name = NuBBE_77
REMARK  12 active torsions:
REMARK  status: ('A' for Active; 'I' for Inactive)
REMARK    1  A    between atoms: C_1  and  C_2
REMARK    2  A    between atoms: C_11  and  C_12
REMARK    3  A    between atoms: C_17  and  O_21
REMARK    4  A    between atoms: C_24  and  C_26
REMARK    5  A    between atoms: C_26  and  C_28
REMARK    6  A    between atoms: C_26  and  C_37
REMARK    7  A    between atoms: C_29  and  C_30
REMARK    8  A    between atoms: C_30  and  C_32
REMARK    9  A    between atoms: C_30  and  C_35
REMARK   10  A    between atoms: C_32  and  C_33
REMARK   11  A    between atoms: C_32  and  C_34
REMARK   12  A    between atoms: C_35  and  C_36
REMARK                            x       y       z     vdW  Elec       q    Type
REMARK                         _______ _______ _______ _____ _____    ______ ____
ROOT
ATOM      1  C   LIG A   1      -2.440   3.445 127.444  0.00  0.00    +0.012 C 
ATOM      2  C   LIG A   1      -3.892   3.039 127.849  0.00  0.00    -0.026 C 
ATOM      3  C   LIG A   1      -4.901   4.205 127.762  0.00  0.00    -0.001 C 
ATOM      4  C   LIG A   1      -4.755   5.324 128.805  0.00  0.00    +0.000 C 
ATOM      5  C   LIG A   1      -4.661   4.733 130.248  0.00  0.00    +0.003 C 
ATOM      6  C   LIG A   1      -4.724   3.179 130.273  0.00  0.00    +0.005 C 
ATOM      7  C   LIG A   1      -3.776   2.497 129.284  0.00  0.00    +0.007 C 
ATOM      8  C   LIG A   1      -3.637   5.385 131.263  0.00  0.00    -0.008 C 
ATOM      9  C   LIG A   1      -4.368   5.406 132.641  0.00  0.00    +0.016 C 
ATOM     10  C   LIG A   1      -3.214   6.792 130.863  0.00  0.00    -0.065 C 
ATOM     11  C   LIG A   1      -3.322   7.265 129.604  0.00  0.00    -0.027 C 
ATOM     12  C   LIG A   1      -3.794   6.452 128.448  0.00  0.00    +0.031 C 
ATOM     13  C   LIG A   1      -2.365   7.540 131.864  0.00  0.00    +0.062 C 
ATOM     14  C   LIG A   1      -1.061   6.756 132.077  0.00  0.00    +0.119 C 
ATOM     15  C   LIG A   1      -1.300   5.273 132.385  0.00  0.00    +0.032 C 
ATOM     16  C   LIG A   1      -2.302   4.606 131.424  0.00  0.00    +0.013 C 
ATOM     17  C   LIG A   1      -4.956   4.537 126.274  0.00  0.00    +0.004 C 
ATOM     18  C   LIG A   1      -4.727   3.177 125.579  0.00  0.00    +0.005 C 
ATOM     19  C   LIG A   1      -4.472   2.114 126.709  0.00  0.00    +0.002 C 
ENDROOT
BRANCH  14  20
ATOM     20  O   LIG A   1      -0.301   7.342 133.133  0.00  0.00    -0.392 OA
ATOM     21  H   LIG A   1      -0.384   6.769 133.914  0.00  0.00    +0.210 HD
ENDBRANCH  14  20
BRANCH  19  22
ATOM     22  C   LIG A   1      -5.796   1.288 126.940  0.00  0.00    +0.012 C 
ATOM     23  C   LIG A   1      -5.662   0.017 127.784  0.00  0.00    +0.012 C 
BRANCH  22  24
ATOM     24  C   LIG A   1      -6.398   0.858 125.602  0.00  0.00    -0.027 C 
ATOM     25  C   LIG A   1      -6.505  -0.425 125.203  0.00  0.00    -0.027 C 
BRANCH  25  26
ATOM     26  C   LIG A   1      -7.130  -0.880 123.894  0.00  0.00    +0.014 C 
BRANCH  26  27
ATOM     27  C   LIG A   1      -8.552  -1.486 124.131  0.00  0.00    -0.010 C 
ATOM     28  C   LIG A   1      -8.876  -2.614 123.140  0.00  0.00    +0.008 C 
ATOM     29  C   LIG A   1      -8.794  -2.009 125.554  0.00  0.00    +0.008 C 
ENDBRANCH  26  27
BRANCH  26  30
ATOM     30  C   LIG A   1      -6.198  -1.837 123.117  0.00  0.00    +0.004 C 
ATOM     31  C   LIG A   1      -5.234  -2.622 124.001  0.00  0.00    +0.004 C 
ENDBRANCH  26  30
ENDBRANCH  25  26
ENDBRANCH  22  24
ENDBRANCH  19  22
TORSDOF 6
ENDMDL
MODEL 6
REMARK VINA RESULT:      -7.8      4.974      9.339
REMARK  Name = NuBBE_77
REMARK  12 active torsions:
REMARK  status: ('A' for Active; 'I' for Inactive)
REMARK    1  A    between atoms: C_1  and  C_2
REMARK    2  A    between atoms: C_11  and  C_12
REMARK    3  A    between atoms: C_17  and  O_21
REMARK    4  A    between atoms: C_24  and  C_26
REMARK    5  A    between atoms: C_26  and  C_28
REMARK    6  A    between atoms: C_26  and  C_37
REMARK    7  A    between atoms: C_29  and  C_30
REMARK    8  A    between atoms: C_30  and  C_32
REMARK    9  A    between atoms: C_30  and  C_35
REMARK   10  A    between atoms: C_32  and  C_33
REMARK   11  A    between atoms: C_32  and  C_34
REMARK   12  A    between atoms: C_35  and  C_36
REMARK                            x       y       z     vdW  Elec       q    Type
REMARK                         _______ _______ _______ _____ _____    ______ ____
ROOT
ATOM      1  C   LIG A   1      -4.360  -3.313 129.316  0.00  0.00    +0.012 C 
ATOM      2  C   LIG A   1      -5.820  -2.760 129.268  0.00  0.00    -0.026 C 
ATOM      3  C   LIG A   1      -5.983  -1.402 129.985  0.00  0.00    -0.001 C 
ATOM      4  C   LIG A   1      -5.869  -1.410 131.517  0.00  0.00    +0.000 C 
ATOM      5  C   LIG A   1      -6.782  -2.517 132.138  0.00  0.00    +0.003 C 
ATOM      6  C   LIG A   1      -7.559  -3.334 131.067  0.00  0.00    +0.005 C 
ATOM      7  C   LIG A   1      -6.689  -3.850 129.918  0.00  0.00    +0.007 C 
ATOM      8  C   LIG A   1      -6.222  -3.357 133.356  0.00  0.00    -0.008 C 
ATOM      9  C   LIG A   1      -7.428  -3.542 134.327  0.00  0.00    +0.016 C 
ATOM     10  C   LIG A   1      -5.062  -2.675 134.069  0.00  0.00    -0.065 C 
ATOM     11  C   LIG A   1      -4.305  -1.716 133.497  0.00  0.00    -0.027 C 
ATOM     12  C   LIG A   1      -4.463  -1.263 132.086  0.00  0.00    +0.031 C 
ATOM     13  C   LIG A   1      -4.581  -3.339 135.338  0.00  0.00    +0.062 C 
ATOM     14  C   LIG A   1      -4.085  -4.750 134.990  0.00  0.00    +0.119 C 
ATOM     15  C   LIG A   1      -5.098  -5.552 134.164  0.00  0.00    +0.032 C 
ATOM     16  C   LIG A   1      -5.674  -4.761 132.975  0.00  0.00    +0.013 C 
ATOM     17  C   LIG A   1      -5.141  -0.440 129.153  0.00  0.00    +0.004 C 
ATOM     18  C   LIG A   1      -5.259  -0.989 127.714  0.00  0.00    +0.005 C 
ATOM     19  C   LIG A   1      -6.116  -2.304 127.786  0.00  0.00    +0.002 C 
ENDROOT
BRANCH  14  20
ATOM     20  O   LIG A   1      -3.771  -5.470 136.181  0.00  0.00    -0.392 OA
ATOM     21  H   LIG A   1      -3.981  -4.899 136.939  0.00  0.00    +0.210 HD
ENDBRANCH  14  20
BRANCH  19  22
ATOM     22  C   LIG A   1      -7.590  -1.979 127.325  0.00  0.00    +0.012 C 
ATOM     23  C   LIG A   1      -8.576  -3.150 127.336  0.00  0.00    +0.012 C 
BRANCH  22  24
ATOM     24  C   LIG A   1      -7.593  -1.423 125.901  0.00  0.00    -0.027 C 
ATOM     25  C   LIG A   1      -7.244  -2.138 124.814  0.00  0.00    -0.027 C 
BRANCH  25  26
ATOM     26  C   LIG A   1      -7.272  -1.618 123.385  0.00  0.00    +0.014 C 
BRANCH  26  27
ATOM     27  C   LIG A   1      -8.646  -1.924 122.703  0.00  0.00    -0.010 C 
ATOM     28  C   LIG A   1      -9.355  -3.128 123.340  0.00  0.00    +0.008 C 
ATOM     29  C   LIG A   1      -9.625  -0.741 122.683  0.00  0.00    +0.008 C 
ENDBRANCH  26  27
BRANCH  26  30
ATOM     30  C   LIG A   1      -6.071  -2.138 122.563  0.00  0.00    +0.004 C 
ATOM     31  C   LIG A   1      -5.090  -2.988 123.364  0.00  0.00    +0.004 C 
ENDBRANCH  26  30
ENDBRANCH  25  26
ENDBRANCH  22  24
ENDBRANCH  19  22
TORSDOF 6
ENDMDL
MODEL 7
REMARK VINA RESULT:      -7.8      5.535      7.731
REMARK  Name = NuBBE_77
REMARK  12 active torsions:
REMARK  status: ('A' for Active; 'I' for Inactive)
REMARK    1  A    between atoms: C_1  and  C_2
REMARK    2  A    between atoms: C_11  and  C_12
REMARK    3  A    between atoms: C_17  and  O_21
REMARK    4  A    between atoms: C_24  and  C_26
REMARK    5  A    between atoms: C_26  and  C_28
REMARK    6  A    between atoms: C_26  and  C_37
REMARK    7  A    between atoms: C_29  and  C_30
REMARK    8  A    between atoms: C_30  and  C_32
REMARK    9  A    between atoms: C_30  and  C_35
REMARK   10  A    between atoms: C_32  and  C_33
REMARK   11  A    between atoms: C_32  and  C_34
REMARK   12  A    between atoms: C_35  and  C_36
REMARK                            x       y       z     vdW  Elec       q    Type
REMARK                         _______ _______ _______ _____ _____    ______ ____
ROOT
ATOM      1  C   LIG A   1      -8.971   3.197 133.377  0.00  0.00    +0.012 C 
ATOM      2  C   LIG A   1      -8.341   3.783 132.074  0.00  0.00    -0.026 C 
ATOM      3  C   LIG A   1      -8.742   3.011 130.799  0.00  0.00    -0.001 C 
ATOM      4  C   LIG A   1      -8.159   1.599 130.634  0.00  0.00    +0.000 C 
ATOM      5  C   LIG A   1      -6.613   1.604 130.857  0.00  0.00    +0.003 C 
ATOM      6  C   LIG A   1      -6.053   3.014 131.199  0.00  0.00    +0.005 C 
ATOM      7  C   LIG A   1      -6.820   3.741 132.306  0.00  0.00    +0.007 C 
ATOM      8  C   LIG A   1      -5.965   0.405 131.661  0.00  0.00    -0.008 C 
ATOM      9  C   LIG A   1      -4.625   0.085 130.929  0.00  0.00    +0.016 C 
ATOM     10  C   LIG A   1      -6.854  -0.830 131.710  0.00  0.00    -0.065 C 
ATOM     11  C   LIG A   1      -8.186  -0.790 131.502  0.00  0.00    -0.027 C 
ATOM     12  C   LIG A   1      -8.954   0.466 131.273  0.00  0.00    +0.031 C 
ATOM     13  C   LIG A   1      -6.238  -2.068 132.320  0.00  0.00    +0.062 C 
ATOM     14  C   LIG A   1      -5.871  -1.758 133.779  0.00  0.00    +0.119 C 
ATOM     15  C   LIG A   1      -5.057  -0.467 133.929  0.00  0.00    +0.032 C 
ATOM     16  C   LIG A   1      -5.652   0.720 133.150  0.00  0.00    +0.013 C 
ATOM     17  C   LIG A   1     -10.244   3.246 130.681  0.00  0.00    +0.004 C 
ATOM     18  C   LIG A   1     -10.448   4.661 131.266  0.00  0.00    +0.005 C 
ATOM     19  C   LIG A   1      -9.047   5.162 131.771  0.00  0.00    +0.002 C 
ENDROOT
BRANCH  14  20
ATOM     20  O   LIG A   1      -5.142  -2.845 134.345  0.00  0.00    -0.392 OA
ATOM     21  H   LIG A   1      -5.040  -2.673 135.297  0.00  0.00    +0.210 HD
ENDBRANCH  14  20
BRANCH  19  22
ATOM     22  C   LIG A   1      -8.445   6.156 130.704  0.00  0.00    +0.012 C 
ATOM     23  C   LIG A   1      -7.191   6.926 131.129  0.00  0.00    +0.012 C 
BRANCH  22  24
ATOM     24  C   LIG A   1      -9.484   7.205 130.306  0.00  0.00    -0.027 C 
ATOM     25  C   LIG A   1     -10.074   7.256 129.096  0.00  0.00    -0.027 C 
BRANCH  25  26
ATOM     26  C   LIG A   1     -11.134   8.267 128.687  0.00  0.00    +0.014 C 
BRANCH  26  27
ATOM     27  C   LIG A   1     -12.193   8.460 129.822  0.00  0.00    -0.010 C 
ATOM     28  C   LIG A   1     -13.081   9.691 129.584  0.00  0.00    +0.008 C 
ATOM     29  C   LIG A   1     -13.104   7.247 130.059  0.00  0.00    +0.008 C 
ENDBRANCH  26  27
BRANCH  26  30
ATOM     30  C   LIG A   1     -11.777   7.905 127.329  0.00  0.00    +0.004 C 
ATOM     31  C   LIG A   1     -10.774   7.503 126.253  0.00  0.00    +0.004 C 
ENDBRANCH  26  30
ENDBRANCH  25  26
ENDBRANCH  22  24
ENDBRANCH  19  22
TORSDOF 6
ENDMDL
MODEL 8
REMARK VINA RESULT:      -7.8      3.577      5.393
REMARK  Name = NuBBE_77
REMARK  12 active torsions:
REMARK  status: ('A' for Active; 'I' for Inactive)
REMARK    1  A    between atoms: C_1  and  C_2
REMARK    2  A    between atoms: C_11  and  C_12
REMARK    3  A    between atoms: C_17  and  O_21
REMARK    4  A    between atoms: C_24  and  C_26
REMARK    5  A    between atoms: C_26  and  C_28
REMARK    6  A    between atoms: C_26  and  C_37
REMARK    7  A    between atoms: C_29  and  C_30
REMARK    8  A    between atoms: C_30  and  C_32
REMARK    9  A    between atoms: C_30  and  C_35
REMARK   10  A    between atoms: C_32  and  C_33
REMARK   11  A    between atoms: C_32  and  C_34
REMARK   12  A    between atoms: C_35  and  C_36
REMARK                            x       y       z     vdW  Elec       q    Type
REMARK                         _______ _______ _______ _____ _____    ______ ____
ROOT
ATOM      1  C   LIG A   1      -4.555  -3.513 129.226  0.00  0.00    +0.012 C 
ATOM      2  C   LIG A   1      -4.950  -2.177 129.931  0.00  0.00    -0.026 C 
ATOM      3  C   LIG A   1      -6.358  -2.213 130.565  0.00  0.00    -0.001 C 
ATOM      4  C   LIG A   1      -7.551  -2.239 129.598  0.00  0.00    +0.000 C 
ATOM      5  C   LIG A   1      -7.420  -1.115 128.520  0.00  0.00    +0.003 C 
ATOM      6  C   LIG A   1      -6.125  -0.268 128.680  0.00  0.00    +0.005 C 
ATOM      7  C   LIG A   1      -4.849  -1.097 128.839  0.00  0.00    +0.007 C 
ATOM      8  C   LIG A   1      -7.828  -1.453 127.028  0.00  0.00    -0.008 C 
ATOM      9  C   LIG A   1      -8.556  -0.181 126.495  0.00  0.00    +0.016 C 
ATOM     10  C   LIG A   1      -8.733  -2.672 126.918  0.00  0.00    -0.065 C 
ATOM     11  C   LIG A   1      -8.822  -3.615 127.880  0.00  0.00    -0.027 C 
ATOM     12  C   LIG A   1      -7.999  -3.615 129.122  0.00  0.00    +0.031 C 
ATOM     13  C   LIG A   1      -9.294  -2.961 125.546  0.00  0.00    +0.062 C 
ATOM     14  C   LIG A   1      -8.123  -3.222 124.587  0.00  0.00    +0.119 C 
ATOM     15  C   LIG A   1      -7.046  -2.132 124.650  0.00  0.00    +0.032 C 
ATOM     16  C   LIG A   1      -6.632  -1.769 126.087  0.00  0.00    +0.013 C 
ATOM     17  C   LIG A   1      -6.238  -3.254 131.674  0.00  0.00    +0.004 C 
ATOM     18  C   LIG A   1      -4.776  -3.121 132.154  0.00  0.00    +0.005 C 
ATOM     19  C   LIG A   1      -4.082  -2.046 131.243  0.00  0.00    +0.002 C 
ENDROOT
BRANCH  14  20
ATOM     20  O   LIG A   1      -8.599  -3.341 123.248  0.00  0.00    -0.392 OA
ATOM     21  H   LIG A   1      -7.872  -3.686 122.703  0.00  0.00    +0.210 HD
ENDBRANCH  14  20
BRANCH  19  22
ATOM     22  C   LIG A   1      -4.013  -0.679 132.027  0.00  0.00    +0.012 C 
ATOM     23  C   LIG A   1      -3.252  -0.699 133.356  0.00  0.00    +0.012 C 
BRANCH  22  24
ATOM     24  C   LIG A   1      -5.420  -0.172 132.342  0.00  0.00    -0.027 C 
ATOM     25  C   LIG A   1      -5.824   1.098 132.143  0.00  0.00    -0.027 C 
BRANCH  25  26
ATOM     26  C   LIG A   1      -7.227   1.618 132.415  0.00  0.00    +0.014 C 
BRANCH  26  27
ATOM     27  C   LIG A   1      -8.213   1.199 131.275  0.00  0.00    -0.010 C 
ATOM     28  C   LIG A   1      -9.273   0.200 131.763  0.00  0.00    +0.008 C 
ATOM     29  C   LIG A   1      -8.932   2.370 130.590  0.00  0.00    +0.008 C 
ENDBRANCH  26  27
BRANCH  26  30
ATOM     30  C   LIG A   1      -7.233   3.141 132.676  0.00  0.00    +0.004 C 
ATOM     31  C   LIG A   1      -7.828   3.541 134.022  0.00  0.00    +0.004 C 
ENDBRANCH  26  30
ENDBRANCH  25  26
ENDBRANCH  22  24
ENDBRANCH  19  22
TORSDOF 6
ENDMDL
MODEL 9
REMARK VINA RESULT:      -7.5      4.628      9.166
REMARK  Name = NuBBE_77
REMARK  12 active torsions:
REMARK  status: ('A' for Active; 'I' for Inactive)
REMARK    1  A    between atoms: C_1  and  C_2
REMARK    2  A    between atoms: C_11  and  C_12
REMARK    3  A    between atoms: C_17  and  O_21
REMARK    4  A    between atoms: C_24  and  C_26
REMARK    5  A    between atoms: C_26  and  C_28
REMARK    6  A    between atoms: C_26  and  C_37
REMARK    7  A    between atoms: C_29  and  C_30
REMARK    8  A    between atoms: C_30  and  C_32
REMARK    9  A    between atoms: C_30  and  C_35
REMARK   10  A    between atoms: C_32  and  C_33
REMARK   11  A    between atoms: C_32  and  C_34
REMARK   12  A    between atoms: C_35  and  C_36
REMARK                            x       y       z     vdW  Elec       q    Type
REMARK                         _______ _______ _______ _____ _____    ______ ____
ROOT
ATOM      1  C   LIG A   1      -7.802  -0.257 130.391  0.00  0.00    +0.012 C 
ATOM      2  C   LIG A   1      -6.540  -0.749 129.613  0.00  0.00    -0.026 C 
ATOM      3  C   LIG A   1      -6.368  -2.283 129.632  0.00  0.00    -0.001 C 
ATOM      4  C   LIG A   1      -5.980  -2.919 130.975  0.00  0.00    +0.000 C 
ATOM      5  C   LIG A   1      -4.757  -2.182 131.609  0.00  0.00    +0.003 C 
ATOM      6  C   LIG A   1      -4.248  -0.995 130.742  0.00  0.00    +0.005 C 
ATOM      7  C   LIG A   1      -5.349  -0.038 130.280  0.00  0.00    +0.007 C 
ATOM      8  C   LIG A   1      -4.758  -1.929 133.171  0.00  0.00    -0.008 C 
ATOM      9  C   LIG A   1      -3.290  -2.177 133.636  0.00  0.00    +0.016 C 
ATOM     10  C   LIG A   1      -5.718  -2.840 133.923  0.00  0.00    -0.065 C 
ATOM     11  C   LIG A   1      -6.758  -3.465 133.332  0.00  0.00    -0.027 C 
ATOM     12  C   LIG A   1      -7.134  -3.283 131.902  0.00  0.00    +0.031 C 
ATOM     13  C   LIG A   1      -5.657  -2.769 135.431  0.00  0.00    +0.062 C 
ATOM     14  C   LIG A   1      -6.012  -1.340 135.864  0.00  0.00    +0.119 C 
ATOM     15  C   LIG A   1      -5.206  -0.271 135.115  0.00  0.00    +0.032 C 
ATOM     16  C   LIG A   1      -5.173  -0.491 133.592  0.00  0.00    +0.013 C 
ATOM     17  C   LIG A   1      -7.572  -2.799 128.850  0.00  0.00    +0.004 C 
ATOM     18  C   LIG A   1      -7.838  -1.697 127.802  0.00  0.00    +0.005 C 
ATOM     19  C   LIG A   1      -6.810  -0.540 128.072  0.00  0.00    +0.002 C 
ENDROOT
BRANCH  14  20
ATOM     20  O   LIG A   1      -5.811  -1.186 137.268  0.00  0.00    -0.392 OA
ATOM     21  H   LIG A   1      -6.666  -1.328 137.709  0.00  0.00    +0.210 HD
ENDBRANCH  14  20
BRANCH  19  22
ATOM     22  C   LIG A   1      -5.632  -0.650 127.027  0.00  0.00    +0.012 C 
ATOM     23  C   LIG A   1      -5.284   0.630 126.262  0.00  0.00    +0.012 C 
BRANCH  22  24
ATOM     24  C   LIG A   1      -5.950  -1.712 125.974  0.00  0.00    -0.027 C 
ATOM     25  C   LIG A   1      -5.979  -1.470 124.649  0.00  0.00    -0.027 C 
BRANCH  25  26
ATOM     26  C   LIG A   1      -6.259  -2.516 123.580  0.00  0.00    +0.014 C 
BRANCH  26  27
ATOM     27  C   LIG A   1      -7.780  -2.560 123.221  0.00  0.00    -0.010 C 
ATOM     28  C   LIG A   1      -8.572  -3.483 124.160  0.00  0.00    +0.008 C 
ATOM     29  C   LIG A   1      -8.471  -1.188 123.199  0.00  0.00    +0.008 C 
ENDBRANCH  26  27
BRANCH  26  30
ATOM     30  C   LIG A   1      -5.701  -3.901 123.975  0.00  0.00    +0.004 C 
ATOM     31  C   LIG A   1      -4.238  -4.114 123.599  0.00  0.00    +0.004 C 
ENDBRANCH  26  30
ENDBRANCH  25  26
ENDBRANCH  22  24
ENDBRANCH  19  22
TORSDOF 6
ENDMDL
