MODEL 1
REMARK VINA RESULT:      -7.7      0.000      0.000
REMARK  Name = NuBBE_1619
REMARK  10 active torsions:
REMARK  status: ('A' for Active; 'I' for Inactive)
REMARK    1  A    between atoms: O_1  and  C_2
REMARK    2  A    between atoms: O_1  and  C_13
REMARK    3  A    between atoms: C_2  and  C_3
REMARK    4  A    between atoms: C_4  and  C_5
REMARK    5  A    between atoms: C_4  and  C_12
REMARK    6  A    between atoms: C_5  and  C_6
REMARK    7  A    between atoms: C_6  and  C_7
REMARK    8  A    between atoms: C_6  and  O_11
REMARK    9  A    between atoms: C_8  and  C_9
REMARK   10  A    between atoms: C_8  and  C_10
REMARK                            x       y       z     vdW  Elec       q    Type
REMARK                         _______ _______ _______ _____ _____    ______ ____
ROOT
ATOM      1  O   LIG A   1      -8.480   1.837 126.725  0.00  0.00    -0.488 OA
ENDROOT
BRANCH   1   2
ATOM      2  C   LIG A   1      -8.011   2.270 125.511  0.00  0.00    +0.124 A 
ATOM      3  C   LIG A   1      -8.797   2.537 124.392  0.00  0.00    +0.092 A 
ATOM      4  C   LIG A   1      -8.189   2.968 123.212  0.00  0.00    +0.142 A 
ATOM      5  C   LIG A   1      -6.810   3.131 123.106  0.00  0.00    +0.018 A 
ATOM      6  C   LIG A   1      -6.021   2.849 124.220  0.00  0.00    +0.015 A 
ATOM      7  C   LIG A   1      -6.620   2.414 125.412  0.00  0.00    +0.046 A 
ATOM      8  C   LIG A   1      -6.252   3.576 121.838  0.00  0.00    +0.018 A 
ATOM      9  C   LIG A   1      -7.069   3.825 120.810  0.00  0.00    +0.092 A 
ATOM     10  C   LIG A   1      -8.533   3.671 120.901  0.00  0.00    +0.337 A 
ATOM     11  O   LIG A   1      -9.248   3.919 119.947  0.00  0.00    -0.245 OA
ATOM     12  O   LIG A   1      -9.038   3.232 122.119  0.00  0.00    -0.422 OA
ENDBRANCH   1   2
BRANCH   1  13
ATOM     13  C   LIG A   1      -7.980   0.571 127.173  0.00  0.00    +0.257 C 
BRANCH  13  14
ATOM     14  C   LIG A   1      -8.698  -0.530 126.438  0.00  0.00    +0.012 C 
ATOM     15  C   LIG A   1      -8.657  -1.863 126.662  0.00  0.00    -0.071 C 
ATOM     16  C   LIG A   1      -7.927  -2.521 127.806  0.00  0.00    +0.039 C 
BRANCH  15  17
ATOM     17  C   LIG A   1      -9.405  -2.823 125.736  0.00  0.00    +0.065 C 
BRANCH  17  18
ATOM     18  C   LIG A   1      -9.124  -2.636 124.223  0.00  0.00    +0.141 C 
BRANCH  18  19
ATOM     19  C   LIG A   1      -7.714  -3.057 123.877  0.00  0.00    +0.003 C 
ATOM     20  C   LIG A   1      -6.663  -2.301 123.495  0.00  0.00    -0.077 C 
ATOM     21  C   LIG A   1      -6.660  -0.809 123.311  0.00  0.00    +0.038 C 
ATOM     22  C   LIG A   1      -5.316  -2.935 123.249  0.00  0.00    +0.038 C 
ENDBRANCH  18  19
BRANCH  18  23
ATOM     23  O   LIG A   1     -10.005  -3.450 123.439  0.00  0.00    -0.387 OA
ATOM     24  H   LIG A   1     -10.707  -3.781 124.022  0.00  0.00    +0.210 HD
ENDBRANCH  18  23
ENDBRANCH  17  18
ENDBRANCH  15  17
ENDBRANCH  13  14
ENDBRANCH   1  13
TORSDOF 7
ENDMDL
MODEL 2
REMARK VINA RESULT:      -7.1      1.774      2.441
REMARK  Name = NuBBE_1619
REMARK  10 active torsions:
REMARK  status: ('A' for Active; 'I' for Inactive)
REMARK    1  A    between atoms: O_1  and  C_2
REMARK    2  A    between atoms: O_1  and  C_13
REMARK    3  A    between atoms: C_2  and  C_3
REMARK    4  A    between atoms: C_4  and  C_5
REMARK    5  A    between atoms: C_4  and  C_12
REMARK    6  A    between atoms: C_5  and  C_6
REMARK    7  A    between atoms: C_6  and  C_7
REMARK    8  A    between atoms: C_6  and  O_11
REMARK    9  A    between atoms: C_8  and  C_9
REMARK   10  A    between atoms: C_8  and  C_10
REMARK                            x       y       z     vdW  Elec       q    Type
REMARK                         _______ _______ _______ _____ _____    ______ ____
ROOT
ATOM      1  O   LIG A   1      -9.206   2.256 125.165  0.00  0.00    -0.488 OA
ENDROOT
BRANCH   1   2
ATOM      2  C   LIG A   1      -8.312   2.735 124.241  0.00  0.00    +0.124 A 
ATOM      3  C   LIG A   1      -8.590   2.968 122.896  0.00  0.00    +0.092 A 
ATOM      4  C   LIG A   1      -7.583   3.453 122.060  0.00  0.00    +0.142 A 
ATOM      5  C   LIG A   1      -6.294   3.703 122.522  0.00  0.00    +0.018 A 
ATOM      6  C   LIG A   1      -6.009   3.455 123.865  0.00  0.00    +0.015 A 
ATOM      7  C   LIG A   1      -7.014   2.966 124.715  0.00  0.00    +0.046 A 
ATOM      8  C   LIG A   1      -5.297   4.200 121.586  0.00  0.00    +0.018 A 
ATOM      9  C   LIG A   1      -5.640   4.412 120.311  0.00  0.00    +0.092 A 
ATOM     10  C   LIG A   1      -7.001   4.166 119.800  0.00  0.00    +0.337 A 
ATOM     11  O   LIG A   1      -7.280   4.383 118.635  0.00  0.00    -0.245 OA
ATOM     12  O   LIG A   1      -7.929   3.679 120.713  0.00  0.00    -0.422 OA
ENDBRANCH   1   2
BRANCH   1  13
ATOM     13  C   LIG A   1      -9.460   0.847 125.117  0.00  0.00    +0.257 C 
BRANCH  13  14
ATOM     14  C   LIG A   1      -8.354   0.122 125.839  0.00  0.00    +0.012 C 
ATOM     15  C   LIG A   1      -8.202  -1.207 126.038  0.00  0.00    -0.071 C 
ATOM     16  C   LIG A   1      -9.101  -2.271 125.459  0.00  0.00    +0.039 C 
BRANCH  15  17
ATOM     17  C   LIG A   1      -7.038  -1.732 126.879  0.00  0.00    +0.065 C 
BRANCH  17  18
ATOM     18  C   LIG A   1      -5.632  -1.545 126.252  0.00  0.00    +0.141 C 
BRANCH  18  19
ATOM     19  C   LIG A   1      -5.719  -1.449 124.745  0.00  0.00    +0.003 C 
ATOM     20  C   LIG A   1      -5.612  -2.425 123.818  0.00  0.00    -0.077 C 
ATOM     21  C   LIG A   1      -5.366  -3.883 124.083  0.00  0.00    +0.038 C 
ATOM     22  C   LIG A   1      -5.786  -2.106 122.353  0.00  0.00    +0.038 C 
ENDBRANCH  18  19
BRANCH  18  23
ATOM     23  O   LIG A   1      -5.029  -0.329 126.712  0.00  0.00    -0.387 OA
ATOM     24  H   LIG A   1      -4.732   0.172 125.935  0.00  0.00    +0.210 HD
ENDBRANCH  18  23
ENDBRANCH  17  18
ENDBRANCH  15  17
ENDBRANCH  13  14
ENDBRANCH   1  13
TORSDOF 7
ENDMDL
MODEL 3
REMARK VINA RESULT:      -7.0      1.885      2.718
REMARK  Name = NuBBE_1619
REMARK  10 active torsions:
REMARK  status: ('A' for Active; 'I' for Inactive)
REMARK    1  A    between atoms: O_1  and  C_2
REMARK    2  A    between atoms: O_1  and  C_13
REMARK    3  A    between atoms: C_2  and  C_3
REMARK    4  A    between atoms: C_4  and  C_5
REMARK    5  A    between atoms: C_4  and  C_12
REMARK    6  A    between atoms: C_5  and  C_6
REMARK    7  A    between atoms: C_6  and  C_7
REMARK    8  A    between atoms: C_6  and  O_11
REMARK    9  A    between atoms: C_8  and  C_9
REMARK   10  A    between atoms: C_8  and  C_10
REMARK                            x       y       z     vdW  Elec       q    Type
REMARK                         _______ _______ _______ _____ _____    ______ ____
ROOT
ATOM      1  O   LIG A   1      -7.711   2.226 125.352  0.00  0.00    -0.488 OA
ENDROOT
BRANCH   1   2
ATOM      2  C   LIG A   1      -7.101   2.858 124.298  0.00  0.00    +0.124 A 
ATOM      3  C   LIG A   1      -7.605   2.929 123.000  0.00  0.00    +0.092 A 
ATOM      4  C   LIG A   1      -6.877   3.602 122.017  0.00  0.00    +0.142 A 
ATOM      5  C   LIG A   1      -5.648   4.200 122.284  0.00  0.00    +0.018 A 
ATOM      6  C   LIG A   1      -5.136   4.115 123.579  0.00  0.00    +0.015 A 
ATOM      7  C   LIG A   1      -5.858   3.441 124.576  0.00  0.00    +0.046 A 
ATOM      8  C   LIG A   1      -4.947   4.875 121.203  0.00  0.00    +0.018 A 
ATOM      9  C   LIG A   1      -5.497   4.914 119.985  0.00  0.00    +0.092 A 
ATOM     10  C   LIG A   1      -6.802   4.298 119.680  0.00  0.00    +0.337 A 
ATOM     11  O   LIG A   1      -7.278   4.364 118.562  0.00  0.00    -0.245 OA
ATOM     12  O   LIG A   1      -7.444   3.648 120.728  0.00  0.00    -0.422 OA
ENDBRANCH   1   2
BRANCH   1  13
ATOM     13  C   LIG A   1      -6.883   1.335 126.110  0.00  0.00    +0.257 C 
BRANCH  13  14
ATOM     14  C   LIG A   1      -6.414   0.218 125.216  0.00  0.00    +0.012 C 
ATOM     15  C   LIG A   1      -5.803  -0.940 125.558  0.00  0.00    -0.071 C 
ATOM     16  C   LIG A   1      -5.556  -1.395 126.974  0.00  0.00    +0.039 C 
BRANCH  15  17
ATOM     17  C   LIG A   1      -5.330  -1.910 124.475  0.00  0.00    +0.065 C 
BRANCH  17  18
ATOM     18  C   LIG A   1      -5.928  -3.338 124.560  0.00  0.00    +0.141 C 
BRANCH  18  19
ATOM     19  C   LIG A   1      -7.265  -3.410 123.857  0.00  0.00    +0.003 C 
ATOM     20  C   LIG A   1      -8.510  -3.371 124.378  0.00  0.00    -0.077 C 
ATOM     21  C   LIG A   1      -8.863  -3.253 125.834  0.00  0.00    +0.038 C 
ATOM     22  C   LIG A   1      -9.717  -3.406 123.473  0.00  0.00    +0.038 C 
ENDBRANCH  18  19
BRANCH  18  23
ATOM     23  O   LIG A   1      -5.068  -4.287 123.917  0.00  0.00    -0.387 OA
ATOM     24  H   LIG A   1      -5.107  -4.127 122.960  0.00  0.00    +0.210 HD
ENDBRANCH  18  23
ENDBRANCH  17  18
ENDBRANCH  15  17
ENDBRANCH  13  14
ENDBRANCH   1  13
TORSDOF 7
ENDMDL
MODEL 4
REMARK VINA RESULT:      -7.0      7.784      9.565
REMARK  Name = NuBBE_1619
REMARK  10 active torsions:
REMARK  status: ('A' for Active; 'I' for Inactive)
REMARK    1  A    between atoms: O_1  and  C_2
REMARK    2  A    between atoms: O_1  and  C_13
REMARK    3  A    between atoms: C_2  and  C_3
REMARK    4  A    between atoms: C_4  and  C_5
REMARK    5  A    between atoms: C_4  and  C_12
REMARK    6  A    between atoms: C_5  and  C_6
REMARK    7  A    between atoms: C_6  and  C_7
REMARK    8  A    between atoms: C_6  and  O_11
REMARK    9  A    between atoms: C_8  and  C_9
REMARK   10  A    between atoms: C_8  and  C_10
REMARK                            x       y       z     vdW  Elec       q    Type
REMARK                         _______ _______ _______ _____ _____    ______ ____
ROOT
ATOM      1  O   LIG A   1      -9.080   6.602 132.299  0.00  0.00    -0.488 OA
ENDROOT
BRANCH   1   2
ATOM      2  C   LIG A   1      -9.947   6.677 131.238  0.00  0.00    +0.124 A 
ATOM      3  C   LIG A   1      -9.616   7.116 129.958  0.00  0.00    +0.092 A 
ATOM      4  C   LIG A   1     -10.599   7.148 128.967  0.00  0.00    +0.142 A 
ATOM      5  C   LIG A   1     -11.915   6.766 129.217  0.00  0.00    +0.018 A 
ATOM      6  C   LIG A   1     -12.251   6.342 130.503  0.00  0.00    +0.015 A 
ATOM      7  C   LIG A   1     -11.271   6.306 131.507  0.00  0.00    +0.046 A 
ATOM      8  C   LIG A   1     -12.883   6.836 128.134  0.00  0.00    +0.018 A 
ATOM      9  C   LIG A   1     -12.491   7.256 126.926  0.00  0.00    +0.092 A 
ATOM     10  C   LIG A   1     -11.102   7.654 126.634  0.00  0.00    +0.337 A 
ATOM     11  O   LIG A   1     -10.778   8.020 125.519  0.00  0.00    -0.245 OA
ATOM     12  O   LIG A   1     -10.201   7.591 127.691  0.00  0.00    -0.422 OA
ENDBRANCH   1   2
BRANCH   1  13
ATOM     13  C   LIG A   1      -8.028   5.637 132.180  0.00  0.00    +0.257 C 
BRANCH  13  14
ATOM     14  C   LIG A   1      -6.812   6.305 131.594  0.00  0.00    +0.012 C 
ATOM     15  C   LIG A   1      -5.543   6.316 132.063  0.00  0.00    -0.071 C 
ATOM     16  C   LIG A   1      -5.066   5.541 133.266  0.00  0.00    +0.039 C 
BRANCH  15  17
ATOM     17  C   LIG A   1      -4.466   7.132 131.351  0.00  0.00    +0.065 C 
BRANCH  17  18
ATOM     18  C   LIG A   1      -3.052   6.493 131.337  0.00  0.00    +0.141 C 
BRANCH  18  19
ATOM     19  C   LIG A   1      -2.690   6.009 129.951  0.00  0.00    +0.003 C 
ATOM     20  C   LIG A   1      -2.997   4.844 129.343  0.00  0.00    -0.077 C 
ATOM     21  C   LIG A   1      -3.795   3.715 129.932  0.00  0.00    +0.038 C 
ATOM     22  C   LIG A   1      -2.569   4.591 127.918  0.00  0.00    +0.038 C 
ENDBRANCH  18  19
BRANCH  18  23
ATOM     23  O   LIG A   1      -2.058   7.453 131.717  0.00  0.00    -0.387 OA
ATOM     24  H   LIG A   1      -2.287   7.791 132.597  0.00  0.00    +0.210 HD
ENDBRANCH  18  23
ENDBRANCH  17  18
ENDBRANCH  15  17
ENDBRANCH  13  14
ENDBRANCH   1  13
TORSDOF 7
ENDMDL
MODEL 5
REMARK VINA RESULT:      -7.0      9.260     11.913
REMARK  Name = NuBBE_1619
REMARK  10 active torsions:
REMARK  status: ('A' for Active; 'I' for Inactive)
REMARK    1  A    between atoms: O_1  and  C_2
REMARK    2  A    between atoms: O_1  and  C_13
REMARK    3  A    between atoms: C_2  and  C_3
REMARK    4  A    between atoms: C_4  and  C_5
REMARK    5  A    between atoms: C_4  and  C_12
REMARK    6  A    between atoms: C_5  and  C_6
REMARK    7  A    between atoms: C_6  and  C_7
REMARK    8  A    between atoms: C_6  and  O_11
REMARK    9  A    between atoms: C_8  and  C_9
REMARK   10  A    between atoms: C_8  and  C_10
REMARK                            x       y       z     vdW  Elec       q    Type
REMARK                         _______ _______ _______ _____ _____    ______ ____
ROOT
ATOM      1  O   LIG A   1      -8.997   6.463 132.462  0.00  0.00    -0.488 OA
ENDROOT
BRANCH   1   2
ATOM      2  C   LIG A   1      -9.882   6.600 131.422  0.00  0.00    +0.124 A 
ATOM      3  C   LIG A   1      -9.549   7.002 130.129  0.00  0.00    +0.092 A 
ATOM      4  C   LIG A   1     -10.552   7.106 129.163  0.00  0.00    +0.142 A 
ATOM      5  C   LIG A   1     -11.887   6.834 129.449  0.00  0.00    +0.018 A 
ATOM      6  C   LIG A   1     -12.223   6.449 130.747  0.00  0.00    +0.015 A 
ATOM      7  C   LIG A   1     -11.224   6.340 131.727  0.00  0.00    +0.046 A 
ATOM      8  C   LIG A   1     -12.874   6.975 128.390  0.00  0.00    +0.018 A 
ATOM      9  C   LIG A   1     -12.480   7.352 127.169  0.00  0.00    +0.092 A 
ATOM     10  C   LIG A   1     -11.071   7.635 126.839  0.00  0.00    +0.337 A 
ATOM     11  O   LIG A   1     -10.747   7.965 125.712  0.00  0.00    -0.245 OA
ATOM     12  O   LIG A   1     -10.151   7.506 127.873  0.00  0.00    -0.422 OA
ENDBRANCH   1   2
BRANCH   1  13
ATOM     13  C   LIG A   1      -8.814   5.130 132.954  0.00  0.00    +0.257 C 
BRANCH  13  14
ATOM     14  C   LIG A   1      -8.298   5.193 134.367  0.00  0.00    +0.012 C 
ATOM     15  C   LIG A   1      -7.038   5.429 134.799  0.00  0.00    -0.071 C 
ATOM     16  C   LIG A   1      -5.878   5.790 133.906  0.00  0.00    +0.039 C 
BRANCH  15  17
ATOM     17  C   LIG A   1      -6.710   5.366 136.290  0.00  0.00    +0.065 C 
BRANCH  17  18
ATOM     18  C   LIG A   1      -6.742   6.727 137.033  0.00  0.00    +0.141 C 
BRANCH  18  19
ATOM     19  C   LIG A   1      -8.161   7.221 137.200  0.00  0.00    +0.003 C 
ATOM     20  C   LIG A   1      -8.607   8.456 137.512  0.00  0.00    -0.077 C 
ATOM     21  C   LIG A   1      -7.759   9.667 137.782  0.00  0.00    +0.038 C 
ATOM     22  C   LIG A   1     -10.088   8.739 137.574  0.00  0.00    +0.038 C 
ENDBRANCH  18  19
BRANCH  18  23
ATOM     23  O   LIG A   1      -6.188   6.600 138.348  0.00  0.00    -0.387 OA
ATOM     24  H   LIG A   1      -6.917   6.649 138.988  0.00  0.00    +0.210 HD
ENDBRANCH  18  23
ENDBRANCH  17  18
ENDBRANCH  15  17
ENDBRANCH  13  14
ENDBRANCH   1  13
TORSDOF 7
ENDMDL
MODEL 6
REMARK VINA RESULT:      -7.0      4.505      8.842
REMARK  Name = NuBBE_1619
REMARK  10 active torsions:
REMARK  status: ('A' for Active; 'I' for Inactive)
REMARK    1  A    between atoms: O_1  and  C_2
REMARK    2  A    between atoms: O_1  and  C_13
REMARK    3  A    between atoms: C_2  and  C_3
REMARK    4  A    between atoms: C_4  and  C_5
REMARK    5  A    between atoms: C_4  and  C_12
REMARK    6  A    between atoms: C_5  and  C_6
REMARK    7  A    between atoms: C_6  and  C_7
REMARK    8  A    between atoms: C_6  and  O_11
REMARK    9  A    between atoms: C_8  and  C_9
REMARK   10  A    between atoms: C_8  and  C_10
REMARK                            x       y       z     vdW  Elec       q    Type
REMARK                         _______ _______ _______ _____ _____    ______ ____
ROOT
ATOM      1  O   LIG A   1      -6.165  -2.409 128.784  0.00  0.00    -0.488 OA
ENDROOT
BRANCH   1   2
ATOM      2  C   LIG A   1      -6.206  -2.992 130.025  0.00  0.00    +0.124 A 
ATOM      3  C   LIG A   1      -6.979  -2.552 131.098  0.00  0.00    +0.092 A 
ATOM      4  C   LIG A   1      -6.922  -3.238 132.312  0.00  0.00    +0.142 A 
ATOM      5  C   LIG A   1      -6.104  -4.348 132.498  0.00  0.00    +0.018 A 
ATOM      6  C   LIG A   1      -5.317  -4.780 131.431  0.00  0.00    +0.015 A 
ATOM      7  C   LIG A   1      -5.365  -4.099 130.205  0.00  0.00    +0.046 A 
ATOM      8  C   LIG A   1      -6.094  -5.003 133.798  0.00  0.00    +0.018 A 
ATOM      9  C   LIG A   1      -6.873  -4.532 134.778  0.00  0.00    +0.092 A 
ATOM     10  C   LIG A   1      -7.756  -3.365 134.602  0.00  0.00    +0.337 A 
ATOM     11  O   LIG A   1      -8.461  -2.971 135.514  0.00  0.00    -0.245 OA
ATOM     12  O   LIG A   1      -7.736  -2.751 133.355  0.00  0.00    -0.422 OA
ENDBRANCH   1   2
BRANCH   1  13
ATOM     13  C   LIG A   1      -7.222  -1.486 128.493  0.00  0.00    +0.257 C 
BRANCH  13  14
ATOM     14  C   LIG A   1      -7.926  -1.923 127.236  0.00  0.00    +0.012 C 
ATOM     15  C   LIG A   1      -8.669  -3.034 127.024  0.00  0.00    -0.071 C 
ATOM     16  C   LIG A   1      -9.031  -4.041 128.087  0.00  0.00    +0.039 C 
BRANCH  15  17
ATOM     17  C   LIG A   1      -9.231  -3.331 125.634  0.00  0.00    +0.065 C 
BRANCH  17  18
ATOM     18  C   LIG A   1      -8.419  -2.741 124.452  0.00  0.00    +0.141 C 
BRANCH  18  19
ATOM     19  C   LIG A   1      -7.198  -3.583 124.159  0.00  0.00    +0.003 C 
ATOM     20  C   LIG A   1      -5.893  -3.241 124.197  0.00  0.00    -0.077 C 
ATOM     21  C   LIG A   1      -5.336  -1.889 124.546  0.00  0.00    +0.038 C 
ATOM     22  C   LIG A   1      -4.826  -4.270 123.914  0.00  0.00    +0.038 C 
ENDBRANCH  18  19
BRANCH  18  23
ATOM     23  O   LIG A   1      -9.208  -2.720 123.256  0.00  0.00    -0.387 OA
ATOM     24  H   LIG A   1      -9.925  -3.366 123.357  0.00  0.00    +0.210 HD
ENDBRANCH  18  23
ENDBRANCH  17  18
ENDBRANCH  15  17
ENDBRANCH  13  14
ENDBRANCH   1  13
TORSDOF 7
ENDMDL
MODEL 7
REMARK VINA RESULT:      -6.8      3.266      4.539
REMARK  Name = NuBBE_1619
REMARK  10 active torsions:
REMARK  status: ('A' for Active; 'I' for Inactive)
REMARK    1  A    between atoms: O_1  and  C_2
REMARK    2  A    between atoms: O_1  and  C_13
REMARK    3  A    between atoms: C_2  and  C_3
REMARK    4  A    between atoms: C_4  and  C_5
REMARK    5  A    between atoms: C_4  and  C_12
REMARK    6  A    between atoms: C_5  and  C_6
REMARK    7  A    between atoms: C_6  and  C_7
REMARK    8  A    between atoms: C_6  and  O_11
REMARK    9  A    between atoms: C_8  and  C_9
REMARK   10  A    between atoms: C_8  and  C_10
REMARK                            x       y       z     vdW  Elec       q    Type
REMARK                         _______ _______ _______ _____ _____    ______ ____
ROOT
ATOM      1  O   LIG A   1      -7.240   1.478 126.436  0.00  0.00    -0.488 OA
ENDROOT
BRANCH   1   2
ATOM      2  C   LIG A   1      -6.134   2.242 126.711  0.00  0.00    +0.124 A 
ATOM      3  C   LIG A   1      -6.157   3.538 127.223  0.00  0.00    +0.092 A 
ATOM      4  C   LIG A   1      -4.953   4.207 127.452  0.00  0.00    +0.142 A 
ATOM      5  C   LIG A   1      -3.719   3.627 127.172  0.00  0.00    +0.018 A 
ATOM      6  C   LIG A   1      -3.696   2.337 126.644  0.00  0.00    +0.015 A 
ATOM      7  C   LIG A   1      -4.899   1.654 126.409  0.00  0.00    +0.046 A 
ATOM      8  C   LIG A   1      -2.509   4.394 127.430  0.00  0.00    +0.018 A 
ATOM      9  C   LIG A   1      -2.607   5.628 127.936  0.00  0.00    +0.092 A 
ATOM     10  C   LIG A   1      -3.902   6.259 128.251  0.00  0.00    +0.337 A 
ATOM     11  O   LIG A   1      -3.952   7.381 128.722  0.00  0.00    -0.245 OA
ATOM     12  O   LIG A   1      -5.042   5.510 127.982  0.00  0.00    -0.422 OA
ENDBRANCH   1   2
BRANCH   1  13
ATOM     13  C   LIG A   1      -7.408   0.308 127.245  0.00  0.00    +0.257 C 
BRANCH  13  14
ATOM     14  C   LIG A   1      -8.300  -0.667 126.523  0.00  0.00    +0.012 C 
ATOM     15  C   LIG A   1      -8.535  -1.969 126.806  0.00  0.00    -0.071 C 
ATOM     16  C   LIG A   1      -8.001  -2.695 128.015  0.00  0.00    +0.039 C 
BRANCH  15  17
ATOM     17  C   LIG A   1      -9.420  -2.809 125.886  0.00  0.00    +0.065 C 
BRANCH  17  18
ATOM     18  C   LIG A   1      -9.004  -2.813 124.391  0.00  0.00    +0.141 C 
BRANCH  18  19
ATOM     19  C   LIG A   1      -7.681  -3.520 124.199  0.00  0.00    +0.003 C 
ATOM     20  C   LIG A   1      -6.461  -3.000 123.949  0.00  0.00    -0.077 C 
ATOM     21  C   LIG A   1      -6.128  -1.543 123.793  0.00  0.00    +0.038 C 
ATOM     22  C   LIG A   1      -5.255  -3.902 123.844  0.00  0.00    +0.038 C 
ENDBRANCH  18  19
BRANCH  18  23
ATOM     23  O   LIG A   1      -9.970  -3.514 123.598  0.00  0.00    -0.387 OA
ATOM     24  H   LIG A   1     -10.546  -2.857 123.176  0.00  0.00    +0.210 HD
ENDBRANCH  18  23
ENDBRANCH  17  18
ENDBRANCH  15  17
ENDBRANCH  13  14
ENDBRANCH   1  13
TORSDOF 7
ENDMDL
MODEL 8
REMARK VINA RESULT:      -6.8      8.701     10.196
REMARK  Name = NuBBE_1619
REMARK  10 active torsions:
REMARK  status: ('A' for Active; 'I' for Inactive)
REMARK    1  A    between atoms: O_1  and  C_2
REMARK    2  A    between atoms: O_1  and  C_13
REMARK    3  A    between atoms: C_2  and  C_3
REMARK    4  A    between atoms: C_4  and  C_5
REMARK    5  A    between atoms: C_4  and  C_12
REMARK    6  A    between atoms: C_5  and  C_6
REMARK    7  A    between atoms: C_6  and  C_7
REMARK    8  A    between atoms: C_6  and  O_11
REMARK    9  A    between atoms: C_8  and  C_9
REMARK   10  A    between atoms: C_8  and  C_10
REMARK                            x       y       z     vdW  Elec       q    Type
REMARK                         _______ _______ _______ _____ _____    ______ ____
ROOT
ATOM      1  O   LIG A   1      -9.190   6.507 132.331  0.00  0.00    -0.488 OA
ENDROOT
BRANCH   1   2
ATOM      2  C   LIG A   1     -10.044   6.630 131.263  0.00  0.00    +0.124 A 
ATOM      3  C   LIG A   1      -9.676   7.026 129.979  0.00  0.00    +0.092 A 
ATOM      4  C   LIG A   1     -10.649   7.116 128.982  0.00  0.00    +0.142 A 
ATOM      5  C   LIG A   1     -11.990   6.835 129.230  0.00  0.00    +0.018 A 
ATOM      6  C   LIG A   1     -12.362   6.455 130.519  0.00  0.00    +0.015 A 
ATOM      7  C   LIG A   1     -11.393   6.361 131.529  0.00  0.00    +0.046 A 
ATOM      8  C   LIG A   1     -12.946   6.961 128.140  0.00  0.00    +0.018 A 
ATOM      9  C   LIG A   1     -12.518   7.333 126.929  0.00  0.00    +0.092 A 
ATOM     10  C   LIG A   1     -11.102   7.625 126.639  0.00  0.00    +0.337 A 
ATOM     11  O   LIG A   1     -10.747   7.950 125.521  0.00  0.00    -0.245 OA
ATOM     12  O   LIG A   1     -10.213   7.510 127.702  0.00  0.00    -0.422 OA
ENDBRANCH   1   2
BRANCH   1  13
ATOM     13  C   LIG A   1      -8.491   5.261 132.430  0.00  0.00    +0.257 C 
BRANCH  13  14
ATOM     14  C   LIG A   1      -7.196   5.480 133.167  0.00  0.00    +0.012 C 
ATOM     15  C   LIG A   1      -6.047   6.033 132.714  0.00  0.00    -0.071 C 
ATOM     16  C   LIG A   1      -5.872   6.656 131.352  0.00  0.00    +0.039 C 
BRANCH  15  17
ATOM     17  C   LIG A   1      -4.811   6.085 133.612  0.00  0.00    +0.065 C 
BRANCH  17  18
ATOM     18  C   LIG A   1      -3.687   5.079 133.248  0.00  0.00    +0.141 C 
BRANCH  18  19
ATOM     19  C   LIG A   1      -2.333   5.752 133.262  0.00  0.00    +0.003 C 
ATOM     20  C   LIG A   1      -1.648   6.319 132.247  0.00  0.00    -0.077 C 
ATOM     21  C   LIG A   1      -2.090   6.409 130.814  0.00  0.00    +0.038 C 
ATOM     22  C   LIG A   1      -0.319   6.987 132.504  0.00  0.00    +0.038 C 
ENDBRANCH  18  19
BRANCH  18  23
ATOM     23  O   LIG A   1      -3.633   4.012 134.203  0.00  0.00    -0.387 OA
ATOM     24  H   LIG A   1      -3.976   4.346 135.047  0.00  0.00    +0.210 HD
ENDBRANCH  18  23
ENDBRANCH  17  18
ENDBRANCH  15  17
ENDBRANCH  13  14
ENDBRANCH   1  13
TORSDOF 7
ENDMDL
MODEL 9
REMARK VINA RESULT:      -6.8      2.568      4.958
REMARK  Name = NuBBE_1619
REMARK  10 active torsions:
REMARK  status: ('A' for Active; 'I' for Inactive)
REMARK    1  A    between atoms: O_1  and  C_2
REMARK    2  A    between atoms: O_1  and  C_13
REMARK    3  A    between atoms: C_2  and  C_3
REMARK    4  A    between atoms: C_4  and  C_5
REMARK    5  A    between atoms: C_4  and  C_12
REMARK    6  A    between atoms: C_5  and  C_6
REMARK    7  A    between atoms: C_6  and  C_7
REMARK    8  A    between atoms: C_6  and  O_11
REMARK    9  A    between atoms: C_8  and  C_9
REMARK   10  A    between atoms: C_8  and  C_10
REMARK                            x       y       z     vdW  Elec       q    Type
REMARK                         _______ _______ _______ _____ _____    ______ ____
ROOT
ATOM      1  O   LIG A   1      -9.672  -2.101 124.962  0.00  0.00    -0.488 OA
ENDROOT
BRANCH   1   2
ATOM      2  C   LIG A   1      -8.977  -0.935 124.760  0.00  0.00    +0.124 A 
ATOM      3  C   LIG A   1      -9.368   0.324 125.213  0.00  0.00    +0.092 A 
ATOM      4  C   LIG A   1      -8.568   1.433 124.932  0.00  0.00    +0.142 A 
ATOM      5  C   LIG A   1      -7.390   1.329 124.198  0.00  0.00    +0.018 A 
ATOM      6  C   LIG A   1      -7.007   0.073 123.730  0.00  0.00    +0.015 A 
ATOM      7  C   LIG A   1      -7.803  -1.050 124.005  0.00  0.00    +0.046 A 
ATOM      8  C   LIG A   1      -6.616   2.534 123.940  0.00  0.00    +0.018 A 
ATOM      9  C   LIG A   1      -7.045   3.707 124.417  0.00  0.00    +0.092 A 
ATOM     10  C   LIG A   1      -8.283   3.840 125.207  0.00  0.00    +0.337 A 
ATOM     11  O   LIG A   1      -8.637   4.923 125.636  0.00  0.00    -0.245 OA
ATOM     12  O   LIG A   1      -9.010   2.676 125.427  0.00  0.00    -0.422 OA
ENDBRANCH   1   2
BRANCH   1  13
ATOM     13  C   LIG A   1      -8.889  -3.233 125.360  0.00  0.00    +0.257 C 
BRANCH  13  14
ATOM     14  C   LIG A   1      -8.913  -3.346 126.862  0.00  0.00    +0.012 C 
ATOM     15  C   LIG A   1      -7.981  -2.946 127.756  0.00  0.00    -0.071 C 
ATOM     16  C   LIG A   1      -6.726  -2.185 127.407  0.00  0.00    +0.039 C 
BRANCH  15  17
ATOM     17  C   LIG A   1      -8.168  -3.234 129.245  0.00  0.00    +0.065 C 
BRANCH  17  18
ATOM     18  C   LIG A   1      -7.211  -2.464 130.193  0.00  0.00    +0.141 C 
BRANCH  18  19
ATOM     19  C   LIG A   1      -7.972  -1.471 131.042  0.00  0.00    +0.003 C 
ATOM     20  C   LIG A   1      -8.301  -0.189 130.773  0.00  0.00    -0.077 C 
ATOM     21  C   LIG A   1      -7.964   0.573 129.523  0.00  0.00    +0.038 C 
ATOM     22  C   LIG A   1      -9.120   0.610 131.757  0.00  0.00    +0.038 C 
ENDBRANCH  18  19
BRANCH  18  23
ATOM     23  O   LIG A   1      -6.557  -3.366 131.094  0.00  0.00    -0.387 OA
ATOM     24  H   LIG A   1      -7.167  -3.558 131.824  0.00  0.00    +0.210 HD
ENDBRANCH  18  23
ENDBRANCH  17  18
ENDBRANCH  15  17
ENDBRANCH  13  14
ENDBRANCH   1  13
TORSDOF 7
ENDMDL
