MODEL 1
REMARK VINA RESULT:      -6.7      0.000      0.000
REMARK  Name = NuBBE_1529
REMARK  3 active torsions:
REMARK  status: ('A' for Active; 'I' for Inactive)
REMARK    1  A    between atoms: C_1  and  C_2
REMARK    2  A    between atoms: C_4  and  C_5
REMARK    3  A    between atoms: C_13  and  C_15
REMARK                            x       y       z     vdW  Elec       q    Type
REMARK                         _______ _______ _______ _____ _____    ______ ____
ROOT
ATOM      1  C   LIG A   1      -5.498  -2.885 123.471  0.00  0.00    +0.020 C 
ATOM      2  C   LIG A   1      -6.375  -1.852 124.228  0.00  0.00    +0.042 C 
ATOM      3  C   LIG A   1      -7.569  -2.548 124.807  0.00  0.00    +0.052 C 
ATOM      4  C   LIG A   1      -7.839  -2.782 126.099  0.00  0.00    +0.003 C 
ATOM      5  C   LIG A   1      -9.019  -3.480 126.697  0.00  0.00    +0.048 C 
ATOM      6  C   LIG A   1      -6.900  -2.149 127.074  0.00  0.00    +0.160 C 
ATOM      7  O   LIG A   1      -6.838  -2.545 128.234  0.00  0.00    -0.292 OA
ATOM      8  C   LIG A   1      -6.155  -0.913 126.609  0.00  0.00    +0.080 C 
ATOM      9  C   LIG A   1      -5.477  -1.156 125.269  0.00  0.00    +0.023 C 
ATOM     10  C   LIG A   1      -8.517  -2.739 123.683  0.00  0.00    +0.337 C 
ATOM     11  O   LIG A   1      -9.420  -3.546 123.604  0.00  0.00    -0.245 OA
ATOM     12  O   LIG A   1      -8.184  -1.821 122.727  0.00  0.00    -0.452 OA
ATOM     13  C   LIG A   1      -7.109  -0.975 123.199  0.00  0.00    +0.220 C 
ENDROOT
BRANCH  13  14
ATOM     14  C   LIG A   1      -7.629   0.346 123.689  0.00  0.00    +0.031 A 
ATOM     15  C   LIG A   1      -8.811   0.613 124.444  0.00  0.00    +0.048 A 
ATOM     16  C   LIG A   1      -8.851   1.973 124.646  0.00  0.00    +0.195 A 
ATOM     17  O   LIG A   1      -7.784   2.568 124.059  0.00  0.00    -0.471 OA
ATOM     18  C   LIG A   1      -7.058   1.586 123.470  0.00  0.00    +0.202 A 
ENDBRANCH  13  14
TORSDOF 1
ENDMDL
MODEL 2
REMARK VINA RESULT:      -6.5      1.672      3.045
REMARK  Name = NuBBE_1529
REMARK  3 active torsions:
REMARK  status: ('A' for Active; 'I' for Inactive)
REMARK    1  A    between atoms: C_1  and  C_2
REMARK    2  A    between atoms: C_4  and  C_5
REMARK    3  A    between atoms: C_13  and  C_15
REMARK                            x       y       z     vdW  Elec       q    Type
REMARK                         _______ _______ _______ _____ _____    ______ ____
ROOT
ATOM      1  C   LIG A   1      -9.520  -3.388 123.750  0.00  0.00    +0.020 C 
ATOM      2  C   LIG A   1      -8.583  -2.152 123.753  0.00  0.00    +0.042 C 
ATOM      3  C   LIG A   1      -7.687  -2.213 124.954  0.00  0.00    +0.052 C 
ATOM      4  C   LIG A   1      -6.364  -2.430 124.984  0.00  0.00    +0.003 C 
ATOM      5  C   LIG A   1      -5.455  -2.502 126.169  0.00  0.00    +0.048 C 
ATOM      6  C   LIG A   1      -5.693  -2.476 123.649  0.00  0.00    +0.160 C 
ATOM      7  O   LIG A   1      -4.582  -2.984 123.523  0.00  0.00    -0.292 OA
ATOM      8  C   LIG A   1      -6.372  -1.740 122.511  0.00  0.00    +0.080 C 
ATOM      9  C   LIG A   1      -7.838  -2.132 122.404  0.00  0.00    +0.023 C 
ATOM     10  C   LIG A   1      -8.511  -1.766 126.102  0.00  0.00    +0.337 C 
ATOM     11  O   LIG A   1      -8.325  -1.991 127.280  0.00  0.00    -0.245 OA
ATOM     12  O   LIG A   1      -9.544  -1.036 125.586  0.00  0.00    -0.452 OA
ATOM     13  C   LIG A   1      -9.398  -0.909 124.151  0.00  0.00    +0.220 C 
ENDROOT
BRANCH  13  14
ATOM     14  C   LIG A   1      -8.821   0.425 123.776  0.00  0.00    +0.031 A 
ATOM     15  C   LIG A   1      -7.647   1.061 124.282  0.00  0.00    +0.048 A 
ATOM     16  C   LIG A   1      -7.539   2.266 123.629  0.00  0.00    +0.195 A 
ATOM     17  O   LIG A   1      -8.569   2.427 122.763  0.00  0.00    -0.471 OA
ATOM     18  C   LIG A   1      -9.348   1.321 122.866  0.00  0.00    +0.202 A 
ENDBRANCH  13  14
TORSDOF 1
ENDMDL
MODEL 3
REMARK VINA RESULT:      -6.2      1.779      4.315
REMARK  Name = NuBBE_1529
REMARK  3 active torsions:
REMARK  status: ('A' for Active; 'I' for Inactive)
REMARK    1  A    between atoms: C_1  and  C_2
REMARK    2  A    between atoms: C_4  and  C_5
REMARK    3  A    between atoms: C_13  and  C_15
REMARK                            x       y       z     vdW  Elec       q    Type
REMARK                         _______ _______ _______ _____ _____    ______ ____
ROOT
ATOM      1  C   LIG A   1      -6.463   1.165 125.448  0.00  0.00    +0.020 C 
ATOM      2  C   LIG A   1      -6.832  -0.330 125.642  0.00  0.00    +0.042 C 
ATOM      3  C   LIG A   1      -7.599  -0.808 124.446  0.00  0.00    +0.052 C 
ATOM      4  C   LIG A   1      -7.201  -1.679 123.507  0.00  0.00    +0.003 C 
ATOM      5  C   LIG A   1      -7.946  -2.164 122.304  0.00  0.00    +0.048 C 
ATOM      6  C   LIG A   1      -5.891  -2.349 123.770  0.00  0.00    +0.160 C 
ATOM      7  O   LIG A   1      -5.272  -2.897 122.862  0.00  0.00    -0.292 OA
ATOM      8  C   LIG A   1      -5.449  -2.452 125.217  0.00  0.00    +0.080 C 
ATOM      9  C   LIG A   1      -5.525  -1.099 125.909  0.00  0.00    +0.023 C 
ATOM     10  C   LIG A   1      -8.981  -0.300 124.615  0.00  0.00    +0.337 C 
ATOM     11  O   LIG A   1      -9.822  -0.136 123.755  0.00  0.00    -0.245 OA
ATOM     12  O   LIG A   1      -9.146  -0.042 125.947  0.00  0.00    -0.452 OA
ATOM     13  C   LIG A   1      -7.961  -0.433 126.682  0.00  0.00    +0.220 C 
ENDROOT
BRANCH  13  14
ATOM     14  C   LIG A   1      -8.146  -1.766 127.347  0.00  0.00    +0.031 A 
ATOM     15  C   LIG A   1      -8.827  -2.920 126.854  0.00  0.00    +0.048 A 
ATOM     16  C   LIG A   1      -8.722  -3.885 127.827  0.00  0.00    +0.195 A 
ATOM     17  O   LIG A   1      -8.034  -3.408 128.892  0.00  0.00    -0.471 OA
ATOM     18  C   LIG A   1      -7.702  -2.125 128.605  0.00  0.00    +0.202 A 
ENDBRANCH  13  14
TORSDOF 1
ENDMDL
MODEL 4
REMARK VINA RESULT:      -6.2      2.020      4.111
REMARK  Name = NuBBE_1529
REMARK  3 active torsions:
REMARK  status: ('A' for Active; 'I' for Inactive)
REMARK    1  A    between atoms: C_1  and  C_2
REMARK    2  A    between atoms: C_4  and  C_5
REMARK    3  A    between atoms: C_13  and  C_15
REMARK                            x       y       z     vdW  Elec       q    Type
REMARK                         _______ _______ _______ _____ _____    ______ ____
ROOT
ATOM      1  C   LIG A   1      -9.048   0.588 126.374  0.00  0.00    +0.020 C 
ATOM      2  C   LIG A   1      -8.219  -0.658 125.967  0.00  0.00    +0.042 C 
ATOM      3  C   LIG A   1      -7.474  -1.169 127.164  0.00  0.00    +0.052 C 
ATOM      4  C   LIG A   1      -7.684  -2.309 127.838  0.00  0.00    +0.003 C 
ATOM      5  C   LIG A   1      -6.960  -2.833 129.037  0.00  0.00    +0.048 C 
ATOM      6  C   LIG A   1      -8.689  -3.235 127.233  0.00  0.00    +0.160 C 
ATOM      7  O   LIG A   1      -9.203  -4.127 127.902  0.00  0.00    -0.292 OA
ATOM      8  C   LIG A   1      -8.921  -3.119 125.739  0.00  0.00    +0.080 C 
ATOM      9  C   LIG A   1      -9.190  -1.676 125.339  0.00  0.00    +0.023 C 
ATOM     10  C   LIG A   1      -6.305  -0.273 127.332  0.00  0.00    +0.337 C 
ATOM     11  O   LIG A   1      -5.653  -0.088 128.339  0.00  0.00    -0.245 OA
ATOM     12  O   LIG A   1      -6.086   0.321 126.121  0.00  0.00    -0.452 OA
ATOM     13  C   LIG A   1      -7.008  -0.201 125.135  0.00  0.00    +0.220 C 
ENDROOT
BRANCH  13  14
ATOM     14  C   LIG A   1      -6.353  -1.239 124.271  0.00  0.00    +0.031 A 
ATOM     15  C   LIG A   1      -5.435  -2.264 124.652  0.00  0.00    +0.048 A 
ATOM     16  C   LIG A   1      -5.121  -2.958 123.507  0.00  0.00    +0.195 A 
ATOM     17  O   LIG A   1      -5.770  -2.428 122.442  0.00  0.00    -0.471 OA
ATOM     18  C   LIG A   1      -6.500  -1.383 122.904  0.00  0.00    +0.202 A 
ENDBRANCH  13  14
TORSDOF 1
ENDMDL
MODEL 5
REMARK VINA RESULT:      -5.8      1.920      4.645
REMARK  Name = NuBBE_1529
REMARK  3 active torsions:
REMARK  status: ('A' for Active; 'I' for Inactive)
REMARK    1  A    between atoms: C_1  and  C_2
REMARK    2  A    between atoms: C_4  and  C_5
REMARK    3  A    between atoms: C_13  and  C_15
REMARK                            x       y       z     vdW  Elec       q    Type
REMARK                         _______ _______ _______ _____ _____    ______ ____
ROOT
ATOM      1  C   LIG A   1      -6.516   0.444 124.873  0.00  0.00    +0.020 C 
ATOM      2  C   LIG A   1      -6.554  -1.052 124.461  0.00  0.00    +0.042 C 
ATOM      3  C   LIG A   1      -7.541  -1.778 125.325  0.00  0.00    +0.052 C 
ATOM      4  C   LIG A   1      -8.722  -2.299 124.966  0.00  0.00    +0.003 C 
ATOM      5  C   LIG A   1      -9.723  -3.019 125.812  0.00  0.00    +0.048 C 
ATOM      6  C   LIG A   1      -9.016  -2.267 123.501  0.00  0.00    +0.160 C 
ATOM      7  O   LIG A   1     -10.165  -2.401 123.088  0.00  0.00    -0.292 OA
ATOM      8  C   LIG A   1      -7.828  -2.220 122.561  0.00  0.00    +0.080 C 
ATOM      9  C   LIG A   1      -6.865  -1.109 122.953  0.00  0.00    +0.023 C 
ATOM     10  C   LIG A   1      -6.858  -2.007 126.621  0.00  0.00    +0.337 C 
ATOM     11  O   LIG A   1      -7.371  -2.225 127.700  0.00  0.00    -0.245 OA
ATOM     12  O   LIG A   1      -5.516  -1.930 126.379  0.00  0.00    -0.452 OA
ATOM     13  C   LIG A   1      -5.273  -1.739 124.965  0.00  0.00    +0.220 C 
ENDROOT
BRANCH  13  14
ATOM     14  C   LIG A   1      -4.893  -3.029 124.297  0.00  0.00    +0.031 A 
ATOM     15  C   LIG A   1      -5.515  -4.309 124.414  0.00  0.00    +0.048 A 
ATOM     16  C   LIG A   1      -4.803  -5.168 123.611  0.00  0.00    +0.195 A 
ATOM     17  O   LIG A   1      -3.776  -4.514 123.015  0.00  0.00    -0.471 OA
ATOM     18  C   LIG A   1      -3.826  -3.229 123.443  0.00  0.00    +0.202 A 
ENDBRANCH  13  14
TORSDOF 1
ENDMDL
MODEL 6
REMARK VINA RESULT:      -5.8      2.165      4.796
REMARK  Name = NuBBE_1529
REMARK  3 active torsions:
REMARK  status: ('A' for Active; 'I' for Inactive)
REMARK    1  A    between atoms: C_1  and  C_2
REMARK    2  A    between atoms: C_4  and  C_5
REMARK    3  A    between atoms: C_13  and  C_15
REMARK                            x       y       z     vdW  Elec       q    Type
REMARK                         _______ _______ _______ _____ _____    ______ ____
ROOT
ATOM      1  C   LIG A   1      -9.114   1.147 126.539  0.00  0.00    +0.020 C 
ATOM      2  C   LIG A   1      -8.142   0.778 125.386  0.00  0.00    +0.042 C 
ATOM      3  C   LIG A   1      -8.649   1.369 124.105  0.00  0.00    +0.052 C 
ATOM      4  C   LIG A   1      -8.113   2.370 123.392  0.00  0.00    +0.003 C 
ATOM      5  C   LIG A   1      -8.605   2.979 122.118  0.00  0.00    +0.048 C 
ATOM      6  C   LIG A   1      -6.781   2.853 123.867  0.00  0.00    +0.160 C 
ATOM      7  O   LIG A   1      -6.350   3.949 123.520  0.00  0.00    -0.292 OA
ATOM      8  C   LIG A   1      -5.936   1.873 124.658  0.00  0.00    +0.080 C 
ATOM      9  C   LIG A   1      -6.736   1.255 125.795  0.00  0.00    +0.023 C 
ATOM     10  C   LIG A   1      -9.747   0.482 123.651  0.00  0.00    +0.337 C 
ATOM     11  O   LIG A   1     -10.652   0.754 122.889  0.00  0.00    -0.245 OA
ATOM     12  O   LIG A   1      -9.554  -0.726 124.258  0.00  0.00    -0.452 OA
ATOM     13  C   LIG A   1      -8.331  -0.707 125.033  0.00  0.00    +0.220 C 
ENDROOT
BRANCH  13  14
ATOM     14  C   LIG A   1      -7.207  -1.373 124.293  0.00  0.00    +0.031 A 
ATOM     15  C   LIG A   1      -6.091  -2.088 124.826  0.00  0.00    +0.048 A 
ATOM     16  C   LIG A   1      -5.342  -2.506 123.752  0.00  0.00    +0.195 A 
ATOM     17  O   LIG A   1      -5.908  -2.090 122.592  0.00  0.00    -0.471 OA
ATOM     18  C   LIG A   1      -7.023  -1.395 122.924  0.00  0.00    +0.202 A 
ENDBRANCH  13  14
TORSDOF 1
ENDMDL
MODEL 7
REMARK VINA RESULT:      -5.8      7.809      9.923
REMARK  Name = NuBBE_1529
REMARK  3 active torsions:
REMARK  status: ('A' for Active; 'I' for Inactive)
REMARK    1  A    between atoms: C_1  and  C_2
REMARK    2  A    between atoms: C_4  and  C_5
REMARK    3  A    between atoms: C_13  and  C_15
REMARK                            x       y       z     vdW  Elec       q    Type
REMARK                         _______ _______ _______ _____ _____    ______ ____
ROOT
ATOM      1  C   LIG A   1      -9.179   3.441 133.704  0.00  0.00    +0.020 C 
ATOM      2  C   LIG A   1      -9.177   4.198 132.350  0.00  0.00    +0.042 C 
ATOM      3  C   LIG A   1      -7.763   4.509 131.959  0.00  0.00    +0.052 C 
ATOM      4  C   LIG A   1      -7.054   3.985 130.949  0.00  0.00    +0.003 C 
ATOM      5  C   LIG A   1      -5.643   4.274 130.547  0.00  0.00    +0.048 C 
ATOM      6  C   LIG A   1      -7.819   3.090 130.028  0.00  0.00    +0.160 C 
ATOM      7  O   LIG A   1      -7.234   2.307 129.285  0.00  0.00    -0.292 OA
ATOM      8  C   LIG A   1      -9.317   3.304 129.946  0.00  0.00    +0.080 C 
ATOM      9  C   LIG A   1      -9.942   3.331 131.333  0.00  0.00    +0.023 C 
ATOM     10  C   LIG A   1      -7.361   5.680 132.775  0.00  0.00    +0.337 C 
ATOM     11  O   LIG A   1      -6.235   6.039 133.051  0.00  0.00    -0.245 OA
ATOM     12  O   LIG A   1      -8.513   6.300 133.169  0.00  0.00    -0.452 OA
ATOM     13  C   LIG A   1      -9.661   5.640 132.585  0.00  0.00    +0.220 C 
ENDROOT
BRANCH  13  14
ATOM     14  C   LIG A   1     -10.168   6.385 131.385  0.00  0.00    +0.031 A 
ATOM     15  C   LIG A   1      -9.419   7.071 130.381  0.00  0.00    +0.048 A 
ATOM     16  C   LIG A   1     -10.331   7.593 129.495  0.00  0.00    +0.195 A 
ATOM     17  O   LIG A   1     -11.593   7.289 129.885  0.00  0.00    -0.471 OA
ATOM     18  C   LIG A   1     -11.491   6.574 131.032  0.00  0.00    +0.202 A 
ENDBRANCH  13  14
TORSDOF 1
ENDMDL
MODEL 8
REMARK VINA RESULT:      -5.8      1.415      4.416
REMARK  Name = NuBBE_1529
REMARK  3 active torsions:
REMARK  status: ('A' for Active; 'I' for Inactive)
REMARK    1  A    between atoms: C_1  and  C_2
REMARK    2  A    between atoms: C_4  and  C_5
REMARK    3  A    between atoms: C_13  and  C_15
REMARK                            x       y       z     vdW  Elec       q    Type
REMARK                         _______ _______ _______ _____ _____    ______ ____
ROOT
ATOM      1  C   LIG A   1      -9.380  -3.126 123.640  0.00  0.00    +0.020 C 
ATOM      2  C   LIG A   1      -8.562  -2.214 124.591  0.00  0.00    +0.042 C 
ATOM      3  C   LIG A   1      -7.760  -1.244 123.777  0.00  0.00    +0.052 C 
ATOM      4  C   LIG A   1      -7.930   0.082 123.673  0.00  0.00    +0.003 C 
ATOM      5  C   LIG A   1      -7.147   1.065 122.862  0.00  0.00    +0.048 C 
ATOM      6  C   LIG A   1      -8.955   0.669 124.589  0.00  0.00    +0.160 C 
ATOM      7  O   LIG A   1      -9.431   1.779 124.369  0.00  0.00    -0.292 OA
ATOM      8  C   LIG A   1      -9.256  -0.093 125.864  0.00  0.00    +0.080 C 
ATOM      9  C   LIG A   1      -9.554  -1.555 125.569  0.00  0.00    +0.023 C 
ATOM     10  C   LIG A   1      -6.591  -2.003 123.271  0.00  0.00    +0.337 C 
ATOM     11  O   LIG A   1      -5.894  -1.739 122.313  0.00  0.00    -0.245 OA
ATOM     12  O   LIG A   1      -6.432  -3.079 124.098  0.00  0.00    -0.452 OA
ATOM     13  C   LIG A   1      -7.395  -3.026 125.178  0.00  0.00    +0.220 C 
ENDROOT
BRANCH  13  14
ATOM     14  C   LIG A   1      -6.772  -2.498 126.438  0.00  0.00    +0.031 A 
ATOM     15  C   LIG A   1      -5.583  -1.722 126.587  0.00  0.00    +0.048 A 
ATOM     16  C   LIG A   1      -5.430  -1.487 127.932  0.00  0.00    +0.195 A 
ATOM     17  O   LIG A   1      -6.435  -2.072 128.630  0.00  0.00    -0.471 OA
ATOM     18  C   LIG A   1      -7.233  -2.693 127.726  0.00  0.00    +0.202 A 
ENDBRANCH  13  14
TORSDOF 1
ENDMDL
MODEL 9
REMARK VINA RESULT:      -5.7      7.716      9.619
REMARK  Name = NuBBE_1529
REMARK  3 active torsions:
REMARK  status: ('A' for Active; 'I' for Inactive)
REMARK    1  A    between atoms: C_1  and  C_2
REMARK    2  A    between atoms: C_4  and  C_5
REMARK    3  A    between atoms: C_13  and  C_15
REMARK                            x       y       z     vdW  Elec       q    Type
REMARK                         _______ _______ _______ _____ _____    ______ ____
ROOT
ATOM      1  C   LIG A   1      -6.430   5.851 133.123  0.00  0.00    +0.020 C 
ATOM      2  C   LIG A   1      -7.742   5.275 132.528  0.00  0.00    +0.042 C 
ATOM      3  C   LIG A   1      -7.405   4.316 131.425  0.00  0.00    +0.052 C 
ATOM      4  C   LIG A   1      -7.558   2.984 131.418  0.00  0.00    +0.003 C 
ATOM      5  C   LIG A   1      -7.223   2.011 130.333  0.00  0.00    +0.048 C 
ATOM      6  C   LIG A   1      -8.277   2.416 132.599  0.00  0.00    +0.160 C 
ATOM      7  O   LIG A   1      -8.191   1.221 132.870  0.00  0.00    -0.292 OA
ATOM      8  C   LIG A   1      -9.224   3.339 133.338  0.00  0.00    +0.080 C 
ATOM      9  C   LIG A   1      -8.543   4.654 133.688  0.00  0.00    +0.023 C 
ATOM     10  C   LIG A   1      -7.072   5.150 130.246  0.00  0.00    +0.337 C 
ATOM     11  O   LIG A   1      -6.416   4.832 129.276  0.00  0.00    -0.245 OA
ATOM     12  O   LIG A   1      -7.650   6.371 130.450  0.00  0.00    -0.452 OA
ATOM     13  C   LIG A   1      -8.421   6.361 131.676  0.00  0.00    +0.220 C 
ENDROOT
BRANCH  13  14
ATOM     14  C   LIG A   1      -9.885   6.182 131.398  0.00  0.00    +0.031 A 
ATOM     15  C   LIG A   1     -10.514   5.704 130.208  0.00  0.00    +0.048 A 
ATOM     16  C   LIG A   1     -11.868   5.724 130.443  0.00  0.00    +0.195 A 
ATOM     17  O   LIG A   1     -12.124   6.192 131.689  0.00  0.00    -0.471 OA
ATOM     18  C   LIG A   1     -10.927   6.481 132.256  0.00  0.00    +0.202 A 
ENDBRANCH  13  14
TORSDOF 1
ENDMDL
