MODEL 1
REMARK VINA RESULT:      -7.3      0.000      0.000
REMARK  Name = NuBBE_2432
REMARK  5 active torsions:
REMARK  status: ('A' for Active; 'I' for Inactive)
REMARK    1  A    between atoms: O_1  and  C_2
REMARK    2  A    between atoms: O_1  and  C_3
REMARK    3  A    between atoms: C_7  and  C_12
REMARK    4  A    between atoms: C_19  and  O_21
REMARK    5  A    between atoms: O_21  and  C_22
REMARK                            x       y       z     vdW  Elec       q    Type
REMARK                         _______ _______ _______ _____ _____    ______ ____
ROOT
ATOM      1  C   LIG A   1      -8.749   0.638 126.226  0.00  0.00    +0.138 A 
ATOM      2  C   LIG A   1      -8.679   1.455 125.087  0.00  0.00    +0.101 A 
ATOM      3  C   LIG A   1      -8.818   0.892 123.815  0.00  0.00    +0.139 A 
ATOM      4  O   LIG A   1      -8.697   1.574 122.637  0.00  0.00    -0.483 OA
ATOM      5  C   LIG A   1      -8.638   3.006 122.726  0.00  0.00    +0.211 C 
ATOM      6  C   LIG A   1      -7.773   3.467 123.887  0.00  0.00    +0.129 C 
ATOM      7  C   LIG A   1      -8.385   2.907 125.140  0.00  0.00    +0.174 C 
ATOM      8  O   LIG A   1      -8.607   3.605 126.118  0.00  0.00    -0.292 OA
ATOM      9  C   LIG A   1      -9.059  -0.474 123.669  0.00  0.00    +0.092 A 
ATOM     10  C   LIG A   1      -9.179  -1.285 124.793  0.00  0.00    +0.127 A 
ATOM     11  C   LIG A   1      -9.008  -0.731 126.064  0.00  0.00    +0.092 A 
ENDROOT
BRANCH   5  12
ATOM     12  C   LIG A   1      -8.100   3.529 121.401  0.00  0.00    -0.007 A 
ATOM     13  C   LIG A   1      -8.975   3.822 120.344  0.00  0.00    +0.007 A 
ATOM     14  C   LIG A   1      -8.483   4.299 119.125  0.00  0.00    +0.000 A 
ATOM     15  C   LIG A   1      -7.114   4.492 118.946  0.00  0.00    +0.000 A 
ATOM     16  C   LIG A   1      -6.234   4.212 119.988  0.00  0.00    +0.000 A 
ATOM     17  C   LIG A   1      -6.724   3.742 121.207  0.00  0.00    +0.007 A 
ENDBRANCH   5  12
BRANCH   1  18
ATOM     18  O   LIG A   1      -8.578   1.217 127.455  0.00  0.00    -0.494 OA
ATOM     19  C   LIG A   1      -7.407   0.850 128.176  0.00  0.00    +0.277 C 
ENDBRANCH   1  18
BRANCH  10  20
ATOM     20  O   LIG A   1      -9.419  -2.632 124.763  0.00  0.00    -0.495 OA
ATOM     21  C   LIG A   1      -8.869  -3.327 123.647  0.00  0.00    +0.277 C 
ENDBRANCH  10  20
TORSDOF 3
ENDMDL
MODEL 2
REMARK VINA RESULT:      -7.2      8.971     10.414
REMARK  Name = NuBBE_2432
REMARK  5 active torsions:
REMARK  status: ('A' for Active; 'I' for Inactive)
REMARK    1  A    between atoms: O_1  and  C_2
REMARK    2  A    between atoms: O_1  and  C_3
REMARK    3  A    between atoms: C_7  and  C_12
REMARK    4  A    between atoms: C_19  and  O_21
REMARK    5  A    between atoms: O_21  and  C_22
REMARK                            x       y       z     vdW  Elec       q    Type
REMARK                         _______ _______ _______ _____ _____    ______ ____
ROOT
ATOM      1  C   LIG A   1      -5.919   5.734 133.196  0.00  0.00    +0.138 A 
ATOM      2  C   LIG A   1      -7.078   5.950 132.433  0.00  0.00    +0.101 A 
ATOM      3  C   LIG A   1      -7.010   6.706 131.260  0.00  0.00    +0.139 A 
ATOM      4  O   LIG A   1      -8.079   7.041 130.478  0.00  0.00    -0.483 OA
ATOM      5  C   LIG A   1      -9.322   6.384 130.773  0.00  0.00    +0.211 C 
ATOM      6  C   LIG A   1      -9.564   6.273 132.269  0.00  0.00    +0.129 C 
ATOM      7  C   LIG A   1      -8.423   5.478 132.839  0.00  0.00    +0.174 C 
ATOM      8  O   LIG A   1      -8.608   4.527 133.585  0.00  0.00    -0.292 OA
ATOM      9  C   LIG A   1      -5.790   7.223 130.822  0.00  0.00    +0.092 A 
ATOM     10  C   LIG A   1      -4.628   6.973 131.543  0.00  0.00    +0.127 A 
ATOM     11  C   LIG A   1      -4.698   6.245 132.734  0.00  0.00    +0.092 A 
ENDROOT
BRANCH   5  12
ATOM     12  C   LIG A   1     -10.433   7.175 130.096  0.00  0.00    -0.007 A 
ATOM     13  C   LIG A   1     -11.720   7.213 130.653  0.00  0.00    +0.007 A 
ATOM     14  C   LIG A   1     -12.744   7.937 130.032  0.00  0.00    +0.000 A 
ATOM     15  C   LIG A   1     -12.495   8.632 128.850  0.00  0.00    +0.000 A 
ATOM     16  C   LIG A   1     -11.222   8.610 128.289  0.00  0.00    +0.000 A 
ATOM     17  C   LIG A   1     -10.198   7.894 128.910  0.00  0.00    +0.007 A 
ENDBRANCH   5  12
BRANCH   1  18
ATOM     18  O   LIG A   1      -6.027   5.014 134.356  0.00  0.00    -0.494 OA
ATOM     19  C   LIG A   1      -5.825   5.728 135.571  0.00  0.00    +0.277 C 
ENDBRANCH   1  18
BRANCH  10  20
ATOM     20  O   LIG A   1      -3.382   7.427 131.201  0.00  0.00    -0.495 OA
ATOM     21  C   LIG A   1      -2.631   8.009 132.263  0.00  0.00    +0.277 C 
ENDBRANCH  10  20
TORSDOF 3
ENDMDL
MODEL 3
REMARK VINA RESULT:      -7.0      6.098      8.439
REMARK  Name = NuBBE_2432
REMARK  5 active torsions:
REMARK  status: ('A' for Active; 'I' for Inactive)
REMARK    1  A    between atoms: O_1  and  C_2
REMARK    2  A    between atoms: O_1  and  C_3
REMARK    3  A    between atoms: C_7  and  C_12
REMARK    4  A    between atoms: C_19  and  O_21
REMARK    5  A    between atoms: O_21  and  C_22
REMARK                            x       y       z     vdW  Elec       q    Type
REMARK                         _______ _______ _______ _____ _____    ______ ____
ROOT
ATOM      1  C   LIG A   1      -7.993   3.800 131.963  0.00  0.00    +0.138 A 
ATOM      2  C   LIG A   1      -9.073   4.593 131.541  0.00  0.00    +0.101 A 
ATOM      3  C   LIG A   1      -9.857   4.184 130.458  0.00  0.00    +0.139 A 
ATOM      4  O   LIG A   1     -10.883   4.904 129.916  0.00  0.00    -0.483 OA
ATOM      5  C   LIG A   1     -11.319   6.058 130.652  0.00  0.00    +0.211 C 
ATOM      6  C   LIG A   1     -10.149   6.840 131.224  0.00  0.00    +0.129 C 
ATOM      7  C   LIG A   1      -9.403   5.909 132.137  0.00  0.00    +0.174 C 
ATOM      8  O   LIG A   1      -9.092   6.231 133.275  0.00  0.00    -0.292 OA
ATOM      9  C   LIG A   1      -9.594   2.976 129.812  0.00  0.00    +0.092 A 
ATOM     10  C   LIG A   1      -8.558   2.160 130.253  0.00  0.00    +0.127 A 
ATOM     11  C   LIG A   1      -7.752   2.581 131.313  0.00  0.00    +0.092 A 
ENDROOT
BRANCH   5  12
ATOM     12  C   LIG A   1     -12.146   6.921 129.710  0.00  0.00    -0.007 A 
ATOM     13  C   LIG A   1     -12.991   6.329 128.759  0.00  0.00    +0.007 A 
ATOM     14  C   LIG A   1     -13.749   7.120 127.889  0.00  0.00    +0.000 A 
ATOM     15  C   LIG A   1     -13.676   8.509 127.959  0.00  0.00    +0.000 A 
ATOM     16  C   LIG A   1     -12.848   9.112 128.901  0.00  0.00    +0.000 A 
ATOM     17  C   LIG A   1     -12.095   8.325 129.774  0.00  0.00    +0.007 A 
ENDBRANCH   5  12
BRANCH   1  18
ATOM     18  O   LIG A   1      -7.228   4.246 133.007  0.00  0.00    -0.494 OA
ATOM     19  C   LIG A   1      -7.054   3.349 134.099  0.00  0.00    +0.277 C 
ENDBRANCH   1  18
BRANCH  10  20
ATOM     20  O   LIG A   1      -8.219   0.957 129.695  0.00  0.00    -0.495 OA
ATOM     21  C   LIG A   1      -8.076   0.958 128.277  0.00  0.00    +0.277 C 
ENDBRANCH  10  20
TORSDOF 3
ENDMDL
MODEL 4
REMARK VINA RESULT:      -6.7      8.089      9.374
REMARK  Name = NuBBE_2432
REMARK  5 active torsions:
REMARK  status: ('A' for Active; 'I' for Inactive)
REMARK    1  A    between atoms: O_1  and  C_2
REMARK    2  A    between atoms: O_1  and  C_3
REMARK    3  A    between atoms: C_7  and  C_12
REMARK    4  A    between atoms: C_19  and  O_21
REMARK    5  A    between atoms: O_21  and  C_22
REMARK                            x       y       z     vdW  Elec       q    Type
REMARK                         _______ _______ _______ _____ _____    ______ ____
ROOT
ATOM      1  C   LIG A   1      -7.908   4.282 131.913  0.00  0.00    +0.138 A 
ATOM      2  C   LIG A   1      -8.887   4.882 131.106  0.00  0.00    +0.101 A 
ATOM      3  C   LIG A   1      -8.704   6.186 130.640  0.00  0.00    +0.139 A 
ATOM      4  O   LIG A   1      -9.617   6.895 129.911  0.00  0.00    -0.483 OA
ATOM      5  C   LIG A   1     -10.748   6.165 129.410  0.00  0.00    +0.211 C 
ATOM      6  C   LIG A   1     -11.290   5.185 130.437  0.00  0.00    +0.129 C 
ATOM      7  C   LIG A   1     -10.175   4.232 130.765  0.00  0.00    +0.174 C 
ATOM      8  O   LIG A   1     -10.338   3.020 130.756  0.00  0.00    -0.292 OA
ATOM      9  C   LIG A   1      -7.538   6.889 130.944  0.00  0.00    +0.092 A 
ATOM     10  C   LIG A   1      -6.539   6.286 131.702  0.00  0.00    +0.127 A 
ATOM     11  C   LIG A   1      -6.734   4.994 132.197  0.00  0.00    +0.092 A 
ENDROOT
BRANCH   5  12
ATOM     12  C   LIG A   1     -11.809   7.177 129.006  0.00  0.00    -0.007 A 
ATOM     13  C   LIG A   1     -11.815   8.464 129.566  0.00  0.00    +0.007 A 
ATOM     14  C   LIG A   1     -12.792   9.396 129.199  0.00  0.00    +0.000 A 
ATOM     15  C   LIG A   1     -13.772   9.057 128.268  0.00  0.00    +0.000 A 
ATOM     16  C   LIG A   1     -13.775   7.787 127.698  0.00  0.00    +0.000 A 
ATOM     17  C   LIG A   1     -12.798   6.858 128.058  0.00  0.00    +0.007 A 
ENDBRANCH   5  12
BRANCH   1  18
ATOM     18  O   LIG A   1      -8.133   3.014 132.377  0.00  0.00    -0.494 OA
ATOM     19  C   LIG A   1      -7.582   2.693 133.650  0.00  0.00    +0.277 C 
ENDBRANCH   1  18
BRANCH  10  20
ATOM     20  O   LIG A   1      -5.358   6.881 132.053  0.00  0.00    -0.495 OA
ATOM     21  C   LIG A   1      -4.268   6.649 131.164  0.00  0.00    +0.277 C 
ENDBRANCH  10  20
TORSDOF 3
ENDMDL
MODEL 5
REMARK VINA RESULT:      -6.6      3.157      7.852
REMARK  Name = NuBBE_2432
REMARK  5 active torsions:
REMARK  status: ('A' for Active; 'I' for Inactive)
REMARK    1  A    between atoms: O_1  and  C_2
REMARK    2  A    between atoms: O_1  and  C_3
REMARK    3  A    between atoms: C_7  and  C_12
REMARK    4  A    between atoms: C_19  and  O_21
REMARK    5  A    between atoms: O_21  and  C_22
REMARK                            x       y       z     vdW  Elec       q    Type
REMARK                         _______ _______ _______ _____ _____    ______ ____
ROOT
ATOM      1  C   LIG A   1      -8.313   0.255 123.911  0.00  0.00    +0.138 A 
ATOM      2  C   LIG A   1      -7.981  -0.461 125.073  0.00  0.00    +0.101 A 
ATOM      3  C   LIG A   1      -6.948  -0.010 125.898  0.00  0.00    +0.139 A 
ATOM      4  O   LIG A   1      -6.491  -0.660 127.010  0.00  0.00    -0.483 OA
ATOM      5  C   LIG A   1      -7.277  -1.768 127.477  0.00  0.00    +0.211 C 
ATOM      6  C   LIG A   1      -7.782  -2.627 126.330  0.00  0.00    +0.129 C 
ATOM      7  C   LIG A   1      -8.624  -1.740 125.455  0.00  0.00    +0.174 C 
ATOM      8  O   LIG A   1      -9.744  -2.069 125.091  0.00  0.00    -0.292 OA
ATOM      9  C   LIG A   1      -6.262   1.166 125.594  0.00  0.00    +0.092 A 
ATOM     10  C   LIG A   1      -6.615   1.909 124.472  0.00  0.00    +0.127 A 
ATOM     11  C   LIG A   1      -7.626   1.443 123.627  0.00  0.00    +0.092 A 
ENDROOT
BRANCH   5  12
ATOM     12  C   LIG A   1      -6.411  -2.580 128.429  0.00  0.00    -0.007 A 
ATOM     13  C   LIG A   1      -5.013  -2.563 128.308  0.00  0.00    +0.007 A 
ATOM     14  C   LIG A   1      -4.214  -3.311 129.180  0.00  0.00    +0.000 A 
ATOM     15  C   LIG A   1      -4.799  -4.082 130.182  0.00  0.00    +0.000 A 
ATOM     16  C   LIG A   1      -6.184  -4.104 130.319  0.00  0.00    +0.000 A 
ATOM     17  C   LIG A   1      -6.983  -3.353 129.455  0.00  0.00    +0.007 A 
ENDBRANCH   5  12
BRANCH   1  18
ATOM     18  O   LIG A   1      -9.310  -0.232 123.109  0.00  0.00    -0.494 OA
ATOM     19  C   LIG A   1     -10.210   0.724 122.557  0.00  0.00    +0.277 C 
ENDBRANCH   1  18
BRANCH  10  20
ATOM     20  O   LIG A   1      -6.013   3.075 124.086  0.00  0.00    -0.495 OA
ATOM     21  C   LIG A   1      -5.387   3.816 125.130  0.00  0.00    +0.277 C 
ENDBRANCH  10  20
TORSDOF 3
ENDMDL
MODEL 6
REMARK VINA RESULT:      -6.3      4.389      6.726
REMARK  Name = NuBBE_2432
REMARK  5 active torsions:
REMARK  status: ('A' for Active; 'I' for Inactive)
REMARK    1  A    between atoms: O_1  and  C_2
REMARK    2  A    between atoms: O_1  and  C_3
REMARK    3  A    between atoms: C_7  and  C_12
REMARK    4  A    between atoms: C_19  and  O_21
REMARK    5  A    between atoms: O_21  and  C_22
REMARK                            x       y       z     vdW  Elec       q    Type
REMARK                         _______ _______ _______ _____ _____    ______ ____
ROOT
ATOM      1  C   LIG A   1      -6.708   2.095 124.275  0.00  0.00    +0.138 A 
ATOM      2  C   LIG A   1      -5.822   2.811 125.096  0.00  0.00    +0.101 A 
ATOM      3  C   LIG A   1      -5.107   2.147 126.096  0.00  0.00    +0.139 A 
ATOM      4  O   LIG A   1      -4.275   2.748 126.998  0.00  0.00    -0.483 OA
ATOM      5  C   LIG A   1      -3.950   4.126 126.755  0.00  0.00    +0.211 C 
ATOM      6  C   LIG A   1      -5.160   4.919 126.291  0.00  0.00    +0.129 C 
ATOM      7  C   LIG A   1      -5.643   4.280 125.019  0.00  0.00    +0.174 C 
ATOM      8  O   LIG A   1      -5.873   4.936 124.013  0.00  0.00    -0.292 OA
ATOM      9  C   LIG A   1      -5.243   0.769 126.266  0.00  0.00    +0.092 A 
ATOM     10  C   LIG A   1      -6.080   0.042 125.427  0.00  0.00    +0.127 A 
ATOM     11  C   LIG A   1      -6.821   0.708 124.447  0.00  0.00    +0.092 A 
ENDROOT
BRANCH   5  12
ATOM     12  C   LIG A   1      -3.381   4.701 128.044  0.00  0.00    -0.007 A 
ATOM     13  C   LIG A   1      -3.611   4.060 129.271  0.00  0.00    +0.007 A 
ATOM     14  C   LIG A   1      -3.092   4.588 130.458  0.00  0.00    +0.000 A 
ATOM     15  C   LIG A   1      -2.336   5.758 130.435  0.00  0.00    +0.000 A 
ATOM     16  C   LIG A   1      -2.093   6.402 129.225  0.00  0.00    +0.000 A 
ATOM     17  C   LIG A   1      -2.605   5.874 128.039  0.00  0.00    +0.007 A 
ENDBRANCH   5  12
BRANCH   1  18
ATOM     18  O   LIG A   1      -7.415   2.782 123.325  0.00  0.00    -0.494 OA
ATOM     19  C   LIG A   1      -8.790   2.443 123.183  0.00  0.00    +0.277 C 
ENDBRANCH   1  18
BRANCH  10  20
ATOM     20  O   LIG A   1      -6.283  -1.309 125.503  0.00  0.00    -0.495 OA
ATOM     21  C   LIG A   1      -6.035  -1.895 126.779  0.00  0.00    +0.277 C 
ENDBRANCH  10  20
TORSDOF 3
ENDMDL
MODEL 7
REMARK VINA RESULT:      -6.3      3.210      6.053
REMARK  Name = NuBBE_2432
REMARK  5 active torsions:
REMARK  status: ('A' for Active; 'I' for Inactive)
REMARK    1  A    between atoms: O_1  and  C_2
REMARK    2  A    between atoms: O_1  and  C_3
REMARK    3  A    between atoms: C_7  and  C_12
REMARK    4  A    between atoms: C_19  and  O_21
REMARK    5  A    between atoms: O_21  and  C_22
REMARK                            x       y       z     vdW  Elec       q    Type
REMARK                         _______ _______ _______ _____ _____    ______ ____
ROOT
ATOM      1  C   LIG A   1      -7.995   3.110 122.001  0.00  0.00    +0.138 A 
ATOM      2  C   LIG A   1      -7.000   3.249 122.982  0.00  0.00    +0.101 A 
ATOM      3  C   LIG A   1      -7.084   2.518 124.170  0.00  0.00    +0.139 A 
ATOM      4  O   LIG A   1      -6.217   2.625 125.221  0.00  0.00    -0.483 OA
ATOM      5  C   LIG A   1      -5.018   3.382 124.992  0.00  0.00    +0.211 C 
ATOM      6  C   LIG A   1      -5.288   4.641 124.184  0.00  0.00    +0.129 C 
ATOM      7  C   LIG A   1      -5.870   4.202 122.870  0.00  0.00    +0.174 C 
ATOM      8  O   LIG A   1      -5.440   4.616 121.803  0.00  0.00    -0.292 OA
ATOM      9  C   LIG A   1      -8.135   1.625 124.378  0.00  0.00    +0.092 A 
ATOM     10  C   LIG A   1      -9.100   1.443 123.393  0.00  0.00    +0.127 A 
ATOM     11  C   LIG A   1      -9.036   2.196 122.218  0.00  0.00    +0.092 A 
ENDROOT
BRANCH   5  12
ATOM     12  C   LIG A   1      -4.420   3.721 126.349  0.00  0.00    -0.007 A 
ATOM     13  C   LIG A   1      -3.047   3.553 126.584  0.00  0.00    +0.007 A 
ATOM     14  C   LIG A   1      -2.495   3.861 127.832  0.00  0.00    +0.000 A 
ATOM     15  C   LIG A   1      -3.305   4.341 128.859  0.00  0.00    +0.000 A 
ATOM     16  C   LIG A   1      -4.668   4.520 128.640  0.00  0.00    +0.000 A 
ATOM     17  C   LIG A   1      -5.219   4.220 127.394  0.00  0.00    +0.007 A 
ENDBRANCH   5  12
BRANCH   1  18
ATOM     18  O   LIG A   1      -7.898   3.863 120.862  0.00  0.00    -0.494 OA
ATOM     19  C   LIG A   1      -9.065   3.949 120.052  0.00  0.00    +0.277 C 
ENDBRANCH   1  18
BRANCH  10  20
ATOM     20  O   LIG A   1     -10.167   0.591 123.491  0.00  0.00    -0.495 OA
ATOM     21  C   LIG A   1     -10.139  -0.529 122.610  0.00  0.00    +0.277 C 
ENDBRANCH  10  20
TORSDOF 3
ENDMDL
MODEL 8
REMARK VINA RESULT:      -6.3      3.942      8.693
REMARK  Name = NuBBE_2432
REMARK  5 active torsions:
REMARK  status: ('A' for Active; 'I' for Inactive)
REMARK    1  A    between atoms: O_1  and  C_2
REMARK    2  A    between atoms: O_1  and  C_3
REMARK    3  A    between atoms: C_7  and  C_12
REMARK    4  A    between atoms: C_19  and  O_21
REMARK    5  A    between atoms: O_21  and  C_22
REMARK                            x       y       z     vdW  Elec       q    Type
REMARK                         _______ _______ _______ _____ _____    ______ ____
ROOT
ATOM      1  C   LIG A   1      -8.387  -0.318 126.521  0.00  0.00    +0.138 A 
ATOM      2  C   LIG A   1      -7.721  -0.978 127.566  0.00  0.00    +0.101 A 
ATOM      3  C   LIG A   1      -7.793  -2.370 127.671  0.00  0.00    +0.139 A 
ATOM      4  O   LIG A   1      -7.248  -3.111 128.681  0.00  0.00    -0.483 OA
ATOM      5  C   LIG A   1      -6.356  -2.424 129.574  0.00  0.00    +0.211 C 
ATOM      6  C   LIG A   1      -6.866  -1.037 129.927  0.00  0.00    +0.129 C 
ATOM      7  C   LIG A   1      -6.983  -0.271 128.640  0.00  0.00    +0.174 C 
ATOM      8  O   LIG A   1      -6.510   0.848 128.509  0.00  0.00    -0.292 OA
ATOM      9  C   LIG A   1      -8.499  -3.114 126.725  0.00  0.00    +0.092 A 
ATOM     10  C   LIG A   1      -9.122  -2.475 125.658  0.00  0.00    +0.127 A 
ATOM     11  C   LIG A   1      -9.078  -1.081 125.569  0.00  0.00    +0.092 A 
ENDROOT
BRANCH   5  12
ATOM     12  C   LIG A   1      -6.199  -3.284 130.820  0.00  0.00    -0.007 A 
ATOM     13  C   LIG A   1      -6.814  -2.910 132.024  0.00  0.00    +0.007 A 
ATOM     14  C   LIG A   1      -6.668  -3.697 133.172  0.00  0.00    +0.000 A 
ATOM     15  C   LIG A   1      -5.911  -4.866 133.131  0.00  0.00    +0.000 A 
ATOM     16  C   LIG A   1      -5.300  -5.254 131.942  0.00  0.00    +0.000 A 
ATOM     17  C   LIG A   1      -5.449  -4.474 130.794  0.00  0.00    +0.007 A 
ENDBRANCH   5  12
BRANCH   1  18
ATOM     18  O   LIG A   1      -8.320   1.048 126.465  0.00  0.00    -0.494 OA
ATOM     19  C   LIG A   1      -7.820   1.614 125.259  0.00  0.00    +0.277 C 
ENDBRANCH   1  18
BRANCH  10  20
ATOM     20  O   LIG A   1      -9.833  -3.108 124.675  0.00  0.00    -0.495 OA
ATOM     21  C   LIG A   1      -9.243  -3.079 123.378  0.00  0.00    +0.277 C 
ENDBRANCH  10  20
TORSDOF 3
ENDMDL
MODEL 9
REMARK VINA RESULT:      -6.3      5.623      7.958
REMARK  Name = NuBBE_2432
REMARK  5 active torsions:
REMARK  status: ('A' for Active; 'I' for Inactive)
REMARK    1  A    between atoms: O_1  and  C_2
REMARK    2  A    between atoms: O_1  and  C_3
REMARK    3  A    between atoms: C_7  and  C_12
REMARK    4  A    between atoms: C_19  and  O_21
REMARK    5  A    between atoms: O_21  and  C_22
REMARK                            x       y       z     vdW  Elec       q    Type
REMARK                         _______ _______ _______ _____ _____    ______ ____
ROOT
ATOM      1  C   LIG A   1      -6.745   3.877 130.867  0.00  0.00    +0.138 A 
ATOM      2  C   LIG A   1      -7.915   4.633 130.688  0.00  0.00    +0.101 A 
ATOM      3  C   LIG A   1      -8.937   4.152 129.866  0.00  0.00    +0.139 A 
ATOM      4  O   LIG A   1     -10.084   4.830 129.562  0.00  0.00    -0.483 OA
ATOM      5  C   LIG A   1     -10.346   6.023 130.316  0.00  0.00    +0.211 C 
ATOM      6  C   LIG A   1      -9.088   6.848 130.526  0.00  0.00    +0.129 C 
ATOM      7  C   LIG A   1      -8.113   5.981 131.272  0.00  0.00    +0.174 C 
ATOM      8  O   LIG A   1      -7.533   6.375 132.273  0.00  0.00    -0.292 OA
ATOM      9  C   LIG A   1      -8.819   2.909 129.244  0.00  0.00    +0.092 A 
ATOM     10  C   LIG A   1      -7.686   2.130 129.453  0.00  0.00    +0.127 A 
ATOM     11  C   LIG A   1      -6.648   2.623 130.248  0.00  0.00    +0.092 A 
ENDROOT
BRANCH   5  12
ATOM     12  C   LIG A   1     -11.405   6.820 129.567  0.00  0.00    -0.007 A 
ATOM     13  C   LIG A   1     -12.598   6.207 129.155  0.00  0.00    +0.007 A 
ATOM     14  C   LIG A   1     -13.571   6.936 128.464  0.00  0.00    +0.000 A 
ATOM     15  C   LIG A   1     -13.367   8.284 128.177  0.00  0.00    +0.000 A 
ATOM     16  C   LIG A   1     -12.191   8.909 128.584  0.00  0.00    +0.000 A 
ATOM     17  C   LIG A   1     -11.222   8.185 129.280  0.00  0.00    +0.007 A 
ENDBRANCH   5  12
BRANCH   1  18
ATOM     18  O   LIG A   1      -5.751   4.392 131.654  0.00  0.00    -0.494 OA
ATOM     19  C   LIG A   1      -4.418   4.011 131.331  0.00  0.00    +0.277 C 
ENDBRANCH   1  18
BRANCH  10  20
ATOM     20  O   LIG A   1      -7.471   0.898 128.898  0.00  0.00    -0.495 OA
ATOM     21  C   LIG A   1      -8.076   0.686 127.625  0.00  0.00    +0.277 C 
ENDBRANCH  10  20
TORSDOF 3
ENDMDL
