MODEL 1
REMARK VINA RESULT:      -8.5      0.000      0.000
REMARK  Name = NuBBE_2516
REMARK  7 active torsions:
REMARK  status: ('A' for Active; 'I' for Inactive)
REMARK    1  A    between atoms: C_1  and  C_2
REMARK    2  A    between atoms: C_6  and  C_24
REMARK    3  A    between atoms: C_6  and  O_27
REMARK    4  A    between atoms: C_12  and  C_14
REMARK    5  A    between atoms: C_14  and  C_15
REMARK    6  A    between atoms: C_24  and  C_25
REMARK    7  A    between atoms: O_27  and  C_28
REMARK                            x       y       z     vdW  Elec       q    Type
REMARK                         _______ _______ _______ _____ _____    ______ ____
ROOT
ATOM      1  C   LIG A   1     -10.181  -0.230 122.472  0.00  0.00    +0.016 C 
ATOM      2  C   LIG A   1      -8.848   0.321 122.977  0.00  0.00    +0.060 C 
ATOM      3  C   LIG A   1      -8.216  -0.606 123.954  0.00  0.00    -0.000 C 
ATOM      4  C   LIG A   1      -7.515  -1.725 123.751  0.00  0.00    +0.023 C 
ATOM      5  C   LIG A   1      -6.957  -2.574 124.883  0.00  0.00    +0.153 C 
ATOM      6  C   LIG A   1      -7.333  -1.972 126.291  0.00  0.00    +0.195 C 
ATOM      7  O   LIG A   1      -6.970  -2.490 127.352  0.00  0.00    -0.289 OA
ATOM      8  C   LIG A   1      -8.116  -0.710 126.381  0.00  0.00    +0.095 C 
ATOM      9  C   LIG A   1      -8.486  -0.099 125.261  0.00  0.00    +0.128 C 
ATOM     10  O   LIG A   1      -9.161   1.106 125.225  0.00  0.00    -0.487 OA
ATOM     11  C   LIG A   1      -9.047   1.572 123.854  0.00  0.00    +0.185 C 
ENDROOT
BRANCH   5  12
ATOM     12  O   LIG A   1      -7.516  -3.875 124.650  0.00  0.00    -0.364 OA
ATOM     13  C   LIG A   1      -8.911  -3.931 124.383  0.00  0.00    +0.195 C 
ENDBRANCH   5  12
BRANCH  11  14
ATOM     14  C   LIG A   1      -7.891   2.591 123.782  0.00  0.00    +0.080 C 
BRANCH  14  15
ATOM     15  C   LIG A   1      -7.692   3.200 122.413  0.00  0.00    -0.040 A 
ATOM     16  C   LIG A   1      -6.428   3.660 122.009  0.00  0.00    +0.053 A 
ATOM     17  C   LIG A   1      -6.313   4.226 120.756  0.00  0.00    +0.167 A 
ATOM     18  C   LIG A   1      -7.390   4.342 119.909  0.00  0.00    +0.166 A 
ATOM     19  C   LIG A   1      -8.642   3.896 120.266  0.00  0.00    +0.050 A 
ATOM     20  C   LIG A   1      -8.790   3.316 121.530  0.00  0.00    +0.007 A 
ATOM     21  O   LIG A   1      -7.061   4.927 118.728  0.00  0.00    -0.453 OA
ATOM     22  C   LIG A   1      -5.651   5.159 118.922  0.00  0.00    +0.466 C 
ATOM     23  O   LIG A   1      -5.171   4.727 120.213  0.00  0.00    -0.453 OA
ENDBRANCH  14  15
ENDBRANCH  11  14
BRANCH   5  24
ATOM     24  C   LIG A   1      -5.399  -2.586 124.801  0.00  0.00    +0.074 C 
BRANCH  24  25
ATOM     25  C   LIG A   1      -4.830  -3.269 123.577  0.00  0.00    -0.031 C 
ATOM     26  C   LIG A   1      -4.340  -4.514 123.571  0.00  0.00    +0.004 C 
ENDBRANCH  24  25
ENDBRANCH   5  24
TORSDOF 5
ENDMDL
MODEL 2
REMARK VINA RESULT:      -8.2      1.277      1.877
REMARK  Name = NuBBE_2516
REMARK  7 active torsions:
REMARK  status: ('A' for Active; 'I' for Inactive)
REMARK    1  A    between atoms: C_1  and  C_2
REMARK    2  A    between atoms: C_6  and  C_24
REMARK    3  A    between atoms: C_6  and  O_27
REMARK    4  A    between atoms: C_12  and  C_14
REMARK    5  A    between atoms: C_14  and  C_15
REMARK    6  A    between atoms: C_24  and  C_25
REMARK    7  A    between atoms: O_27  and  C_28
REMARK                            x       y       z     vdW  Elec       q    Type
REMARK                         _______ _______ _______ _____ _____    ______ ____
ROOT
ATOM      1  C   LIG A   1      -9.731   1.126 124.216  0.00  0.00    +0.016 C 
ATOM      2  C   LIG A   1      -8.231   1.197 123.931  0.00  0.00    +0.060 C 
ATOM      3  C   LIG A   1      -7.510   0.048 124.544  0.00  0.00    -0.000 C 
ATOM      4  C   LIG A   1      -7.387  -1.215 124.125  0.00  0.00    +0.023 C 
ATOM      5  C   LIG A   1      -6.624  -2.278 124.901  0.00  0.00    +0.153 C 
ATOM      6  C   LIG A   1      -6.035  -1.697 126.243  0.00  0.00    +0.195 C 
ATOM      7  O   LIG A   1      -5.365  -2.380 127.024  0.00  0.00    -0.289 OA
ATOM      8  C   LIG A   1      -6.238  -0.264 126.593  0.00  0.00    +0.095 C 
ATOM      9  C   LIG A   1      -6.916   0.514 125.755  0.00  0.00    +0.128 C 
ATOM     10  O   LIG A   1      -7.113   1.868 125.947  0.00  0.00    -0.487 OA
ATOM     11  C   LIG A   1      -7.569   2.378 124.666  0.00  0.00    +0.185 C 
ENDROOT
BRANCH   5  12
ATOM     12  O   LIG A   1      -7.590  -3.319 125.104  0.00  0.00    -0.364 OA
ATOM     13  C   LIG A   1      -8.906  -3.070 124.629  0.00  0.00    +0.195 C 
ENDBRANCH   5  12
BRANCH  11  14
ATOM     14  C   LIG A   1      -6.360   2.990 123.928  0.00  0.00    +0.080 C 
BRANCH  14  15
ATOM     15  C   LIG A   1      -6.654   3.405 122.505  0.00  0.00    -0.040 A 
ATOM     16  C   LIG A   1      -7.973   3.438 122.025  0.00  0.00    +0.053 A 
ATOM     17  C   LIG A   1      -8.177   3.804 120.711  0.00  0.00    +0.167 A 
ATOM     18  C   LIG A   1      -7.135   4.136 119.878  0.00  0.00    +0.166 A 
ATOM     19  C   LIG A   1      -5.829   4.123 120.314  0.00  0.00    +0.050 A 
ATOM     20  C   LIG A   1      -5.590   3.757 121.643  0.00  0.00    +0.007 A 
ATOM     21  O   LIG A   1      -7.552   4.465 118.628  0.00  0.00    -0.453 OA
ATOM     22  C   LIG A   1      -8.979   4.312 118.769  0.00  0.00    +0.466 C 
ATOM     23  O   LIG A   1      -9.382   3.880 120.085  0.00  0.00    -0.453 OA
ENDBRANCH  14  15
ENDBRANCH  11  14
BRANCH   5  24
ATOM     24  C   LIG A   1      -5.410  -2.766 124.052  0.00  0.00    +0.074 C 
BRANCH  24  25
ATOM     25  C   LIG A   1      -5.187  -4.263 124.058  0.00  0.00    -0.031 C 
ATOM     26  C   LIG A   1      -4.208  -4.878 123.385  0.00  0.00    +0.004 C 
ENDBRANCH  24  25
ENDBRANCH   5  24
TORSDOF 5
ENDMDL
MODEL 3
REMARK VINA RESULT:      -8.2      4.248      5.433
REMARK  Name = NuBBE_2516
REMARK  7 active torsions:
REMARK  status: ('A' for Active; 'I' for Inactive)
REMARK    1  A    between atoms: C_1  and  C_2
REMARK    2  A    between atoms: C_6  and  C_24
REMARK    3  A    between atoms: C_6  and  O_27
REMARK    4  A    between atoms: C_12  and  C_14
REMARK    5  A    between atoms: C_14  and  C_15
REMARK    6  A    between atoms: C_24  and  C_25
REMARK    7  A    between atoms: O_27  and  C_28
REMARK                            x       y       z     vdW  Elec       q    Type
REMARK                         _______ _______ _______ _____ _____    ______ ____
ROOT
ATOM      1  C   LIG A   1      -7.802   3.261 123.494  0.00  0.00    +0.016 C 
ATOM      2  C   LIG A   1      -6.882   2.207 124.111  0.00  0.00    +0.060 C 
ATOM      3  C   LIG A   1      -7.586   0.907 124.278  0.00  0.00    -0.000 C 
ATOM      4  C   LIG A   1      -7.851  -0.051 123.385  0.00  0.00    +0.023 C 
ATOM      5  C   LIG A   1      -8.614  -1.321 123.729  0.00  0.00    +0.153 C 
ATOM      6  C   LIG A   1      -9.054  -1.334 125.243  0.00  0.00    +0.195 C 
ATOM      7  O   LIG A   1      -9.673  -2.277 125.746  0.00  0.00    -0.289 OA
ATOM      8  C   LIG A   1      -8.689  -0.203 126.139  0.00  0.00    +0.095 C 
ATOM      9  C   LIG A   1      -7.984   0.810 125.646  0.00  0.00    +0.128 C 
ATOM     10  O   LIG A   1      -7.539   1.880 126.397  0.00  0.00    -0.487 OA
ATOM     11  C   LIG A   1      -6.540   2.541 125.575  0.00  0.00    +0.185 C 
ENDROOT
BRANCH   5  12
ATOM     12  O   LIG A   1      -9.718  -1.321 122.813  0.00  0.00    -0.364 OA
ATOM     13  C   LIG A   1     -10.166  -0.053 122.353  0.00  0.00    +0.195 C 
ENDBRANCH   5  12
BRANCH  11  14
ATOM     14  C   LIG A   1      -5.144   2.062 126.028  0.00  0.00    +0.080 C 
BRANCH  14  15
ATOM     15  C   LIG A   1      -4.296   3.145 126.653  0.00  0.00    -0.040 A 
ATOM     16  C   LIG A   1      -4.867   4.365 127.050  0.00  0.00    +0.053 A 
ATOM     17  C   LIG A   1      -4.039   5.324 127.595  0.00  0.00    +0.167 A 
ATOM     18  C   LIG A   1      -2.690   5.111 127.759  0.00  0.00    +0.166 A 
ATOM     19  C   LIG A   1      -2.095   3.926 127.389  0.00  0.00    +0.050 A 
ATOM     20  C   LIG A   1      -2.910   2.934 126.835  0.00  0.00    +0.007 A 
ATOM     21  O   LIG A   1      -2.058   6.180 128.311  0.00  0.00    -0.453 OA
ATOM     22  C   LIG A   1      -3.165   7.088 128.487  0.00  0.00    +0.466 C 
ATOM     23  O   LIG A   1      -4.423   6.556 128.022  0.00  0.00    -0.453 OA
ENDBRANCH  14  15
ENDBRANCH  11  14
BRANCH   5  24
ATOM     24  C   LIG A   1      -7.683  -2.555 123.522  0.00  0.00    +0.074 C 
BRANCH  24  25
ATOM     25  C   LIG A   1      -6.264  -2.376 124.016  0.00  0.00    -0.031 C 
ATOM     26  C   LIG A   1      -5.236  -3.146 123.641  0.00  0.00    +0.004 C 
ENDBRANCH  24  25
ENDBRANCH   5  24
TORSDOF 5
ENDMDL
MODEL 4
REMARK VINA RESULT:      -7.9      4.209      9.427
REMARK  Name = NuBBE_2516
REMARK  7 active torsions:
REMARK  status: ('A' for Active; 'I' for Inactive)
REMARK    1  A    between atoms: C_1  and  C_2
REMARK    2  A    between atoms: C_6  and  C_24
REMARK    3  A    between atoms: C_6  and  O_27
REMARK    4  A    between atoms: C_12  and  C_14
REMARK    5  A    between atoms: C_14  and  C_15
REMARK    6  A    between atoms: C_24  and  C_25
REMARK    7  A    between atoms: O_27  and  C_28
REMARK                            x       y       z     vdW  Elec       q    Type
REMARK                         _______ _______ _______ _____ _____    ______ ____
ROOT
ATOM      1  C   LIG A   1      -7.720   0.248 128.263  0.00  0.00    +0.016 C 
ATOM      2  C   LIG A   1      -7.002  -1.063 127.943  0.00  0.00    +0.060 C 
ATOM      3  C   LIG A   1      -7.279  -1.504 126.549  0.00  0.00    -0.000 C 
ATOM      4  C   LIG A   1      -6.748  -1.095 125.394  0.00  0.00    +0.023 C 
ATOM      5  C   LIG A   1      -7.174  -1.645 124.041  0.00  0.00    +0.153 C 
ATOM      6  C   LIG A   1      -8.315  -2.722 124.194  0.00  0.00    +0.195 C 
ATOM      7  O   LIG A   1      -8.802  -3.313 123.225  0.00  0.00    -0.289 OA
ATOM      8  C   LIG A   1      -8.817  -3.096 125.544  0.00  0.00    +0.095 C 
ATOM      9  C   LIG A   1      -8.286  -2.514 126.614  0.00  0.00    +0.128 C 
ATOM     10  O   LIG A   1      -8.630  -2.827 127.914  0.00  0.00    -0.487 OA
ATOM     11  C   LIG A   1      -7.589  -2.242 128.741  0.00  0.00    +0.185 C 
ENDROOT
BRANCH   5  12
ATOM     12  O   LIG A   1      -7.580  -0.482 123.305  0.00  0.00    -0.364 OA
ATOM     13  C   LIG A   1      -8.800   0.130 123.702  0.00  0.00    +0.195 C 
ENDBRANCH   5  12
BRANCH  11  14
ATOM     14  C   LIG A   1      -6.569  -3.345 129.092  0.00  0.00    +0.080 C 
BRANCH  14  15
ATOM     15  C   LIG A   1      -6.472  -3.645 130.569  0.00  0.00    -0.040 A 
ATOM     16  C   LIG A   1      -7.253  -2.939 131.499  0.00  0.00    +0.053 A 
ATOM     17  C   LIG A   1      -7.105  -3.242 132.836  0.00  0.00    +0.167 A 
ATOM     18  C   LIG A   1      -6.226  -4.206 133.270  0.00  0.00    +0.166 A 
ATOM     19  C   LIG A   1      -5.449  -4.924 132.390  0.00  0.00    +0.050 A 
ATOM     20  C   LIG A   1      -5.578  -4.641 131.026  0.00  0.00    +0.007 A 
ATOM     21  O   LIG A   1      -6.234  -4.347 134.621  0.00  0.00    -0.453 OA
ATOM     22  C   LIG A   1      -7.225  -3.367 134.991  0.00  0.00    +0.466 C 
ATOM     23  O   LIG A   1      -7.774  -2.652 133.863  0.00  0.00    -0.453 OA
ENDBRANCH  14  15
ENDBRANCH  11  14
BRANCH   5  24
ATOM     24  C   LIG A   1      -5.963  -2.365 123.372  0.00  0.00    +0.074 C 
BRANCH  24  25
ATOM     25  C   LIG A   1      -5.395  -3.526 124.160  0.00  0.00    -0.031 C 
ATOM     26  C   LIG A   1      -4.458  -4.361 123.696  0.00  0.00    +0.004 C 
ENDBRANCH  24  25
ENDBRANCH   5  24
TORSDOF 5
ENDMDL
MODEL 5
REMARK VINA RESULT:      -7.6      3.683      8.800
REMARK  Name = NuBBE_2516
REMARK  7 active torsions:
REMARK  status: ('A' for Active; 'I' for Inactive)
REMARK    1  A    between atoms: C_1  and  C_2
REMARK    2  A    between atoms: C_6  and  C_24
REMARK    3  A    between atoms: C_6  and  O_27
REMARK    4  A    between atoms: C_12  and  C_14
REMARK    5  A    between atoms: C_14  and  C_15
REMARK    6  A    between atoms: C_24  and  C_25
REMARK    7  A    between atoms: O_27  and  C_28
REMARK                            x       y       z     vdW  Elec       q    Type
REMARK                         _______ _______ _______ _____ _____    ______ ____
ROOT
ATOM      1  C   LIG A   1      -8.103   0.717 127.717  0.00  0.00    +0.016 C 
ATOM      2  C   LIG A   1      -7.207  -0.362 127.109  0.00  0.00    +0.060 C 
ATOM      3  C   LIG A   1      -7.871  -1.027 125.956  0.00  0.00    -0.000 C 
ATOM      4  C   LIG A   1      -8.006  -0.624 124.689  0.00  0.00    +0.023 C 
ATOM      5  C   LIG A   1      -8.748  -1.431 123.634  0.00  0.00    +0.153 C 
ATOM      6  C   LIG A   1      -9.336  -2.763 124.239  0.00  0.00    +0.195 C 
ATOM      7  O   LIG A   1      -9.963  -3.581 123.558  0.00  0.00    -0.289 OA
ATOM      8  C   LIG A   1      -9.108  -3.101 125.671  0.00  0.00    +0.095 C 
ATOM      9  C   LIG A   1      -8.399  -2.267 126.425  0.00  0.00    +0.128 C 
ATOM     10  O   LIG A   1      -8.075  -2.507 127.746  0.00  0.00    -0.487 OA
ATOM     11  C   LIG A   1      -7.026  -1.554 128.066  0.00  0.00    +0.185 C 
ENDROOT
BRANCH   5  12
ATOM     12  O   LIG A   1      -9.754  -0.530 123.151  0.00  0.00    -0.364 OA
ATOM     13  C   LIG A   1      -9.442   0.856 123.194  0.00  0.00    +0.195 C 
ENDBRANCH   5  12
BRANCH  11  14
ATOM     14  C   LIG A   1      -5.665  -2.270 127.942  0.00  0.00    +0.080 C 
BRANCH  14  15
ATOM     15  C   LIG A   1      -5.089  -2.727 129.262  0.00  0.00    -0.040 A 
ATOM     16  C   LIG A   1      -5.609  -3.853 129.922  0.00  0.00    +0.053 A 
ATOM     17  C   LIG A   1      -5.056  -4.209 131.134  0.00  0.00    +0.167 A 
ATOM     18  C   LIG A   1      -4.021  -3.500 131.697  0.00  0.00    +0.166 A 
ATOM     19  C   LIG A   1      -3.479  -2.397 131.078  0.00  0.00    +0.050 A 
ATOM     20  C   LIG A   1      -4.018  -2.012 129.846  0.00  0.00    +0.007 A 
ATOM     21  O   LIG A   1      -3.625  -4.017 132.890  0.00  0.00    -0.453 OA
ATOM     22  C   LIG A   1      -4.523  -5.139 133.011  0.00  0.00    +0.466 C 
ATOM     23  O   LIG A   1      -5.443  -5.260 131.905  0.00  0.00    -0.453 OA
ENDBRANCH  14  15
ENDBRANCH  11  14
BRANCH   5  24
ATOM     24  C   LIG A   1      -7.752  -1.851 122.509  0.00  0.00    +0.074 C 
BRANCH  24  25
ATOM     25  C   LIG A   1      -6.288  -1.731 122.875  0.00  0.00    -0.031 C 
ATOM     26  C   LIG A   1      -5.543  -2.745 123.327  0.00  0.00    +0.004 C 
ENDBRANCH  24  25
ENDBRANCH   5  24
TORSDOF 5
ENDMDL
MODEL 6
REMARK VINA RESULT:      -7.6      8.155     10.166
REMARK  Name = NuBBE_2516
REMARK  7 active torsions:
REMARK  status: ('A' for Active; 'I' for Inactive)
REMARK    1  A    between atoms: C_1  and  C_2
REMARK    2  A    between atoms: C_6  and  C_24
REMARK    3  A    between atoms: C_6  and  O_27
REMARK    4  A    between atoms: C_12  and  C_14
REMARK    5  A    between atoms: C_14  and  C_15
REMARK    6  A    between atoms: C_24  and  C_25
REMARK    7  A    between atoms: O_27  and  C_28
REMARK                            x       y       z     vdW  Elec       q    Type
REMARK                         _______ _______ _______ _____ _____    ______ ____
ROOT
ATOM      1  C   LIG A   1      -7.537   3.303 129.154  0.00  0.00    +0.016 C 
ATOM      2  C   LIG A   1      -7.176   4.718 129.605  0.00  0.00    +0.060 C 
ATOM      3  C   LIG A   1      -5.708   4.864 129.799  0.00  0.00    -0.000 C 
ATOM      4  C   LIG A   1      -4.735   5.054 128.903  0.00  0.00    +0.023 C 
ATOM      5  C   LIG A   1      -3.265   5.158 129.281  0.00  0.00    +0.153 C 
ATOM      6  C   LIG A   1      -3.059   4.993 130.835  0.00  0.00    +0.195 C 
ATOM      7  O   LIG A   1      -1.947   5.058 131.367  0.00  0.00    -0.289 OA
ATOM      8  C   LIG A   1      -4.232   4.793 131.729  0.00  0.00    +0.095 C 
ATOM      9  C   LIG A   1      -5.450   4.762 131.199  0.00  0.00    +0.128 C 
ATOM     10  O   LIG A   1      -6.611   4.643 131.937  0.00  0.00    -0.487 OA
ATOM     11  C   LIG A   1      -7.686   5.007 131.029  0.00  0.00    +0.185 C 
ENDROOT
BRANCH   5  12
ATOM     12  O   LIG A   1      -2.634   4.126 128.508  0.00  0.00    -0.364 OA
ATOM     13  C   LIG A   1      -3.083   3.968 127.169  0.00  0.00    +0.195 C 
ENDBRANCH   5  12
BRANCH  11  14
ATOM     14  C   LIG A   1      -8.060   6.481 131.286  0.00  0.00    +0.080 C 
BRANCH  14  15
ATOM     15  C   LIG A   1      -9.461   6.843 130.852  0.00  0.00    -0.040 A 
ATOM     16  C   LIG A   1      -9.680   7.603 129.690  0.00  0.00    +0.053 A 
ATOM     17  C   LIG A   1     -10.980   7.921 129.356  0.00  0.00    +0.167 A 
ATOM     18  C   LIG A   1     -12.047   7.513 130.121  0.00  0.00    +0.166 A 
ATOM     19  C   LIG A   1     -11.875   6.762 131.262  0.00  0.00    +0.050 A 
ATOM     20  C   LIG A   1     -10.567   6.422 131.626  0.00  0.00    +0.007 A 
ATOM     21  O   LIG A   1     -13.238   7.932 129.618  0.00  0.00    -0.453 OA
ATOM     22  C   LIG A   1     -12.801   8.643 128.442  0.00  0.00    +0.466 C 
ATOM     23  O   LIG A   1     -11.367   8.650 128.277  0.00  0.00    -0.453 OA
ENDBRANCH  14  15
ENDBRANCH  11  14
BRANCH   5  24
ATOM     24  C   LIG A   1      -2.734   6.575 128.905  0.00  0.00    +0.074 C 
BRANCH  24  25
ATOM     25  C   LIG A   1      -3.767   7.679 128.959  0.00  0.00    -0.031 C 
ATOM     26  C   LIG A   1      -4.003   8.435 130.038  0.00  0.00    +0.004 C 
ENDBRANCH  24  25
ENDBRANCH   5  24
TORSDOF 5
ENDMDL
MODEL 7
REMARK VINA RESULT:      -7.6      3.252      7.346
REMARK  Name = NuBBE_2516
REMARK  7 active torsions:
REMARK  status: ('A' for Active; 'I' for Inactive)
REMARK    1  A    between atoms: C_1  and  C_2
REMARK    2  A    between atoms: C_6  and  C_24
REMARK    3  A    between atoms: C_6  and  O_27
REMARK    4  A    between atoms: C_12  and  C_14
REMARK    5  A    between atoms: C_14  and  C_15
REMARK    6  A    between atoms: C_24  and  C_25
REMARK    7  A    between atoms: O_27  and  C_28
REMARK                            x       y       z     vdW  Elec       q    Type
REMARK                         _______ _______ _______ _____ _____    ______ ____
ROOT
ATOM      1  C   LIG A   1      -8.678  -3.604 128.202  0.00  0.00    +0.016 C 
ATOM      2  C   LIG A   1      -8.061  -2.218 128.010  0.00  0.00    +0.060 C 
ATOM      3  C   LIG A   1      -7.963  -1.867 126.568  0.00  0.00    -0.000 C 
ATOM      4  C   LIG A   1      -8.896  -1.412 125.726  0.00  0.00    +0.023 C 
ATOM      5  C   LIG A   1      -8.622  -1.126 124.257  0.00  0.00    +0.153 C 
ATOM      6  C   LIG A   1      -7.128  -1.454 123.877  0.00  0.00    +0.195 C 
ATOM      7  O   LIG A   1      -6.679  -1.281 122.739  0.00  0.00    -0.289 OA
ATOM      8  C   LIG A   1      -6.182  -1.950 124.914  0.00  0.00    +0.095 C 
ATOM      9  C   LIG A   1      -6.615  -2.106 126.161  0.00  0.00    +0.128 C 
ATOM     10  O   LIG A   1      -5.813  -2.501 127.213  0.00  0.00    -0.487 OA
ATOM     11  C   LIG A   1      -6.574  -2.199 128.414  0.00  0.00    +0.185 C 
ENDROOT
BRANCH   5  12
ATOM     12  O   LIG A   1      -9.580  -1.937 123.561  0.00  0.00    -0.364 OA
ATOM     13  C   LIG A   1      -9.389  -3.344 123.623  0.00  0.00    +0.195 C 
ENDBRANCH   5  12
BRANCH  11  14
ATOM     14  C   LIG A   1      -6.083  -0.848 128.974  0.00  0.00    +0.080 C 
BRANCH  14  15
ATOM     15  C   LIG A   1      -7.160  -0.038 129.657  0.00  0.00    -0.040 A 
ATOM     16  C   LIG A   1      -7.667   1.130 129.064  0.00  0.00    +0.053 A 
ATOM     17  C   LIG A   1      -8.633   1.839 129.746  0.00  0.00    +0.167 A 
ATOM     18  C   LIG A   1      -9.106   1.430 130.971  0.00  0.00    +0.166 A 
ATOM     19  C   LIG A   1      -8.641   0.288 131.581  0.00  0.00    +0.050 A 
ATOM     20  C   LIG A   1      -7.661  -0.454 130.913  0.00  0.00    +0.007 A 
ATOM     21  O   LIG A   1     -10.052   2.268 131.469  0.00  0.00    -0.453 OA
ATOM     22  C   LIG A   1     -10.130   3.249 130.414  0.00  0.00    +0.466 C 
ATOM     23  O   LIG A   1      -9.222   2.989 129.322  0.00  0.00    -0.453 OA
ENDBRANCH  14  15
ENDBRANCH  11  14
BRANCH   5  24
ATOM     24  C   LIG A   1      -8.833   0.394 123.979  0.00  0.00    +0.074 C 
BRANCH  24  25
ATOM     25  C   LIG A   1      -7.932   1.319 124.769  0.00  0.00    -0.031 C 
ATOM     26  C   LIG A   1      -7.312   2.385 124.250  0.00  0.00    +0.004 C 
ENDBRANCH  24  25
ENDBRANCH   5  24
TORSDOF 5
ENDMDL
MODEL 8
REMARK VINA RESULT:      -7.5      6.224      7.925
REMARK  Name = NuBBE_2516
REMARK  7 active torsions:
REMARK  status: ('A' for Active; 'I' for Inactive)
REMARK    1  A    between atoms: C_1  and  C_2
REMARK    2  A    between atoms: C_6  and  C_24
REMARK    3  A    between atoms: C_6  and  O_27
REMARK    4  A    between atoms: C_12  and  C_14
REMARK    5  A    between atoms: C_14  and  C_15
REMARK    6  A    between atoms: C_24  and  C_25
REMARK    7  A    between atoms: O_27  and  C_28
REMARK                            x       y       z     vdW  Elec       q    Type
REMARK                         _______ _______ _______ _____ _____    ______ ____
ROOT
ATOM      1  C   LIG A   1      -1.753   3.189 126.732  0.00  0.00    +0.016 C 
ATOM      2  C   LIG A   1      -3.131   3.772 127.044  0.00  0.00    +0.060 C 
ATOM      3  C   LIG A   1      -3.299   4.008 128.504  0.00  0.00    -0.000 C 
ATOM      4  C   LIG A   1      -2.858   5.009 129.271  0.00  0.00    +0.023 C 
ATOM      5  C   LIG A   1      -3.104   5.077 130.771  0.00  0.00    +0.153 C 
ATOM      6  C   LIG A   1      -3.912   3.823 131.278  0.00  0.00    +0.195 C 
ATOM      7  O   LIG A   1      -4.239   3.677 132.460  0.00  0.00    -0.289 OA
ATOM      8  C   LIG A   1      -4.353   2.776 130.316  0.00  0.00    +0.095 C 
ATOM      9  C   LIG A   1      -4.061   2.920 129.027  0.00  0.00    +0.128 C 
ATOM     10  O   LIG A   1      -4.470   2.045 128.040  0.00  0.00    -0.487 OA
ATOM     11  C   LIG A   1      -4.252   2.747 126.787  0.00  0.00    +0.185 C 
ENDROOT
BRANCH   5  12
ATOM     12  O   LIG A   1      -1.788   5.175 131.334  0.00  0.00    -0.364 OA
ATOM     13  C   LIG A   1      -1.349   6.474 131.708  0.00  0.00    +0.195 C 
ENDBRANCH   5  12
BRANCH  11  14
ATOM     14  C   LIG A   1      -5.592   3.367 126.338  0.00  0.00    +0.080 C 
BRANCH  14  15
ATOM     15  C   LIG A   1      -5.811   3.341 124.843  0.00  0.00    -0.040 A 
ATOM     16  C   LIG A   1      -5.204   4.297 124.012  0.00  0.00    +0.053 A 
ATOM     17  C   LIG A   1      -5.459   4.236 122.658  0.00  0.00    +0.167 A 
ATOM     18  C   LIG A   1      -6.276   3.272 122.114  0.00  0.00    +0.166 A 
ATOM     19  C   LIG A   1      -6.881   2.314 122.895  0.00  0.00    +0.050 A 
ATOM     20  C   LIG A   1      -6.642   2.349 124.273  0.00  0.00    +0.007 A 
ATOM     21  O   LIG A   1      -6.393   3.390 120.766  0.00  0.00    -0.453 OA
ATOM     22  C   LIG A   1      -5.549   4.533 120.518  0.00  0.00    +0.466 C 
ATOM     23  O   LIG A   1      -4.963   5.083 121.717  0.00  0.00    -0.453 OA
ENDBRANCH  14  15
ENDBRANCH  11  14
BRANCH   5  24
ATOM     24  C   LIG A   1      -3.972   6.332 131.095  0.00  0.00    +0.074 C 
BRANCH  24  25
ATOM     25  C   LIG A   1      -5.379   6.296 130.540  0.00  0.00    -0.031 C 
ATOM     26  C   LIG A   1      -6.425   6.906 131.108  0.00  0.00    +0.004 C 
ENDBRANCH  24  25
ENDBRANCH   5  24
TORSDOF 5
ENDMDL
MODEL 9
REMARK VINA RESULT:      -7.3      2.602      4.716
REMARK  Name = NuBBE_2516
REMARK  7 active torsions:
REMARK  status: ('A' for Active; 'I' for Inactive)
REMARK    1  A    between atoms: C_1  and  C_2
REMARK    2  A    between atoms: C_6  and  C_24
REMARK    3  A    between atoms: C_6  and  O_27
REMARK    4  A    between atoms: C_12  and  C_14
REMARK    5  A    between atoms: C_14  and  C_15
REMARK    6  A    between atoms: C_24  and  C_25
REMARK    7  A    between atoms: O_27  and  C_28
REMARK                            x       y       z     vdW  Elec       q    Type
REMARK                         _______ _______ _______ _____ _____    ______ ____
ROOT
ATOM      1  C   LIG A   1      -5.556  -2.405 123.783  0.00  0.00    +0.016 C 
ATOM      2  C   LIG A   1      -6.735  -1.568 124.279  0.00  0.00    +0.060 C 
ATOM      3  C   LIG A   1      -7.119  -1.947 125.666  0.00  0.00    -0.000 C 
ATOM      4  C   LIG A   1      -6.569  -1.608 126.835  0.00  0.00    +0.023 C 
ATOM      5  C   LIG A   1      -7.084  -2.115 128.174  0.00  0.00    +0.153 C 
ATOM      6  C   LIG A   1      -8.312  -3.086 127.986  0.00  0.00    +0.195 C 
ATOM      7  O   LIG A   1      -8.900  -3.603 128.941  0.00  0.00    -0.289 OA
ATOM      8  C   LIG A   1      -8.836  -3.377 126.624  0.00  0.00    +0.095 C 
ATOM      9  C   LIG A   1      -8.257  -2.804 125.574  0.00  0.00    +0.128 C 
ATOM     10  O   LIG A   1      -8.696  -2.954 124.273  0.00  0.00    -0.487 OA
ATOM     11  C   LIG A   1      -8.030  -1.906 123.518  0.00  0.00    +0.185 C 
ENDROOT
BRANCH   5  12
ATOM     12  O   LIG A   1      -5.942  -2.747 128.769  0.00  0.00    -0.364 OA
ATOM     13  C   LIG A   1      -5.713  -2.483 130.147  0.00  0.00    +0.195 C 
ENDBRANCH   5  12
BRANCH  11  14
ATOM     14  C   LIG A   1      -9.007  -0.722 123.365  0.00  0.00    +0.080 C 
BRANCH  14  15
ATOM     15  C   LIG A   1      -8.400   0.622 123.695  0.00  0.00    -0.040 A 
ATOM     16  C   LIG A   1      -8.928   1.413 124.729  0.00  0.00    +0.053 A 
ATOM     17  C   LIG A   1      -8.345   2.640 124.970  0.00  0.00    +0.167 A 
ATOM     18  C   LIG A   1      -7.275   3.093 124.236  0.00  0.00    +0.166 A 
ATOM     19  C   LIG A   1      -6.725   2.344 123.221  0.00  0.00    +0.050 A 
ATOM     20  C   LIG A   1      -7.293   1.094 122.953  0.00  0.00    +0.007 A 
ATOM     21  O   LIG A   1      -6.854   4.323 124.634  0.00  0.00    -0.453 OA
ATOM     22  C   LIG A   1      -7.776   4.590 125.710  0.00  0.00    +0.466 C 
ATOM     23  O   LIG A   1      -8.734   3.531 125.921  0.00  0.00    -0.453 OA
ENDBRANCH  14  15
ENDBRANCH  11  14
BRANCH   5  24
ATOM     24  C   LIG A   1      -7.591  -0.908 129.022  0.00  0.00    +0.074 C 
BRANCH  24  25
ATOM     25  C   LIG A   1      -7.605   0.421 128.299  0.00  0.00    -0.031 C 
ATOM     26  C   LIG A   1      -8.356   1.466 128.664  0.00  0.00    +0.004 C 
ENDBRANCH  24  25
ENDBRANCH   5  24
TORSDOF 5
ENDMDL
