MODEL 1
REMARK VINA RESULT:      -7.7      0.000      0.000
REMARK  Name = NuBBE_1758
REMARK  5 active torsions:
REMARK  status: ('A' for Active; 'I' for Inactive)
REMARK    1  A    between atoms: C_1  and  O_3
REMARK    2  A    between atoms: C_1  and  C_5
REMARK    3  A    between atoms: O_3  and  C_4
REMARK    4  A    between atoms: C_20  and  C_21
REMARK    5  A    between atoms: C_21  and  C_22
REMARK                            x       y       z     vdW  Elec       q    Type
REMARK                         _______ _______ _______ _____ _____    ______ ____
ROOT
ATOM      1  C   LIG A   1      -7.598  -0.674 125.106  0.00  0.00    +0.112 C 
ATOM      2  C   LIG A   1      -7.088   0.521 125.978  0.00  0.00    +0.114 C 
ATOM      3  N   LIG A   1      -5.947   1.235 125.305  0.00  0.00    -0.330 N 
ATOM      4  C   LIG A   1      -6.267   2.606 125.349  0.00  0.00    +0.038 A 
ATOM      5  C   LIG A   1      -7.555   2.893 125.779  0.00  0.00    +0.040 A 
ATOM      6  C   LIG A   1      -8.148   1.631 126.177  0.00  0.00    +0.189 C 
ATOM      7  O   LIG A   1      -9.270   1.540 126.651  0.00  0.00    -0.290 OA
ATOM      8  C   LIG A   1      -8.079   4.170 125.838  0.00  0.00    +0.013 A 
ATOM      9  C   LIG A   1      -7.257   5.213 125.415  0.00  0.00    +0.001 A 
ATOM     10  C   LIG A   1      -5.957   4.947 124.949  0.00  0.00    +0.002 A 
ATOM     11  C   LIG A   1      -5.459   3.637 124.906  0.00  0.00    +0.024 A 
ATOM     12  C   LIG A   1      -6.626   0.065 127.377  0.00  0.00    +0.050 C 
ATOM     13  C   LIG A   1      -5.722  -1.164 127.318  0.00  0.00    +0.087 C 
ATOM     14  N   LIG A   1      -6.250  -2.236 126.478  0.00  0.00    -0.298 NA
ATOM     15  C   LIG A   1      -6.487  -1.771 125.084  0.00  0.00    +0.079 C 
ATOM     16  C   LIG A   1      -6.882  -3.023 124.236  0.00  0.00    +0.007 C 
ATOM     17  C   LIG A   1      -8.213  -3.591 124.772  0.00  0.00    +0.010 C 
ATOM     18  C   LIG A   1      -8.615  -2.830 126.039  0.00  0.00    +0.005 C 
ATOM     19  C   LIG A   1      -8.888  -1.359 125.677  0.00  0.00    +0.027 C 
ATOM     20  C   LIG A   1      -7.453  -2.878 127.043  0.00  0.00    +0.088 C 
ATOM     21  H   LIG A   1      -5.003   1.022 125.617  0.00  0.00    +0.147 HD
ENDROOT
BRANCH   1  22
ATOM     22  C   LIG A   1      -7.837  -0.148 123.685  0.00  0.00    +0.317 C 
ATOM     23  O   LIG A   1      -6.957   0.203 122.909  0.00  0.00    -0.250 OA
BRANCH  22  24
ATOM     24  O   LIG A   1      -9.170  -0.083 123.408  0.00  0.00    -0.467 OA
ATOM     25  C   LIG A   1      -9.664   1.169 122.929  0.00  0.00    +0.280 C 
ENDBRANCH  22  24
ENDBRANCH   1  22
BRANCH  16  26
ATOM     26  C   LIG A   1      -5.793  -4.123 124.217  0.00  0.00    +0.002 C 
ATOM     27  C   LIG A   1      -4.505  -3.697 123.525  0.00  0.00    +0.004 C 
ENDBRANCH  16  26
TORSDOF 3
ENDMDL
MODEL 2
REMARK VINA RESULT:      -7.6      2.258      3.862
REMARK  Name = NuBBE_1758
REMARK  5 active torsions:
REMARK  status: ('A' for Active; 'I' for Inactive)
REMARK    1  A    between atoms: C_1  and  O_3
REMARK    2  A    between atoms: C_1  and  C_5
REMARK    3  A    between atoms: O_3  and  C_4
REMARK    4  A    between atoms: C_20  and  C_21
REMARK    5  A    between atoms: C_21  and  C_22
REMARK                            x       y       z     vdW  Elec       q    Type
REMARK                         _______ _______ _______ _____ _____    ______ ____
ROOT
ATOM      1  C   LIG A   1      -6.804  -1.003 125.475  0.00  0.00    +0.112 C 
ATOM      2  C   LIG A   1      -7.990  -0.789 126.473  0.00  0.00    +0.114 C 
ATOM      3  N   LIG A   1      -7.643  -1.299 127.846  0.00  0.00    -0.330 N 
ATOM      4  C   LIG A   1      -7.979  -0.264 128.741  0.00  0.00    +0.038 A 
ATOM      5  C   LIG A   1      -8.316   0.942 128.141  0.00  0.00    +0.040 A 
ATOM      6  C   LIG A   1      -8.328   0.703 126.712  0.00  0.00    +0.189 C 
ATOM      7  O   LIG A   1      -8.636   1.557 125.894  0.00  0.00    -0.290 OA
ATOM      8  C   LIG A   1      -8.621   2.091 128.846  0.00  0.00    +0.013 A 
ATOM      9  C   LIG A   1      -8.558   2.018 130.236  0.00  0.00    +0.001 A 
ATOM     10  C   LIG A   1      -8.193   0.816 130.868  0.00  0.00    +0.002 A 
ATOM     11  C   LIG A   1      -7.893  -0.331 130.119  0.00  0.00    +0.024 A 
ATOM     12  C   LIG A   1      -9.282  -1.487 126.000  0.00  0.00    +0.050 C 
ATOM     13  C   LIG A   1      -9.031  -2.922 125.545  0.00  0.00    +0.087 C 
ATOM     14  N   LIG A   1      -7.904  -3.055 124.626  0.00  0.00    -0.298 NA
ATOM     15  C   LIG A   1      -6.645  -2.537 125.229  0.00  0.00    +0.079 C 
ATOM     16  C   LIG A   1      -5.481  -2.879 124.244  0.00  0.00    +0.007 C 
ATOM     17  C   LIG A   1      -5.710  -2.125 122.918  0.00  0.00    +0.010 C 
ATOM     18  C   LIG A   1      -7.068  -1.419 122.963  0.00  0.00    +0.005 C 
ATOM     19  C   LIG A   1      -7.042  -0.349 124.070  0.00  0.00    +0.027 C 
ATOM     20  C   LIG A   1      -8.157  -2.448 123.305  0.00  0.00    +0.088 C 
ATOM     21  H   LIG A   1      -8.000  -2.211 128.118  0.00  0.00    +0.147 HD
ENDROOT
BRANCH   1  22
ATOM     22  C   LIG A   1      -5.534  -0.448 126.133  0.00  0.00    +0.317 C 
ATOM     23  O   LIG A   1      -4.969  -0.944 127.100  0.00  0.00    -0.250 OA
BRANCH  22  24
ATOM     24  O   LIG A   1      -5.132   0.702 125.520  0.00  0.00    -0.467 OA
ATOM     25  C   LIG A   1      -4.785   1.793 126.375  0.00  0.00    +0.280 C 
ENDBRANCH  22  24
ENDBRANCH   1  22
BRANCH  16  26
ATOM     26  C   LIG A   1      -5.322  -4.397 123.982  0.00  0.00    +0.002 C 
ATOM     27  C   LIG A   1      -3.930  -4.794 123.511  0.00  0.00    +0.004 C 
ENDBRANCH  16  26
TORSDOF 3
ENDMDL
MODEL 3
REMARK VINA RESULT:      -7.4      3.518      6.417
REMARK  Name = NuBBE_1758
REMARK  5 active torsions:
REMARK  status: ('A' for Active; 'I' for Inactive)
REMARK    1  A    between atoms: C_1  and  O_3
REMARK    2  A    between atoms: C_1  and  C_5
REMARK    3  A    between atoms: O_3  and  C_4
REMARK    4  A    between atoms: C_20  and  C_21
REMARK    5  A    between atoms: C_21  and  C_22
REMARK                            x       y       z     vdW  Elec       q    Type
REMARK                         _______ _______ _______ _____ _____    ______ ____
ROOT
ATOM      1  C   LIG A   1      -6.732  -1.703 127.973  0.00  0.00    +0.112 C 
ATOM      2  C   LIG A   1      -7.327  -2.751 128.970  0.00  0.00    +0.114 C 
ATOM      3  N   LIG A   1      -6.369  -3.889 129.197  0.00  0.00    -0.330 N 
ATOM      4  C   LIG A   1      -6.284  -4.052 130.594  0.00  0.00    +0.038 A 
ATOM      5  C   LIG A   1      -6.896  -3.053 131.338  0.00  0.00    +0.040 A 
ATOM      6  C   LIG A   1      -7.561  -2.182 130.390  0.00  0.00    +0.189 C 
ATOM      7  O   LIG A   1      -8.238  -1.221 130.726  0.00  0.00    -0.290 OA
ATOM      8  C   LIG A   1      -6.875  -3.001 132.719  0.00  0.00    +0.013 A 
ATOM      9  C   LIG A   1      -6.174  -4.007 133.381  0.00  0.00    +0.001 A 
ATOM     10  C   LIG A   1      -5.521  -5.016 132.650  0.00  0.00    +0.002 A 
ATOM     11  C   LIG A   1      -5.567  -5.037 131.249  0.00  0.00    +0.024 A 
ATOM     12  C   LIG A   1      -8.669  -3.329 128.475  0.00  0.00    +0.050 C 
ATOM     13  C   LIG A   1      -8.615  -3.747 127.008  0.00  0.00    +0.087 C 
ATOM     14  N   LIG A   1      -8.037  -2.730 126.133  0.00  0.00    -0.298 NA
ATOM     15  C   LIG A   1      -6.658  -2.362 126.559  0.00  0.00    +0.079 C 
ATOM     16  C   LIG A   1      -6.073  -1.407 125.469  0.00  0.00    +0.007 C 
ATOM     17  C   LIG A   1      -6.912  -0.113 125.436  0.00  0.00    +0.010 C 
ATOM     18  C   LIG A   1      -8.116  -0.264 126.370  0.00  0.00    +0.005 C 
ATOM     19  C   LIG A   1      -7.613  -0.416 127.818  0.00  0.00    +0.027 C 
ATOM     20  C   LIG A   1      -8.892  -1.536 125.988  0.00  0.00    +0.088 C 
ATOM     21  H   LIG A   1      -6.532  -4.756 128.691  0.00  0.00    +0.147 HD
ENDROOT
BRANCH   1  22
ATOM     22  C   LIG A   1      -5.319  -1.349 128.454  0.00  0.00    +0.317 C 
ATOM     23  O   LIG A   1      -4.372  -2.125 128.484  0.00  0.00    -0.250 OA
BRANCH  22  24
ATOM     24  O   LIG A   1      -5.263  -0.057 128.886  0.00  0.00    -0.467 OA
ATOM     25  C   LIG A   1      -4.651   0.165 130.159  0.00  0.00    +0.280 C 
ENDBRANCH  22  24
ENDBRANCH   1  22
BRANCH  16  26
ATOM     26  C   LIG A   1      -6.007  -2.046 124.061  0.00  0.00    +0.002 C 
ATOM     27  C   LIG A   1      -5.063  -3.237 123.973  0.00  0.00    +0.004 C 
ENDBRANCH  16  26
TORSDOF 3
ENDMDL
MODEL 4
REMARK VINA RESULT:      -7.4      2.147      3.213
REMARK  Name = NuBBE_1758
REMARK  5 active torsions:
REMARK  status: ('A' for Active; 'I' for Inactive)
REMARK    1  A    between atoms: C_1  and  O_3
REMARK    2  A    between atoms: C_1  and  C_5
REMARK    3  A    between atoms: O_3  and  C_4
REMARK    4  A    between atoms: C_20  and  C_21
REMARK    5  A    between atoms: C_21  and  C_22
REMARK                            x       y       z     vdW  Elec       q    Type
REMARK                         _______ _______ _______ _____ _____    ______ ____
ROOT
ATOM      1  C   LIG A   1      -7.651   0.282 124.759  0.00  0.00    +0.112 C 
ATOM      2  C   LIG A   1      -7.553   1.788 124.346  0.00  0.00    +0.114 C 
ATOM      3  N   LIG A   1      -6.333   2.041 123.502  0.00  0.00    -0.330 N 
ATOM      4  C   LIG A   1      -6.779   2.767 122.381  0.00  0.00    +0.038 A 
ATOM      5  C   LIG A   1      -8.159   2.862 122.257  0.00  0.00    +0.040 A 
ATOM      6  C   LIG A   1      -8.723   2.254 123.445  0.00  0.00    +0.189 C 
ATOM      7  O   LIG A   1      -9.923   2.216 123.672  0.00  0.00    -0.290 OA
ATOM      8  C   LIG A   1      -8.794   3.483 121.198  0.00  0.00    +0.013 A 
ATOM      9  C   LIG A   1      -7.985   4.017 120.197  0.00  0.00    +0.001 A 
ATOM     10  C   LIG A   1      -6.585   3.910 120.285  0.00  0.00    +0.002 A 
ATOM     11  C   LIG A   1      -5.976   3.274 121.376  0.00  0.00    +0.024 A 
ATOM     12  C   LIG A   1      -7.508   2.726 125.569  0.00  0.00    +0.050 C 
ATOM     13  C   LIG A   1      -6.518   2.250 126.629  0.00  0.00    +0.087 C 
ATOM     14  N   LIG A   1      -6.653   0.834 126.959  0.00  0.00    -0.298 NA
ATOM     15  C   LIG A   1      -6.489  -0.027 125.756  0.00  0.00    +0.079 C 
ATOM     16  C   LIG A   1      -6.480  -1.512 126.242  0.00  0.00    +0.007 C 
ATOM     17  C   LIG A   1      -7.850  -1.842 126.867  0.00  0.00    +0.010 C 
ATOM     18  C   LIG A   1      -8.697  -0.568 126.935  0.00  0.00    +0.005 C 
ATOM     19  C   LIG A   1      -8.983  -0.077 125.504  0.00  0.00    +0.027 C 
ATOM     20  C   LIG A   1      -7.905   0.522 127.676  0.00  0.00    +0.088 C 
ATOM     21  H   LIG A   1      -5.517   2.444 123.955  0.00  0.00    +0.147 HD
ENDROOT
BRANCH   1  22
ATOM     22  C   LIG A   1      -7.485  -0.563 123.490  0.00  0.00    +0.317 C 
ATOM     23  O   LIG A   1      -6.444  -0.679 122.854  0.00  0.00    -0.250 OA
BRANCH  22  24
ATOM     24  O   LIG A   1      -8.666  -1.143 123.135  0.00  0.00    -0.467 OA
ATOM     25  C   LIG A   1      -8.661  -2.565 122.988  0.00  0.00    +0.280 C 
ENDBRANCH  22  24
ENDBRANCH   1  22
BRANCH  16  26
ATOM     26  C   LIG A   1      -5.339  -1.826 127.240  0.00  0.00    +0.002 C 
ATOM     27  C   LIG A   1      -5.810  -2.525 128.508  0.00  0.00    +0.004 C 
ENDBRANCH  16  26
TORSDOF 3
ENDMDL
MODEL 5
REMARK VINA RESULT:      -7.3      5.832      8.055
REMARK  Name = NuBBE_1758
REMARK  5 active torsions:
REMARK  status: ('A' for Active; 'I' for Inactive)
REMARK    1  A    between atoms: C_1  and  O_3
REMARK    2  A    between atoms: C_1  and  C_5
REMARK    3  A    between atoms: O_3  and  C_4
REMARK    4  A    between atoms: C_20  and  C_21
REMARK    5  A    between atoms: C_21  and  C_22
REMARK                            x       y       z     vdW  Elec       q    Type
REMARK                         _______ _______ _______ _____ _____    ______ ____
ROOT
ATOM      1  C   LIG A   1      -8.844   4.229 130.778  0.00  0.00    +0.112 C 
ATOM      2  C   LIG A   1      -9.837   5.432 130.905  0.00  0.00    +0.114 C 
ATOM      3  N   LIG A   1      -9.276   6.669 130.257  0.00  0.00    -0.330 N 
ATOM      4  C   LIG A   1     -10.299   7.170 129.428  0.00  0.00    +0.038 A 
ATOM      5  C   LIG A   1     -11.395   6.332 129.278  0.00  0.00    +0.040 A 
ATOM      6  C   LIG A   1     -11.175   5.204 130.162  0.00  0.00    +0.189 C 
ATOM      7  O   LIG A   1     -11.983   4.298 130.304  0.00  0.00    -0.290 OA
ATOM      8  C   LIG A   1     -12.475   6.617 128.465  0.00  0.00    +0.013 A 
ATOM      9  C   LIG A   1     -12.429   7.808 127.744  0.00  0.00    +0.001 A 
ATOM     10  C   LIG A   1     -11.318   8.663 127.856  0.00  0.00    +0.002 A 
ATOM     11  C   LIG A   1     -10.241   8.341 128.696  0.00  0.00    +0.024 A 
ATOM     12  C   LIG A   1     -10.173   5.756 132.375  0.00  0.00    +0.050 C 
ATOM     13  C   LIG A   1      -8.928   5.810 133.256  0.00  0.00    +0.087 C 
ATOM     14  N   LIG A   1      -8.038   4.666 133.080  0.00  0.00    -0.298 NA
ATOM     15  C   LIG A   1      -7.595   4.531 131.665  0.00  0.00    +0.079 C 
ATOM     16  C   LIG A   1      -6.523   3.395 131.618  0.00  0.00    +0.007 C 
ATOM     17  C   LIG A   1      -7.187   2.064 132.029  0.00  0.00    +0.010 C 
ATOM     18  C   LIG A   1      -8.624   2.333 132.484  0.00  0.00    +0.005 C 
ATOM     19  C   LIG A   1      -9.437   2.872 131.293  0.00  0.00    +0.027 C 
ATOM     20  C   LIG A   1      -8.609   3.403 133.588  0.00  0.00    +0.088 C 
ATOM     21  H   LIG A   1      -8.852   7.370 130.859  0.00  0.00    +0.147 HD
ENDROOT
BRANCH   1  22
ATOM     22  C   LIG A   1      -8.423   4.123 129.307  0.00  0.00    +0.317 C 
ATOM     23  O   LIG A   1      -7.710   4.928 128.721  0.00  0.00    -0.250 OA
BRANCH  22  24
ATOM     24  O   LIG A   1      -8.983   3.028 128.719  0.00  0.00    -0.467 OA
ATOM     25  C   LIG A   1      -8.091   2.142 128.039  0.00  0.00    +0.280 C 
ENDBRANCH  22  24
ENDBRANCH   1  22
BRANCH  16  26
ATOM     26  C   LIG A   1      -5.286   3.679 132.504  0.00  0.00    +0.002 C 
ATOM     27  C   LIG A   1      -4.951   2.549 133.468  0.00  0.00    +0.004 C 
ENDBRANCH  16  26
TORSDOF 3
ENDMDL
MODEL 6
REMARK VINA RESULT:      -7.3      6.474      8.668
REMARK  Name = NuBBE_1758
REMARK  5 active torsions:
REMARK  status: ('A' for Active; 'I' for Inactive)
REMARK    1  A    between atoms: C_1  and  O_3
REMARK    2  A    between atoms: C_1  and  C_5
REMARK    3  A    between atoms: O_3  and  C_4
REMARK    4  A    between atoms: C_20  and  C_21
REMARK    5  A    between atoms: C_21  and  C_22
REMARK                            x       y       z     vdW  Elec       q    Type
REMARK                         _______ _______ _______ _____ _____    ______ ____
ROOT
ATOM      1  C   LIG A   1      -8.323   4.679 131.113  0.00  0.00    +0.112 C 
ATOM      2  C   LIG A   1      -9.803   4.789 130.618  0.00  0.00    +0.114 C 
ATOM      3  N   LIG A   1     -10.679   5.425 131.663  0.00  0.00    -0.330 N 
ATOM      4  C   LIG A   1     -11.404   6.434 131.000  0.00  0.00    +0.038 A 
ATOM      5  C   LIG A   1     -10.990   6.695 129.701  0.00  0.00    +0.040 A 
ATOM      6  C   LIG A   1      -9.970   5.714 129.388  0.00  0.00    +0.189 C 
ATOM      7  O   LIG A   1      -9.429   5.638 128.296  0.00  0.00    -0.290 OA
ATOM      8  C   LIG A   1     -11.536   7.684 128.905  0.00  0.00    +0.013 A 
ATOM      9  C   LIG A   1     -12.542   8.468 129.467  0.00  0.00    +0.001 A 
ATOM     10  C   LIG A   1     -12.961   8.243 130.790  0.00  0.00    +0.002 A 
ATOM     11  C   LIG A   1     -12.385   7.227 131.567  0.00  0.00    +0.024 A 
ATOM     12  C   LIG A   1     -10.397   3.414 130.248  0.00  0.00    +0.050 C 
ATOM     13  C   LIG A   1     -10.116   2.356 131.312  0.00  0.00    +0.087 C 
ATOM     14  N   LIG A   1      -8.721   2.315 131.740  0.00  0.00    -0.298 NA
ATOM     15  C   LIG A   1      -8.272   3.631 132.271  0.00  0.00    +0.079 C 
ATOM     16  C   LIG A   1      -6.836   3.434 132.854  0.00  0.00    +0.007 C 
ATOM     17  C   LIG A   1      -5.880   3.042 131.708  0.00  0.00    +0.010 C 
ATOM     18  C   LIG A   1      -6.687   2.834 130.423  0.00  0.00    +0.005 C 
ATOM     19  C   LIG A   1      -7.330   4.171 130.011  0.00  0.00    +0.027 C 
ATOM     20  C   LIG A   1      -7.807   1.817 130.693  0.00  0.00    +0.088 C 
ATOM     21  H   LIG A   1     -11.254   4.813 132.237  0.00  0.00    +0.147 HD
ENDROOT
BRANCH   1  22
ATOM     22  C   LIG A   1      -7.902   6.056 131.641  0.00  0.00    +0.317 C 
ATOM     23  O   LIG A   1      -8.309   6.565 132.678  0.00  0.00    -0.250 OA
BRANCH  22  24
ATOM     24  O   LIG A   1      -7.038   6.664 130.779  0.00  0.00    -0.467 OA
ATOM     25  C   LIG A   1      -5.723   6.928 131.273  0.00  0.00    +0.280 C 
ENDBRANCH  22  24
ENDBRANCH   1  22
BRANCH  16  26
ATOM     26  C   LIG A   1      -6.772   2.389 133.993  0.00  0.00    +0.002 C 
ATOM     27  C   LIG A   1      -5.722   1.309 133.776  0.00  0.00    +0.004 C 
ENDBRANCH  16  26
TORSDOF 3
ENDMDL
MODEL 7
REMARK VINA RESULT:      -7.1      6.669      8.262
REMARK  Name = NuBBE_1758
REMARK  5 active torsions:
REMARK  status: ('A' for Active; 'I' for Inactive)
REMARK    1  A    between atoms: C_1  and  O_3
REMARK    2  A    between atoms: C_1  and  C_5
REMARK    3  A    between atoms: O_3  and  C_4
REMARK    4  A    between atoms: C_20  and  C_21
REMARK    5  A    between atoms: C_21  and  C_22
REMARK                            x       y       z     vdW  Elec       q    Type
REMARK                         _______ _______ _______ _____ _____    ______ ____
ROOT
ATOM      1  C   LIG A   1      -8.343   4.374 131.306  0.00  0.00    +0.112 C 
ATOM      2  C   LIG A   1      -8.748   5.836 130.925  0.00  0.00    +0.114 C 
ATOM      3  N   LIG A   1      -9.062   5.947 129.457  0.00  0.00    -0.330 N 
ATOM      4  C   LIG A   1     -10.298   6.617 129.374  0.00  0.00    +0.038 A 
ATOM      5  C   LIG A   1     -10.952   6.793 130.586  0.00  0.00    +0.040 A 
ATOM      6  C   LIG A   1     -10.051   6.310 131.614  0.00  0.00    +0.189 C 
ATOM      7  O   LIG A   1     -10.307   6.367 132.807  0.00  0.00    -0.290 OA
ATOM      8  C   LIG A   1     -12.199   7.375 130.709  0.00  0.00    +0.013 A 
ATOM      9  C   LIG A   1     -12.829   7.781 129.534  0.00  0.00    +0.001 A 
ATOM     10  C   LIG A   1     -12.200   7.590 128.290  0.00  0.00    +0.002 A 
ATOM     11  C   LIG A   1     -10.932   6.997 128.205  0.00  0.00    +0.024 A 
ATOM     12  C   LIG A   1      -7.644   6.856 131.271  0.00  0.00    +0.050 C 
ATOM     13  C   LIG A   1      -6.264   6.395 130.809  0.00  0.00    +0.087 C 
ATOM     14  N   LIG A   1      -5.953   5.018 131.185  0.00  0.00    -0.298 NA
ATOM     15  C   LIG A   1      -6.961   4.064 130.647  0.00  0.00    +0.079 C 
ATOM     16  C   LIG A   1      -6.448   2.621 130.956  0.00  0.00    +0.007 C 
ATOM     17  C   LIG A   1      -6.390   2.427 132.485  0.00  0.00    +0.010 C 
ATOM     18  C   LIG A   1      -6.710   3.755 133.178  0.00  0.00    +0.005 C 
ATOM     19  C   LIG A   1      -8.159   4.158 132.848  0.00  0.00    +0.027 C 
ATOM     20  C   LIG A   1      -5.766   4.842 132.639  0.00  0.00    +0.088 C 
ATOM     21  H   LIG A   1      -8.345   6.329 128.846  0.00  0.00    +0.147 HD
ENDROOT
BRANCH   1  22
ATOM     22  C   LIG A   1      -9.411   3.429 130.741  0.00  0.00    +0.317 C 
ATOM     23  O   LIG A   1      -9.652   3.274 129.550  0.00  0.00    -0.250 OA
BRANCH  22  24
ATOM     24  O   LIG A   1     -10.091   2.808 131.746  0.00  0.00    -0.467 OA
ATOM     25  C   LIG A   1      -9.930   1.391 131.846  0.00  0.00    +0.280 C 
ENDBRANCH  22  24
ENDBRANCH   1  22
BRANCH  16  26
ATOM     26  C   LIG A   1      -5.073   2.306 130.318  0.00  0.00    +0.002 C 
ATOM     27  C   LIG A   1      -4.077   1.682 131.286  0.00  0.00    +0.004 C 
ENDBRANCH  16  26
TORSDOF 3
ENDMDL
MODEL 8
REMARK VINA RESULT:      -6.9      2.320      5.705
REMARK  Name = NuBBE_1758
REMARK  5 active torsions:
REMARK  status: ('A' for Active; 'I' for Inactive)
REMARK    1  A    between atoms: C_1  and  O_3
REMARK    2  A    between atoms: C_1  and  C_5
REMARK    3  A    between atoms: O_3  and  C_4
REMARK    4  A    between atoms: C_20  and  C_21
REMARK    5  A    between atoms: C_21  and  C_22
REMARK                            x       y       z     vdW  Elec       q    Type
REMARK                         _______ _______ _______ _____ _____    ______ ____
ROOT
ATOM      1  C   LIG A   1      -7.234  -0.220 126.617  0.00  0.00    +0.112 C 
ATOM      2  C   LIG A   1      -6.580  -1.629 126.809  0.00  0.00    +0.114 C 
ATOM      3  N   LIG A   1      -5.185  -1.509 127.360  0.00  0.00    -0.330 N 
ATOM      4  C   LIG A   1      -5.119  -2.404 128.446  0.00  0.00    +0.038 A 
ATOM      5  C   LIG A   1      -6.335  -2.959 128.823  0.00  0.00    +0.040 A 
ATOM      6  C   LIG A   1      -7.312  -2.506 127.854  0.00  0.00    +0.189 C 
ATOM      7  O   LIG A   1      -8.483  -2.856 127.872  0.00  0.00    -0.290 OA
ATOM      8  C   LIG A   1      -6.489  -3.814 129.898  0.00  0.00    +0.013 A 
ATOM      9  C   LIG A   1      -5.350  -4.103 130.646  0.00  0.00    +0.001 A 
ATOM     10  C   LIG A   1      -4.111  -3.533 130.303  0.00  0.00    +0.002 A 
ATOM     11  C   LIG A   1      -3.993  -2.672 129.203  0.00  0.00    +0.024 A 
ATOM     12  C   LIG A   1      -6.522  -2.429 125.491  0.00  0.00    +0.050 C 
ATOM     13  C   LIG A   1      -5.995  -1.592 124.328  0.00  0.00    +0.087 C 
ATOM     14  N   LIG A   1      -6.636  -0.285 124.212  0.00  0.00    -0.298 NA
ATOM     15  C   LIG A   1      -6.481   0.512 125.460  0.00  0.00    +0.079 C 
ATOM     16  C   LIG A   1      -7.046   1.941 125.173  0.00  0.00    +0.007 C 
ATOM     17  C   LIG A   1      -8.555   1.832 124.873  0.00  0.00    +0.010 C 
ATOM     18  C   LIG A   1      -8.954   0.355 124.810  0.00  0.00    +0.005 C 
ATOM     19  C   LIG A   1      -8.742  -0.283 126.196  0.00  0.00    +0.027 C 
ATOM     20  C   LIG A   1      -8.050  -0.367 123.798  0.00  0.00    +0.088 C 
ATOM     21  H   LIG A   1      -4.408  -1.593 126.710  0.00  0.00    +0.147 HD
ENDROOT
BRANCH   1  22
ATOM     22  C   LIG A   1      -7.058   0.560 127.926  0.00  0.00    +0.317 C 
ATOM     23  O   LIG A   1      -5.988   0.957 128.369  0.00  0.00    -0.250 OA
BRANCH  22  24
ATOM     24  O   LIG A   1      -8.255   0.722 128.558  0.00  0.00    -0.467 OA
ATOM     25  C   LIG A   1      -8.574   2.046 128.992  0.00  0.00    +0.280 C 
ENDBRANCH  22  24
ENDBRANCH   1  22
BRANCH  16  26
ATOM     26  C   LIG A   1      -6.315   2.671 124.020  0.00  0.00    +0.002 C 
ATOM     27  C   LIG A   1      -7.249   3.191 122.936  0.00  0.00    +0.004 C 
ENDBRANCH  16  26
TORSDOF 3
ENDMDL
MODEL 9
REMARK VINA RESULT:      -6.9      2.278      3.107
REMARK  Name = NuBBE_1758
REMARK  5 active torsions:
REMARK  status: ('A' for Active; 'I' for Inactive)
REMARK    1  A    between atoms: C_1  and  O_3
REMARK    2  A    between atoms: C_1  and  C_5
REMARK    3  A    between atoms: O_3  and  C_4
REMARK    4  A    between atoms: C_20  and  C_21
REMARK    5  A    between atoms: C_21  and  C_22
REMARK                            x       y       z     vdW  Elec       q    Type
REMARK                         _______ _______ _______ _____ _____    ______ ____
ROOT
ATOM      1  C   LIG A   1      -6.943   1.067 125.839  0.00  0.00    +0.112 C 
ATOM      2  C   LIG A   1      -5.786   1.157 126.888  0.00  0.00    +0.114 C 
ATOM      3  N   LIG A   1      -4.482   1.517 126.229  0.00  0.00    -0.330 N 
ATOM      4  C   LIG A   1      -3.943   2.576 126.986  0.00  0.00    +0.038 A 
ATOM      5  C   LIG A   1      -4.799   3.108 127.941  0.00  0.00    +0.040 A 
ATOM      6  C   LIG A   1      -5.991   2.283 127.932  0.00  0.00    +0.189 C 
ATOM      7  O   LIG A   1      -6.929   2.455 128.695  0.00  0.00    -0.290 OA
ATOM      8  C   LIG A   1      -4.479   4.185 128.745  0.00  0.00    +0.013 A 
ATOM      9  C   LIG A   1      -3.230   4.772 128.552  0.00  0.00    +0.001 A 
ATOM     10  C   LIG A   1      -2.354   4.270 127.573  0.00  0.00    +0.002 A 
ATOM     11  C   LIG A   1      -2.713   3.172 126.778  0.00  0.00    +0.024 A 
ATOM     12  C   LIG A   1      -5.597  -0.163 127.663  0.00  0.00    +0.050 C 
ATOM     13  C   LIG A   1      -5.580  -1.379 126.739  0.00  0.00    +0.087 C 
ATOM     14  N   LIG A   1      -6.678  -1.396 125.776  0.00  0.00    -0.298 NA
ATOM     15  C   LIG A   1      -6.678  -0.173 124.927  0.00  0.00    +0.079 C 
ATOM     16  C   LIG A   1      -7.773  -0.368 123.830  0.00  0.00    +0.007 C 
ATOM     17  C   LIG A   1      -9.153  -0.464 124.511  0.00  0.00    +0.010 C 
ATOM     18  C   LIG A   1      -8.968  -0.486 126.031  0.00  0.00    +0.005 C 
ATOM     19  C   LIG A   1      -8.356   0.853 126.483  0.00  0.00    +0.027 C 
ATOM     20  C   LIG A   1      -7.996  -1.617 126.402  0.00  0.00    +0.088 C 
ATOM     21  H   LIG A   1      -3.821   0.767 126.042  0.00  0.00    +0.147 HD
ENDROOT
BRANCH   1  22
ATOM     22  C   LIG A   1      -6.910   2.348 124.995  0.00  0.00    +0.317 C 
ATOM     23  O   LIG A   1      -6.036   2.634 124.186  0.00  0.00    -0.250 OA
BRANCH  22  24
ATOM     24  O   LIG A   1      -7.969   3.153 125.294  0.00  0.00    -0.467 OA
ATOM     25  C   LIG A   1      -7.680   4.537 125.505  0.00  0.00    +0.280 C 
ENDBRANCH  22  24
ENDBRANCH   1  22
BRANCH  16  26
ATOM     26  C   LIG A   1      -7.528  -1.602 122.927  0.00  0.00    +0.002 C 
ATOM     27  C   LIG A   1      -8.687  -2.589 122.911  0.00  0.00    +0.004 C 
ENDBRANCH  16  26
TORSDOF 3
ENDMDL
