MODEL 1
REMARK VINA RESULT:      -6.7      0.000      0.000
REMARK  Name = NuBBE_540
REMARK  9 active torsions:
REMARK  status: ('A' for Active; 'I' for Inactive)
REMARK    1  A    between atoms: O_1  and  C_2
REMARK    2  A    between atoms: C_2  and  C_4
REMARK    3  A    between atoms: C_2  and  C_19
REMARK    4  A    between atoms: C_4  and  C_5
REMARK    5  A    between atoms: C_5  and  O_7
REMARK    6  A    between atoms: C_5  and  C_8
REMARK    7  A    between atoms: C_8  and  C_9
REMARK    8  A    between atoms: C_10  and  C_11
REMARK    9  A    between atoms: C_20  and  C_21
REMARK                            x       y       z     vdW  Elec       q    Type
REMARK                         _______ _______ _______ _____ _____    ______ ____
ROOT
ATOM      1  C   LIG A   1      -6.439   2.830 124.475  0.00  0.00    +0.121 C 
ENDROOT
BRANCH   1   2
ATOM      2  O   LIG A   1      -6.783   4.159 124.085  0.00  0.00    -0.391 OA
ATOM      3  H   LIG A   1      -6.794   4.172 123.103  0.00  0.00    +0.210 HD
ENDBRANCH   1   2
BRANCH   1   4
ATOM      4  C   LIG A   1      -5.827   2.814 125.893  0.00  0.00    +0.067 C 
BRANCH   4   5
ATOM      5  C   LIG A   1      -4.916   1.601 126.148  0.00  0.00    +0.140 C 
BRANCH   5   6
ATOM      6  O   LIG A   1      -3.661   2.032 126.671  0.00  0.00    -0.388 OA
ATOM      7  H   LIG A   1      -3.124   2.316 125.908  0.00  0.00    +0.210 HD
ENDBRANCH   5   6
BRANCH   5   8
ATOM      8  C   LIG A   1      -5.549   0.590 127.070  0.00  0.00    +0.004 C 
ATOM      9  C   LIG A   1      -5.535  -0.744 126.906  0.00  0.00    +0.006 C 
BRANCH   9  10
ATOM     10  C   LIG A   1      -6.165  -1.706 127.826  0.00  0.00    -0.025 A 
ATOM     11  C   LIG A   1      -5.355  -2.410 128.729  0.00  0.00    +0.008 A 
ATOM     12  C   LIG A   1      -5.906  -3.366 129.586  0.00  0.00    +0.001 A 
ATOM     13  C   LIG A   1      -7.272  -3.638 129.545  0.00  0.00    +0.000 A 
ATOM     14  C   LIG A   1      -8.088  -2.947 128.652  0.00  0.00    +0.001 A 
ATOM     15  C   LIG A   1      -7.538  -1.991 127.795  0.00  0.00    +0.008 A 
ENDBRANCH   9  10
ENDBRANCH   5   8
ENDBRANCH   4   5
ENDBRANCH   1   4
BRANCH   1  16
ATOM     16  C   LIG A   1      -7.707   1.955 124.409  0.00  0.00    +0.058 C 
BRANCH  16  17
ATOM     17  C   LIG A   1      -7.577   0.787 123.456  0.00  0.00    -0.025 C 
ATOM     18  C   LIG A   1      -6.850  -0.315 123.704  0.00  0.00    +0.013 C 
BRANCH  18  19
ATOM     19  C   LIG A   1      -6.755  -1.513 122.787  0.00  0.00    +0.203 C 
ATOM     20  O   LIG A   1      -8.096  -2.006 122.536  0.00  0.00    -0.454 OA
ATOM     21  C   LIG A   1      -8.701  -2.833 123.412  0.00  0.00    +0.332 C 
ATOM     22  C   LIG A   1      -7.865  -3.462 124.447  0.00  0.00    +0.087 C 
ATOM     23  C   LIG A   1      -6.528  -3.402 124.396  0.00  0.00    -0.016 C 
ATOM     24  C   LIG A   1      -5.845  -2.629 123.316  0.00  0.00    +0.076 C 
ATOM     25  O   LIG A   1      -9.909  -3.091 123.352  0.00  0.00    -0.246 OA
ENDBRANCH  18  19
ENDBRANCH  16  17
ENDBRANCH   1  16
TORSDOF 9
ENDMDL
MODEL 2
REMARK VINA RESULT:      -6.7      2.305      5.359
REMARK  Name = NuBBE_540
REMARK  9 active torsions:
REMARK  status: ('A' for Active; 'I' for Inactive)
REMARK    1  A    between atoms: O_1  and  C_2
REMARK    2  A    between atoms: C_2  and  C_4
REMARK    3  A    between atoms: C_2  and  C_19
REMARK    4  A    between atoms: C_4  and  C_5
REMARK    5  A    between atoms: C_5  and  O_7
REMARK    6  A    between atoms: C_5  and  C_8
REMARK    7  A    between atoms: C_8  and  C_9
REMARK    8  A    between atoms: C_10  and  C_11
REMARK    9  A    between atoms: C_20  and  C_21
REMARK                            x       y       z     vdW  Elec       q    Type
REMARK                         _______ _______ _______ _____ _____    ______ ____
ROOT
ATOM      1  C   LIG A   1      -7.269  -2.831 129.136  0.00  0.00    +0.121 C 
ENDROOT
BRANCH   1   2
ATOM      2  O   LIG A   1      -6.865  -4.048 129.765  0.00  0.00    -0.391 OA
ATOM      3  H   LIG A   1      -6.498  -3.804 130.643  0.00  0.00    +0.210 HD
ENDBRANCH   1   2
BRANCH   1   4
ATOM      4  C   LIG A   1      -6.180  -2.329 128.162  0.00  0.00    +0.067 C 
BRANCH   4   5
ATOM      5  C   LIG A   1      -5.996  -0.801 128.194  0.00  0.00    +0.140 C 
BRANCH   5   6
ATOM      6  O   LIG A   1      -4.616  -0.478 128.352  0.00  0.00    -0.388 OA
ATOM      7  H   LIG A   1      -4.121  -1.311 128.242  0.00  0.00    +0.210 HD
ENDBRANCH   5   6
BRANCH   5   8
ATOM      8  C   LIG A   1      -6.555  -0.131 126.965  0.00  0.00    +0.004 C 
ATOM      9  C   LIG A   1      -7.830   0.259 126.790  0.00  0.00    +0.006 C 
BRANCH   9  10
ATOM     10  C   LIG A   1      -8.345   0.912 125.575  0.00  0.00    -0.025 A 
ATOM     11  C   LIG A   1      -9.710   0.806 125.276  0.00  0.00    +0.008 A 
ATOM     12  C   LIG A   1     -10.233   1.370 124.109  0.00  0.00    +0.001 A 
ATOM     13  C   LIG A   1      -9.394   2.040 123.221  0.00  0.00    +0.000 A 
ATOM     14  C   LIG A   1      -8.034   2.153 123.503  0.00  0.00    +0.001 A 
ATOM     15  C   LIG A   1      -7.513   1.589 124.671  0.00  0.00    +0.008 A 
ENDBRANCH   9  10
ENDBRANCH   5   8
ENDBRANCH   4   5
ENDBRANCH   1   4
BRANCH   1  16
ATOM     16  C   LIG A   1      -8.601  -3.078 128.398  0.00  0.00    +0.058 C 
BRANCH  16  17
ATOM     17  C   LIG A   1      -8.420  -3.719 127.040  0.00  0.00    -0.025 C 
ATOM     18  C   LIG A   1      -8.852  -3.182 125.886  0.00  0.00    +0.013 C 
BRANCH  18  19
ATOM     19  C   LIG A   1      -8.630  -3.782 124.517  0.00  0.00    +0.203 C 
ATOM     20  O   LIG A   1      -7.212  -4.043 124.354  0.00  0.00    -0.454 OA
ATOM     21  C   LIG A   1      -6.372  -3.063 123.967  0.00  0.00    +0.332 C 
ATOM     22  C   LIG A   1      -6.963  -1.833 123.416  0.00  0.00    +0.087 C 
ATOM     23  C   LIG A   1      -8.262  -1.764 123.101  0.00  0.00    -0.016 C 
ATOM     24  C   LIG A   1      -9.169  -2.921 123.366  0.00  0.00    +0.076 C 
ATOM     25  O   LIG A   1      -5.142  -3.180 124.035  0.00  0.00    -0.246 OA
ENDBRANCH  18  19
ENDBRANCH  16  17
ENDBRANCH   1  16
TORSDOF 9
ENDMDL
MODEL 3
REMARK VINA RESULT:      -6.7      6.888      9.107
REMARK  Name = NuBBE_540
REMARK  9 active torsions:
REMARK  status: ('A' for Active; 'I' for Inactive)
REMARK    1  A    between atoms: O_1  and  C_2
REMARK    2  A    between atoms: C_2  and  C_4
REMARK    3  A    between atoms: C_2  and  C_19
REMARK    4  A    between atoms: C_4  and  C_5
REMARK    5  A    between atoms: C_5  and  O_7
REMARK    6  A    between atoms: C_5  and  C_8
REMARK    7  A    between atoms: C_8  and  C_9
REMARK    8  A    between atoms: C_10  and  C_11
REMARK    9  A    between atoms: C_20  and  C_21
REMARK                            x       y       z     vdW  Elec       q    Type
REMARK                         _______ _______ _______ _____ _____    ______ ____
ROOT
ATOM      1  C   LIG A   1      -8.834   4.429 133.165  0.00  0.00    +0.121 C 
ENDROOT
BRANCH   1   2
ATOM      2  O   LIG A   1      -9.998   4.177 133.953  0.00  0.00    -0.391 OA
ATOM      3  H   LIG A   1     -10.766   4.212 133.342  0.00  0.00    +0.210 HD
ENDBRANCH   1   2
BRANCH   1   4
ATOM      4  C   LIG A   1      -8.571   3.265 132.186  0.00  0.00    +0.067 C 
BRANCH   4   5
ATOM      5  C   LIG A   1      -9.679   2.198 132.199  0.00  0.00    +0.140 C 
BRANCH   5   6
ATOM      6  O   LIG A   1     -10.825   2.673 131.495  0.00  0.00    -0.388 OA
ATOM      7  H   LIG A   1     -10.523   2.905 130.597  0.00  0.00    +0.210 HD
ENDBRANCH   5   6
BRANCH   5   8
ATOM      8  C   LIG A   1      -9.218   0.883 131.623  0.00  0.00    +0.004 C 
ATOM      9  C   LIG A   1      -8.222   0.118 132.104  0.00  0.00    +0.006 C 
BRANCH   9  10
ATOM     10  C   LIG A   1      -7.794  -1.163 131.517  0.00  0.00    -0.025 A 
ATOM     11  C   LIG A   1      -7.190  -2.119 132.345  0.00  0.00    +0.008 A 
ATOM     12  C   LIG A   1      -6.727  -3.329 131.821  0.00  0.00    +0.001 A 
ATOM     13  C   LIG A   1      -6.852  -3.593 130.459  0.00  0.00    +0.000 A 
ATOM     14  C   LIG A   1      -7.449  -2.651 129.623  0.00  0.00    +0.001 A 
ATOM     15  C   LIG A   1      -7.913  -1.442 130.148  0.00  0.00    +0.008 A 
ENDBRANCH   9  10
ENDBRANCH   5   8
ENDBRANCH   4   5
ENDBRANCH   1   4
BRANCH   1  16
ATOM     16  C   LIG A   1      -9.032   5.758 132.407  0.00  0.00    +0.058 C 
BRANCH  16  17
ATOM     17  C   LIG A   1     -10.474   6.020 132.031  0.00  0.00    -0.025 C 
ATOM     18  C   LIG A   1     -10.899   6.252 130.778  0.00  0.00    +0.013 C 
BRANCH  18  19
ATOM     19  C   LIG A   1     -12.342   6.459 130.379  0.00  0.00    +0.203 C 
ATOM     20  O   LIG A   1     -12.488   6.106 128.980  0.00  0.00    -0.454 OA
ATOM     21  C   LIG A   1     -12.181   6.991 128.010  0.00  0.00    +0.332 C 
ATOM     22  C   LIG A   1     -12.006   8.399 128.401  0.00  0.00    +0.087 C 
ATOM     23  C   LIG A   1     -12.350   8.833 129.619  0.00  0.00    -0.016 C 
ATOM     24  C   LIG A   1     -12.862   7.878 130.648  0.00  0.00    +0.076 C 
ATOM     25  O   LIG A   1     -12.074   6.661 126.823  0.00  0.00    -0.246 OA
ENDBRANCH  18  19
ENDBRANCH  16  17
ENDBRANCH   1  16
TORSDOF 9
ENDMDL
MODEL 4
REMARK VINA RESULT:      -6.7     10.543     12.352
REMARK  Name = NuBBE_540
REMARK  9 active torsions:
REMARK  status: ('A' for Active; 'I' for Inactive)
REMARK    1  A    between atoms: O_1  and  C_2
REMARK    2  A    between atoms: C_2  and  C_4
REMARK    3  A    between atoms: C_2  and  C_19
REMARK    4  A    between atoms: C_4  and  C_5
REMARK    5  A    between atoms: C_5  and  O_7
REMARK    6  A    between atoms: C_5  and  C_8
REMARK    7  A    between atoms: C_8  and  C_9
REMARK    8  A    between atoms: C_10  and  C_11
REMARK    9  A    between atoms: C_20  and  C_21
REMARK                            x       y       z     vdW  Elec       q    Type
REMARK                         _______ _______ _______ _____ _____    ______ ____
ROOT
ATOM      1  C   LIG A   1      -8.938   5.791 133.254  0.00  0.00    +0.121 C 
ENDROOT
BRANCH   1   2
ATOM      2  O   LIG A   1     -10.002   4.850 133.397  0.00  0.00    -0.391 OA
ATOM      3  H   LIG A   1      -9.657   4.113 133.947  0.00  0.00    +0.210 HD
ENDBRANCH   1   2
BRANCH   1   4
ATOM      4  C   LIG A   1      -7.598   5.179 133.719  0.00  0.00    +0.067 C 
BRANCH   4   5
ATOM      5  C   LIG A   1      -7.481   5.064 135.249  0.00  0.00    +0.140 C 
BRANCH   5   6
ATOM      6  O   LIG A   1      -6.161   4.664 135.610  0.00  0.00    -0.388 OA
ATOM      7  H   LIG A   1      -6.184   3.695 135.719  0.00  0.00    +0.210 HD
ENDBRANCH   5   6
BRANCH   5   8
ATOM      8  C   LIG A   1      -7.852   6.346 135.950  0.00  0.00    +0.004 C 
ATOM      9  C   LIG A   1      -8.129   6.476 137.260  0.00  0.00    +0.006 C 
BRANCH   9  10
ATOM     10  C   LIG A   1      -8.489   7.745 137.916  0.00  0.00    -0.025 A 
ATOM     11  C   LIG A   1      -7.662   8.240 138.933  0.00  0.00    +0.008 A 
ATOM     12  C   LIG A   1      -7.991   9.415 139.614  0.00  0.00    +0.001 A 
ATOM     13  C   LIG A   1      -9.159  10.105 139.293  0.00  0.00    +0.000 A 
ATOM     14  C   LIG A   1      -9.992   9.624 138.285  0.00  0.00    +0.001 A 
ATOM     15  C   LIG A   1      -9.661   8.449 137.604  0.00  0.00    +0.008 A 
ENDBRANCH   9  10
ENDBRANCH   5   8
ENDBRANCH   4   5
ENDBRANCH   1   4
BRANCH   1  16
ATOM     16  C   LIG A   1      -8.864   6.230 131.778  0.00  0.00    +0.058 C 
BRANCH  16  17
ATOM     17  C   LIG A   1     -10.206   6.639 131.210  0.00  0.00    -0.025 C 
ATOM     18  C   LIG A   1     -10.817   6.015 130.189  0.00  0.00    +0.013 C 
BRANCH  18  19
ATOM     19  C   LIG A   1     -12.181   6.376 129.648  0.00  0.00    +0.203 C 
ATOM     20  O   LIG A   1     -12.170   6.187 128.209  0.00  0.00    -0.454 OA
ATOM     21  C   LIG A   1     -11.687   7.145 127.393  0.00  0.00    +0.332 C 
ATOM     22  C   LIG A   1     -11.473   8.485 127.963  0.00  0.00    +0.087 C 
ATOM     23  C   LIG A   1     -11.941   8.811 129.174  0.00  0.00    -0.016 C 
ATOM     24  C   LIG A   1     -12.640   7.793 130.016  0.00  0.00    +0.076 C 
ATOM     25  O   LIG A   1     -11.450   6.938 126.197  0.00  0.00    -0.246 OA
ENDBRANCH  18  19
ENDBRANCH  16  17
ENDBRANCH   1  16
TORSDOF 9
ENDMDL
MODEL 5
REMARK VINA RESULT:      -6.6      2.965      6.562
REMARK  Name = NuBBE_540
REMARK  9 active torsions:
REMARK  status: ('A' for Active; 'I' for Inactive)
REMARK    1  A    between atoms: O_1  and  C_2
REMARK    2  A    between atoms: C_2  and  C_4
REMARK    3  A    between atoms: C_2  and  C_19
REMARK    4  A    between atoms: C_4  and  C_5
REMARK    5  A    between atoms: C_5  and  O_7
REMARK    6  A    between atoms: C_5  and  C_8
REMARK    7  A    between atoms: C_8  and  C_9
REMARK    8  A    between atoms: C_10  and  C_11
REMARK    9  A    between atoms: C_20  and  C_21
REMARK                            x       y       z     vdW  Elec       q    Type
REMARK                         _______ _______ _______ _____ _____    ______ ____
ROOT
ATOM      1  C   LIG A   1      -8.312   1.275 126.666  0.00  0.00    +0.121 C 
ENDROOT
BRANCH   1   2
ATOM      2  O   LIG A   1      -7.676   2.107 127.636  0.00  0.00    -0.391 OA
ATOM      3  H   LIG A   1      -6.820   1.679 127.860  0.00  0.00    +0.210 HD
ENDBRANCH   1   2
BRANCH   1   4
ATOM      4  C   LIG A   1      -7.674   1.470 125.273  0.00  0.00    +0.067 C 
BRANCH   4   5
ATOM      5  C   LIG A   1      -8.711   1.605 124.144  0.00  0.00    +0.140 C 
BRANCH   5   6
ATOM      6  O   LIG A   1      -9.872   2.281 124.624  0.00  0.00    -0.388 OA
ATOM      7  H   LIG A   1     -10.078   2.977 123.972  0.00  0.00    +0.210 HD
ENDBRANCH   5   6
BRANCH   5   8
ATOM      8  C   LIG A   1      -8.155   2.312 122.935  0.00  0.00    +0.004 C 
ATOM      9  C   LIG A   1      -7.037   3.059 122.903  0.00  0.00    +0.006 C 
BRANCH   9  10
ATOM     10  C   LIG A   1      -6.519   3.738 121.703  0.00  0.00    -0.025 A 
ATOM     11  C   LIG A   1      -5.254   4.340 121.758  0.00  0.00    +0.008 A 
ATOM     12  C   LIG A   1      -4.745   5.035 120.658  0.00  0.00    +0.001 A 
ATOM     13  C   LIG A   1      -5.499   5.146 119.492  0.00  0.00    +0.000 A 
ATOM     14  C   LIG A   1      -6.758   4.554 119.422  0.00  0.00    +0.001 A 
ATOM     15  C   LIG A   1      -7.267   3.859 120.523  0.00  0.00    +0.008 A 
ENDBRANCH   9  10
ENDBRANCH   5   8
ENDBRANCH   4   5
ENDBRANCH   1   4
BRANCH   1  16
ATOM     16  C   LIG A   1      -8.198  -0.193 127.127  0.00  0.00    +0.058 C 
BRANCH  16  17
ATOM     17  C   LIG A   1      -8.311  -1.185 125.991  0.00  0.00    -0.025 C 
ATOM     18  C   LIG A   1      -7.482  -2.228 125.811  0.00  0.00    +0.013 C 
BRANCH  18  19
ATOM     19  C   LIG A   1      -7.616  -3.259 124.714  0.00  0.00    +0.203 C 
ATOM     20  O   LIG A   1      -6.288  -3.702 124.335  0.00  0.00    -0.454 OA
ATOM     21  C   LIG A   1      -5.549  -2.991 123.460  0.00  0.00    +0.332 C 
ATOM     22  C   LIG A   1      -6.233  -1.953 122.672  0.00  0.00    +0.087 C 
ATOM     23  C   LIG A   1      -7.569  -1.858 122.654  0.00  0.00    -0.016 C 
ATOM     24  C   LIG A   1      -8.405  -2.768 123.493  0.00  0.00    +0.076 C 
ATOM     25  O   LIG A   1      -4.343  -3.204 123.285  0.00  0.00    -0.246 OA
ENDBRANCH  18  19
ENDBRANCH  16  17
ENDBRANCH   1  16
TORSDOF 9
ENDMDL
MODEL 6
REMARK VINA RESULT:      -6.6      2.635      5.143
REMARK  Name = NuBBE_540
REMARK  9 active torsions:
REMARK  status: ('A' for Active; 'I' for Inactive)
REMARK    1  A    between atoms: O_1  and  C_2
REMARK    2  A    between atoms: C_2  and  C_4
REMARK    3  A    between atoms: C_2  and  C_19
REMARK    4  A    between atoms: C_4  and  C_5
REMARK    5  A    between atoms: C_5  and  O_7
REMARK    6  A    between atoms: C_5  and  C_8
REMARK    7  A    between atoms: C_8  and  C_9
REMARK    8  A    between atoms: C_10  and  C_11
REMARK    9  A    between atoms: C_20  and  C_21
REMARK                            x       y       z     vdW  Elec       q    Type
REMARK                         _______ _______ _______ _____ _____    ______ ____
ROOT
ATOM      1  C   LIG A   1      -9.082   2.333 124.126  0.00  0.00    +0.121 C 
ENDROOT
BRANCH   1   2
ATOM      2  O   LIG A   1      -9.141   3.496 124.953  0.00  0.00    -0.391 OA
ATOM      3  H   LIG A   1      -9.003   4.270 124.363  0.00  0.00    +0.210 HD
ENDBRANCH   1   2
BRANCH   1   4
ATOM      4  C   LIG A   1      -7.621   1.869 123.935  0.00  0.00    +0.067 C 
BRANCH   4   5
ATOM      5  C   LIG A   1      -6.742   2.912 123.224  0.00  0.00    +0.140 C 
BRANCH   5   6
ATOM      6  O   LIG A   1      -7.561   3.868 122.554  0.00  0.00    -0.388 OA
ATOM      7  H   LIG A   1      -7.548   3.631 121.608  0.00  0.00    +0.210 HD
ENDBRANCH   5   6
BRANCH   5   8
ATOM      8  C   LIG A   1      -5.793   3.604 124.170  0.00  0.00    +0.004 C 
ATOM      9  C   LIG A   1      -5.293   3.084 125.304  0.00  0.00    +0.006 C 
BRANCH   9  10
ATOM     10  C   LIG A   1      -4.367   3.787 126.208  0.00  0.00    -0.025 A 
ATOM     11  C   LIG A   1      -3.138   3.189 126.519  0.00  0.00    +0.008 A 
ATOM     12  C   LIG A   1      -2.251   3.799 127.410  0.00  0.00    +0.001 A 
ATOM     13  C   LIG A   1      -2.586   5.011 128.009  0.00  0.00    +0.000 A 
ATOM     14  C   LIG A   1      -3.805   5.618 127.711  0.00  0.00    +0.001 A 
ATOM     15  C   LIG A   1      -4.691   5.007 126.820  0.00  0.00    +0.008 A 
ENDBRANCH   9  10
ENDBRANCH   5   8
ENDBRANCH   4   5
ENDBRANCH   1   4
BRANCH   1  16
ATOM     16  C   LIG A   1      -9.935   1.225 124.776  0.00  0.00    +0.058 C 
BRANCH  16  17
ATOM     17  C   LIG A   1      -9.130   0.285 125.647  0.00  0.00    -0.025 C 
ATOM     18  C   LIG A   1      -9.201  -1.055 125.581  0.00  0.00    +0.013 C 
BRANCH  18  19
ATOM     19  C   LIG A   1      -8.363  -2.006 126.404  0.00  0.00    +0.203 C 
ATOM     20  O   LIG A   1      -6.966  -1.787 126.079  0.00  0.00    -0.454 OA
ATOM     21  C   LIG A   1      -6.411  -2.369 124.997  0.00  0.00    +0.332 C 
ATOM     22  C   LIG A   1      -7.156  -3.462 124.352  0.00  0.00    +0.087 C 
ATOM     23  C   LIG A   1      -8.229  -4.013 124.932  0.00  0.00    -0.016 C 
ATOM     24  C   LIG A   1      -8.746  -3.482 126.230  0.00  0.00    +0.076 C 
ATOM     25  O   LIG A   1      -5.304  -2.034 124.560  0.00  0.00    -0.246 OA
ENDBRANCH  18  19
ENDBRANCH  16  17
ENDBRANCH   1  16
TORSDOF 9
ENDMDL
MODEL 7
REMARK VINA RESULT:      -6.6      3.040      6.579
REMARK  Name = NuBBE_540
REMARK  9 active torsions:
REMARK  status: ('A' for Active; 'I' for Inactive)
REMARK    1  A    between atoms: O_1  and  C_2
REMARK    2  A    between atoms: C_2  and  C_4
REMARK    3  A    between atoms: C_2  and  C_19
REMARK    4  A    between atoms: C_4  and  C_5
REMARK    5  A    between atoms: C_5  and  O_7
REMARK    6  A    between atoms: C_5  and  C_8
REMARK    7  A    between atoms: C_8  and  C_9
REMARK    8  A    between atoms: C_10  and  C_11
REMARK    9  A    between atoms: C_20  and  C_21
REMARK                            x       y       z     vdW  Elec       q    Type
REMARK                         _______ _______ _______ _____ _____    ______ ____
ROOT
ATOM      1  C   LIG A   1      -8.338   3.142 124.687  0.00  0.00    +0.121 C 
ENDROOT
BRANCH   1   2
ATOM      2  O   LIG A   1      -9.007   4.129 125.473  0.00  0.00    -0.391 OA
ATOM      3  H   LIG A   1      -9.609   4.613 124.866  0.00  0.00    +0.210 HD
ENDBRANCH   1   2
BRANCH   1   4
ATOM      4  C   LIG A   1      -6.983   2.760 125.322  0.00  0.00    +0.067 C 
BRANCH   4   5
ATOM      5  C   LIG A   1      -5.871   3.786 125.042  0.00  0.00    +0.140 C 
BRANCH   5   6
ATOM      6  O   LIG A   1      -4.593   3.204 125.296  0.00  0.00    -0.388 OA
ATOM      7  H   LIG A   1      -3.948   3.936 125.291  0.00  0.00    +0.210 HD
ENDBRANCH   5   6
BRANCH   5   8
ATOM      8  C   LIG A   1      -5.930   4.328 123.637  0.00  0.00    +0.004 C 
ATOM      9  C   LIG A   1      -6.224   3.622 122.531  0.00  0.00    +0.006 C 
BRANCH   9  10
ATOM     10  C   LIG A   1      -6.273   4.182 121.170  0.00  0.00    -0.025 A 
ATOM     11  C   LIG A   1      -7.377   3.890 120.357  0.00  0.00    +0.008 A 
ATOM     12  C   LIG A   1      -7.442   4.362 119.043  0.00  0.00    +0.001 A 
ATOM     13  C   LIG A   1      -6.398   5.124 118.522  0.00  0.00    +0.000 A 
ATOM     14  C   LIG A   1      -5.294   5.421 119.318  0.00  0.00    +0.001 A 
ATOM     15  C   LIG A   1      -5.230   4.949 120.632  0.00  0.00    +0.008 A 
ENDBRANCH   9  10
ENDBRANCH   5   8
ENDBRANCH   4   5
ENDBRANCH   1   4
BRANCH   1  16
ATOM     16  C   LIG A   1      -9.257   1.911 124.558  0.00  0.00    +0.058 C 
BRANCH  16  17
ATOM     17  C   LIG A   1      -8.524   0.599 124.728  0.00  0.00    -0.025 C 
ATOM     18  C   LIG A   1      -9.022  -0.468 125.376  0.00  0.00    +0.013 C 
BRANCH  18  19
ATOM     19  C   LIG A   1      -8.325  -1.803 125.506  0.00  0.00    +0.203 C 
ATOM     20  O   LIG A   1      -7.164  -1.802 124.636  0.00  0.00    -0.454 OA
ATOM     21  C   LIG A   1      -7.287  -2.090 123.324  0.00  0.00    +0.332 C 
ATOM     22  C   LIG A   1      -8.546  -2.705 122.874  0.00  0.00    +0.087 C 
ATOM     23  C   LIG A   1      -9.448  -3.167 123.748  0.00  0.00    -0.016 C 
ATOM     24  C   LIG A   1      -9.231  -3.008 125.218  0.00  0.00    +0.076 C 
ATOM     25  O   LIG A   1      -6.376  -1.881 122.513  0.00  0.00    -0.246 OA
ENDBRANCH  18  19
ENDBRANCH  16  17
ENDBRANCH   1  16
TORSDOF 9
ENDMDL
MODEL 8
REMARK VINA RESULT:      -6.5      2.650      6.011
REMARK  Name = NuBBE_540
REMARK  9 active torsions:
REMARK  status: ('A' for Active; 'I' for Inactive)
REMARK    1  A    between atoms: O_1  and  C_2
REMARK    2  A    between atoms: C_2  and  C_4
REMARK    3  A    between atoms: C_2  and  C_19
REMARK    4  A    between atoms: C_4  and  C_5
REMARK    5  A    between atoms: C_5  and  O_7
REMARK    6  A    between atoms: C_5  and  C_8
REMARK    7  A    between atoms: C_8  and  C_9
REMARK    8  A    between atoms: C_10  and  C_11
REMARK    9  A    between atoms: C_20  and  C_21
REMARK                            x       y       z     vdW  Elec       q    Type
REMARK                         _______ _______ _______ _____ _____    ______ ____
ROOT
ATOM      1  C   LIG A   1      -8.131   3.077 123.413  0.00  0.00    +0.121 C 
ENDROOT
BRANCH   1   2
ATOM      2  O   LIG A   1      -8.458   3.676 122.159  0.00  0.00    -0.391 OA
ATOM      3  H   LIG A   1      -9.438   3.668 122.088  0.00  0.00    +0.210 HD
ENDBRANCH   1   2
BRANCH   1   4
ATOM      4  C   LIG A   1      -8.754   1.669 123.528  0.00  0.00    +0.067 C 
BRANCH   4   5
ATOM      5  C   LIG A   1      -9.875   1.585 124.579  0.00  0.00    +0.140 C 
BRANCH   5   6
ATOM      6  O   LIG A   1     -11.131   1.369 123.939  0.00  0.00    -0.388 OA
ATOM      7  H   LIG A   1     -11.818   1.567 124.603  0.00  0.00    +0.210 HD
ENDBRANCH   5   6
BRANCH   5   8
ATOM      8  C   LIG A   1      -9.618   0.512 125.607  0.00  0.00    +0.004 C 
ATOM      9  C   LIG A   1      -8.735  -0.494 125.491  0.00  0.00    +0.006 C 
BRANCH   9  10
ATOM     10  C   LIG A   1      -8.508  -1.529 126.515  0.00  0.00    -0.025 A 
ATOM     11  C   LIG A   1      -9.081  -2.796 126.337  0.00  0.00    +0.008 A 
ATOM     12  C   LIG A   1      -8.930  -3.791 127.305  0.00  0.00    +0.001 A 
ATOM     13  C   LIG A   1      -8.212  -3.529 128.470  0.00  0.00    +0.000 A 
ATOM     14  C   LIG A   1      -7.637  -2.275 128.662  0.00  0.00    +0.001 A 
ATOM     15  C   LIG A   1      -7.788  -1.280 127.693  0.00  0.00    +0.008 A 
ENDBRANCH   9  10
ENDBRANCH   5   8
ENDBRANCH   4   5
ENDBRANCH   1   4
BRANCH   1  16
ATOM     16  C   LIG A   1      -6.596   3.017 123.543  0.00  0.00    +0.058 C 
BRANCH  16  17
ATOM     17  C   LIG A   1      -6.126   2.799 124.964  0.00  0.00    -0.025 C 
ATOM     18  C   LIG A   1      -5.968   3.781 125.869  0.00  0.00    +0.013 C 
BRANCH  18  19
ATOM     19  C   LIG A   1      -5.554   3.572 127.307  0.00  0.00    +0.203 C 
ATOM     20  O   LIG A   1      -5.313   4.870 127.909  0.00  0.00    -0.454 OA
ATOM     21  C   LIG A   1      -4.130   5.495 127.747  0.00  0.00    +0.332 C 
ATOM     22  C   LIG A   1      -3.003   4.703 127.228  0.00  0.00    +0.087 C 
ATOM     23  C   LIG A   1      -3.076   3.370 127.127  0.00  0.00    -0.016 C 
ATOM     24  C   LIG A   1      -4.339   2.651 127.476  0.00  0.00    +0.076 C 
ATOM     25  O   LIG A   1      -3.963   6.684 128.046  0.00  0.00    -0.246 OA
ENDBRANCH  18  19
ENDBRANCH  16  17
ENDBRANCH   1  16
TORSDOF 9
ENDMDL
MODEL 9
REMARK VINA RESULT:      -6.4      2.238      5.060
REMARK  Name = NuBBE_540
REMARK  9 active torsions:
REMARK  status: ('A' for Active; 'I' for Inactive)
REMARK    1  A    between atoms: O_1  and  C_2
REMARK    2  A    between atoms: C_2  and  C_4
REMARK    3  A    between atoms: C_2  and  C_19
REMARK    4  A    between atoms: C_4  and  C_5
REMARK    5  A    between atoms: C_5  and  O_7
REMARK    6  A    between atoms: C_5  and  C_8
REMARK    7  A    between atoms: C_8  and  C_9
REMARK    8  A    between atoms: C_10  and  C_11
REMARK    9  A    between atoms: C_20  and  C_21
REMARK                            x       y       z     vdW  Elec       q    Type
REMARK                         _______ _______ _______ _____ _____    ______ ____
ROOT
ATOM      1  C   LIG A   1      -8.162  -1.665 123.280  0.00  0.00    +0.121 C 
ENDROOT
BRANCH   1   2
ATOM      2  O   LIG A   1      -8.175  -2.059 121.908  0.00  0.00    -0.391 OA
ATOM      3  H   LIG A   1      -9.043  -1.781 121.542  0.00  0.00    +0.210 HD
ENDBRANCH   1   2
BRANCH   1   4
ATOM      4  C   LIG A   1      -8.397  -2.880 124.203  0.00  0.00    +0.067 C 
BRANCH   4   5
ATOM      5  C   LIG A   1      -8.904  -2.491 125.603  0.00  0.00    +0.140 C 
BRANCH   5   6
ATOM      6  O   LIG A   1     -10.245  -2.944 125.782  0.00  0.00    -0.388 OA
ATOM      7  H   LIG A   1     -10.417  -3.590 125.071  0.00  0.00    +0.210 HD
ENDBRANCH   5   6
BRANCH   5   8
ATOM      8  C   LIG A   1      -8.020  -3.022 126.702  0.00  0.00    +0.004 C 
ATOM      9  C   LIG A   1      -7.249  -2.284 127.519  0.00  0.00    +0.006 C 
BRANCH   9  10
ATOM     10  C   LIG A   1      -6.394  -2.834 128.585  0.00  0.00    -0.025 A 
ATOM     11  C   LIG A   1      -5.004  -2.682 128.484  0.00  0.00    +0.008 A 
ATOM     12  C   LIG A   1      -4.153  -3.229 129.449  0.00  0.00    +0.001 A 
ATOM     13  C   LIG A   1      -4.682  -3.944 130.521  0.00  0.00    +0.000 A 
ATOM     14  C   LIG A   1      -6.061  -4.105 130.634  0.00  0.00    +0.001 A 
ATOM     15  C   LIG A   1      -6.911  -3.557 129.669  0.00  0.00    +0.008 A 
ENDBRANCH   9  10
ENDBRANCH   5   8
ENDBRANCH   4   5
ENDBRANCH   1   4
BRANCH   1  16
ATOM     16  C   LIG A   1      -6.809  -0.990 123.585  0.00  0.00    +0.058 C 
BRANCH  16  17
ATOM     17  C   LIG A   1      -6.913   0.511 123.741  0.00  0.00    -0.025 C 
ATOM     18  C   LIG A   1      -7.959   1.245 123.325  0.00  0.00    +0.013 C 
BRANCH  18  19
ATOM     19  C   LIG A   1      -8.102   2.736 123.524  0.00  0.00    +0.203 C 
ATOM     20  O   LIG A   1      -8.924   3.266 122.452  0.00  0.00    -0.454 OA
ATOM     21  C   LIG A   1      -8.384   3.564 121.253  0.00  0.00    +0.332 C 
ATOM     22  C   LIG A   1      -6.917   3.639 121.163  0.00  0.00    +0.087 C 
ATOM     23  C   LIG A   1      -6.150   3.634 122.260  0.00  0.00    -0.016 C 
ATOM     24  C   LIG A   1      -6.764   3.482 123.614  0.00  0.00    +0.076 C 
ATOM     25  O   LIG A   1      -9.078   3.798 120.256  0.00  0.00    -0.246 OA
ENDBRANCH  18  19
ENDBRANCH  16  17
ENDBRANCH   1  16
TORSDOF 9
ENDMDL
