MODEL 1
REMARK VINA RESULT:      -7.0      0.000      0.000
REMARK  Name = NuBBE_2
REMARK  12 active torsions:
REMARK  status: ('A' for Active; 'I' for Inactive)
REMARK    1  A    between atoms: C_2  and  C_3
REMARK    2  A    between atoms: C_2  and  O_21
REMARK    3  A    between atoms: C_5  and  O_6
REMARK    4  A    between atoms: C_7  and  O_10
REMARK    5  A    between atoms: O_10  and  C_11
REMARK    6  A    between atoms: C_11  and  C_12
REMARK    7  A    between atoms: C_13  and  C_14
REMARK    8  A    between atoms: C_13  and  C_20
REMARK    9  A    between atoms: C_14  and  C_15
REMARK   10  A    between atoms: C_15  and  C_16
REMARK   11  A    between atoms: C_17  and  C_18
REMARK   12  A    between atoms: C_17  and  C_19
REMARK                            x       y       z     vdW  Elec       q    Type
REMARK                         _______ _______ _______ _____ _____    ______ ____
ROOT
ATOM      1  C   LIG A   1     -12.865   9.080 129.787  0.00  0.00    +0.062 A 
ATOM      2  C   LIG A   1     -12.370   8.461 128.633  0.00  0.00    +0.064 A 
ATOM      3  C   LIG A   1     -11.931   7.142 128.695  0.00  0.00    +0.159 A 
ATOM      4  C   LIG A   1     -12.006   6.392 129.878  0.00  0.00    +0.162 A 
ATOM      5  C   LIG A   1     -12.506   7.009 131.025  0.00  0.00    +0.050 A 
ATOM      6  C   LIG A   1     -12.942   8.339 130.977  0.00  0.00    +0.019 A 
ENDROOT
BRANCH   1   8
ATOM      7  O   LIG A   1     -13.311  11.190 130.797  0.00  0.00    -0.245 OA
ATOM      8  C   LIG A   1     -13.332  10.483 129.781  0.00  0.00    +0.337 C 
BRANCH   8   9
ATOM      9  O   LIG A   1     -13.742  10.949 128.584  0.00  0.00    -0.477 OA
ATOM     10  H   LIG A   1     -14.470  11.597 128.610  0.00  0.00    +0.295 HD
ENDBRANCH   8   9
ENDBRANCH   1   8
BRANCH   3  11
ATOM     11  O   LIG A   1     -11.442   6.622 127.527  0.00  0.00    -0.503 OA
ATOM     12  H   LIG A   1     -11.745   5.697 127.479  0.00  0.00    +0.292 HD
ENDBRANCH   3  11
BRANCH   4  13
ATOM     13  O   LIG A   1     -11.578   5.092 129.811  0.00  0.00    -0.484 OA
BRANCH  13  14
ATOM     14  C   LIG A   1     -10.175   4.839 130.027  0.00  0.00    +0.257 C 
BRANCH  14  15
ATOM     15  C   LIG A   1      -9.783   5.114 131.456  0.00  0.00    +0.012 C 
ATOM     16  C   LIG A   1      -8.813   5.928 131.931  0.00  0.00    -0.073 C 
ATOM     17  C   LIG A   1      -7.997   6.863 131.079  0.00  0.00    +0.038 C 
BRANCH  16  18
ATOM     18  C   LIG A   1      -8.412   5.804 133.402  0.00  0.00    +0.034 C 
BRANCH  18  19
ATOM     19  C   LIG A   1      -8.780   4.496 134.127  0.00  0.00    +0.031 C 
BRANCH  19  20
ATOM     20  C   LIG A   1      -7.609   3.533 134.178  0.00  0.00    -0.028 C 
ATOM     21  C   LIG A   1      -7.505   2.361 133.518  0.00  0.00    -0.080 C 
ATOM     22  C   LIG A   1      -8.530   1.839 132.548  0.00  0.00    +0.038 C 
ATOM     23  C   LIG A   1      -6.344   1.419 133.730  0.00  0.00    +0.038 C 
ENDBRANCH  19  20
ENDBRANCH  18  19
ENDBRANCH  16  18
ENDBRANCH  14  15
ENDBRANCH  13  14
ENDBRANCH   4  13
TORSDOF 9
ENDMDL
MODEL 2
REMARK VINA RESULT:      -7.0      8.513      9.938
REMARK  Name = NuBBE_2
REMARK  12 active torsions:
REMARK  status: ('A' for Active; 'I' for Inactive)
REMARK    1  A    between atoms: C_2  and  C_3
REMARK    2  A    between atoms: C_2  and  O_21
REMARK    3  A    between atoms: C_5  and  O_6
REMARK    4  A    between atoms: C_7  and  O_10
REMARK    5  A    between atoms: O_10  and  C_11
REMARK    6  A    between atoms: C_11  and  C_12
REMARK    7  A    between atoms: C_13  and  C_14
REMARK    8  A    between atoms: C_13  and  C_20
REMARK    9  A    between atoms: C_14  and  C_15
REMARK   10  A    between atoms: C_15  and  C_16
REMARK   11  A    between atoms: C_17  and  C_18
REMARK   12  A    between atoms: C_17  and  C_19
REMARK                            x       y       z     vdW  Elec       q    Type
REMARK                         _______ _______ _______ _____ _____    ______ ____
ROOT
ATOM      1  C   LIG A   1      -7.995   1.982 123.173  0.00  0.00    +0.062 A 
ATOM      2  C   LIG A   1      -9.371   1.819 122.975  0.00  0.00    +0.064 A 
ATOM      3  C   LIG A   1      -9.914   0.537 122.947  0.00  0.00    +0.159 A 
ATOM      4  C   LIG A   1      -9.126  -0.605 123.151  0.00  0.00    +0.162 A 
ATOM      5  C   LIG A   1      -7.756  -0.439 123.355  0.00  0.00    +0.050 A 
ATOM      6  C   LIG A   1      -7.197   0.845 123.376  0.00  0.00    +0.019 A 
ENDROOT
BRANCH   1   8
ATOM      7  O   LIG A   1      -6.388   3.602 122.493  0.00  0.00    -0.245 OA
ATOM      8  C   LIG A   1      -7.364   3.318 123.199  0.00  0.00    +0.337 C 
BRANCH   8   9
ATOM      9  O   LIG A   1      -7.952   4.218 124.013  0.00  0.00    -0.477 OA
ATOM     10  H   LIG A   1      -8.925   4.256 123.969  0.00  0.00    +0.295 HD
ENDBRANCH   8   9
ENDBRANCH   1   8
BRANCH   3  11
ATOM     11  O   LIG A   1     -11.264   0.467 122.727  0.00  0.00    -0.503 OA
ATOM     12  H   LIG A   1     -11.655   0.018 123.498  0.00  0.00    +0.292 HD
ENDBRANCH   3  11
BRANCH   4  13
ATOM     13  O   LIG A   1      -9.775  -1.812 123.137  0.00  0.00    -0.484 OA
BRANCH  13  14
ATOM     14  C   LIG A   1      -9.052  -2.964 123.616  0.00  0.00    +0.257 C 
BRANCH  14  15
ATOM     15  C   LIG A   1      -9.293  -3.188 125.087  0.00  0.00    +0.012 C 
ATOM     16  C   LIG A   1      -8.419  -3.102 126.116  0.00  0.00    -0.073 C 
ATOM     17  C   LIG A   1      -7.003  -2.605 125.988  0.00  0.00    +0.038 C 
BRANCH  16  18
ATOM     18  C   LIG A   1      -8.833  -3.671 127.474  0.00  0.00    +0.034 C 
BRANCH  18  19
ATOM     19  C   LIG A   1      -8.278  -2.975 128.731  0.00  0.00    +0.031 C 
BRANCH  19  20
ATOM     20  C   LIG A   1      -7.147  -3.766 129.358  0.00  0.00    -0.028 C 
ATOM     21  C   LIG A   1      -6.724  -3.686 130.638  0.00  0.00    -0.080 C 
ATOM     22  C   LIG A   1      -7.367  -2.826 131.691  0.00  0.00    +0.038 C 
ATOM     23  C   LIG A   1      -5.509  -4.434 131.131  0.00  0.00    +0.038 C 
ENDBRANCH  19  20
ENDBRANCH  18  19
ENDBRANCH  16  18
ENDBRANCH  14  15
ENDBRANCH  13  14
ENDBRANCH   4  13
TORSDOF 9
ENDMDL
MODEL 3
REMARK VINA RESULT:      -7.0      1.187      2.534
REMARK  Name = NuBBE_2
REMARK  12 active torsions:
REMARK  status: ('A' for Active; 'I' for Inactive)
REMARK    1  A    between atoms: C_2  and  C_3
REMARK    2  A    between atoms: C_2  and  O_21
REMARK    3  A    between atoms: C_5  and  O_6
REMARK    4  A    between atoms: C_7  and  O_10
REMARK    5  A    between atoms: O_10  and  C_11
REMARK    6  A    between atoms: C_11  and  C_12
REMARK    7  A    between atoms: C_13  and  C_14
REMARK    8  A    between atoms: C_13  and  C_20
REMARK    9  A    between atoms: C_14  and  C_15
REMARK   10  A    between atoms: C_15  and  C_16
REMARK   11  A    between atoms: C_17  and  C_18
REMARK   12  A    between atoms: C_17  and  C_19
REMARK                            x       y       z     vdW  Elec       q    Type
REMARK                         _______ _______ _______ _____ _____    ______ ____
ROOT
ATOM      1  C   LIG A   1     -12.540   8.875 129.578  0.00  0.00    +0.062 A 
ATOM      2  C   LIG A   1     -11.607   8.573 128.579  0.00  0.00    +0.064 A 
ATOM      3  C   LIG A   1     -10.959   7.341 128.594  0.00  0.00    +0.159 A 
ATOM      4  C   LIG A   1     -11.242   6.368 129.563  0.00  0.00    +0.162 A 
ATOM      5  C   LIG A   1     -12.178   6.669 130.553  0.00  0.00    +0.050 A 
ATOM      6  C   LIG A   1     -12.829   7.909 130.555  0.00  0.00    +0.019 A 
ENDROOT
BRANCH   1   8
ATOM      7  O   LIG A   1     -13.305  10.862 130.645  0.00  0.00    -0.245 OA
ATOM      8  C   LIG A   1     -13.247  10.173 129.618  0.00  0.00    +0.337 C 
BRANCH   8   9
ATOM      9  O   LIG A   1     -13.788  10.572 128.449  0.00  0.00    -0.477 OA
ATOM     10  H   LIG A   1     -13.802  11.535 128.297  0.00  0.00    +0.295 HD
ENDBRANCH   8   9
ENDBRANCH   1   8
BRANCH   3  11
ATOM     11  O   LIG A   1     -10.047   7.137 127.594  0.00  0.00    -0.503 OA
ATOM     12  H   LIG A   1      -9.632   6.271 127.759  0.00  0.00    +0.292 HD
ENDBRANCH   3  11
BRANCH   4  13
ATOM     13  O   LIG A   1     -10.569   5.179 129.457  0.00  0.00    -0.484 OA
BRANCH  13  14
ATOM     14  C   LIG A   1     -10.776   4.200 130.495  0.00  0.00    +0.257 C 
BRANCH  14  15
ATOM     15  C   LIG A   1      -9.771   4.362 131.607  0.00  0.00    +0.012 C 
ATOM     16  C   LIG A   1      -9.315   3.438 132.483  0.00  0.00    -0.073 C 
ATOM     17  C   LIG A   1      -9.642   1.970 132.417  0.00  0.00    +0.038 C 
BRANCH  16  18
ATOM     18  C   LIG A   1      -8.530   3.918 133.706  0.00  0.00    +0.034 C 
BRANCH  18  19
ATOM     19  C   LIG A   1      -8.170   5.414 133.773  0.00  0.00    +0.031 C 
BRANCH  19  20
ATOM     20  C   LIG A   1      -6.817   5.695 133.148  0.00  0.00    -0.028 C 
ATOM     21  C   LIG A   1      -6.589   6.322 131.975  0.00  0.00    -0.080 C 
ATOM     22  C   LIG A   1      -7.666   6.919 131.109  0.00  0.00    +0.038 C 
ATOM     23  C   LIG A   1      -5.205   6.447 131.386  0.00  0.00    +0.038 C 
ENDBRANCH  19  20
ENDBRANCH  18  19
ENDBRANCH  16  18
ENDBRANCH  14  15
ENDBRANCH  13  14
ENDBRANCH   4  13
TORSDOF 9
ENDMDL
MODEL 4
REMARK VINA RESULT:      -7.0      2.302      3.272
REMARK  Name = NuBBE_2
REMARK  12 active torsions:
REMARK  status: ('A' for Active; 'I' for Inactive)
REMARK    1  A    between atoms: C_2  and  C_3
REMARK    2  A    between atoms: C_2  and  O_21
REMARK    3  A    between atoms: C_5  and  O_6
REMARK    4  A    between atoms: C_7  and  O_10
REMARK    5  A    between atoms: O_10  and  C_11
REMARK    6  A    between atoms: C_11  and  C_12
REMARK    7  A    between atoms: C_13  and  C_14
REMARK    8  A    between atoms: C_13  and  C_20
REMARK    9  A    between atoms: C_14  and  C_15
REMARK   10  A    between atoms: C_15  and  C_16
REMARK   11  A    between atoms: C_17  and  C_18
REMARK   12  A    between atoms: C_17  and  C_19
REMARK                            x       y       z     vdW  Elec       q    Type
REMARK                         _______ _______ _______ _____ _____    ______ ____
ROOT
ATOM      1  C   LIG A   1     -12.767   8.891 129.775  0.00  0.00    +0.062 A 
ATOM      2  C   LIG A   1     -12.118   8.334 128.667  0.00  0.00    +0.064 A 
ATOM      3  C   LIG A   1     -11.635   7.030 128.736  0.00  0.00    +0.159 A 
ATOM      4  C   LIG A   1     -11.814   6.234 129.876  0.00  0.00    +0.162 A 
ATOM      5  C   LIG A   1     -12.467   6.789 130.978  0.00  0.00    +0.050 A 
ATOM      6  C   LIG A   1     -12.948   8.104 130.924  0.00  0.00    +0.019 A 
ENDROOT
BRANCH   1   8
ATOM      7  O   LIG A   1     -13.283  10.992 130.770  0.00  0.00    -0.245 OA
ATOM      8  C   LIG A   1     -13.287  10.274 129.762  0.00  0.00    +0.337 C 
BRANCH   8   9
ATOM      9  O   LIG A   1     -13.727  10.713 128.565  0.00  0.00    -0.477 OA
ATOM     10  H   LIG A   1     -14.695  10.721 128.448  0.00  0.00    +0.295 HD
ENDBRANCH   8   9
ENDBRANCH   1   8
BRANCH   3  11
ATOM     11  O   LIG A   1     -10.996   6.573 127.615  0.00  0.00    -0.503 OA
ATOM     12  H   LIG A   1     -10.437   5.824 127.892  0.00  0.00    +0.292 HD
ENDBRANCH   3  11
BRANCH   4  13
ATOM     13  O   LIG A   1     -11.328   4.955 129.817  0.00  0.00    -0.484 OA
BRANCH  13  14
ATOM     14  C   LIG A   1     -10.212   4.624 130.668  0.00  0.00    +0.257 C 
BRANCH  14  15
ATOM     15  C   LIG A   1     -10.114   3.135 130.886  0.00  0.00    +0.012 C 
ATOM     16  C   LIG A   1      -9.659   2.462 131.967  0.00  0.00    -0.073 C 
ATOM     17  C   LIG A   1      -9.278   3.109 133.272  0.00  0.00    +0.038 C 
BRANCH  16  18
ATOM     18  C   LIG A   1      -9.377   0.965 131.828  0.00  0.00    +0.034 C 
BRANCH  18  19
ATOM     19  C   LIG A   1      -8.320   0.538 130.793  0.00  0.00    +0.031 C 
BRANCH  19  20
ATOM     20  C   LIG A   1      -8.166  -0.970 130.736  0.00  0.00    -0.028 C 
ATOM     21  C   LIG A   1      -7.851  -1.704 129.648  0.00  0.00    -0.080 C 
ATOM     22  C   LIG A   1      -7.529  -1.123 128.298  0.00  0.00    +0.038 C 
ATOM     23  C   LIG A   1      -7.838  -3.213 129.673  0.00  0.00    +0.038 C 
ENDBRANCH  19  20
ENDBRANCH  18  19
ENDBRANCH  16  18
ENDBRANCH  14  15
ENDBRANCH  13  14
ENDBRANCH   4  13
TORSDOF 9
ENDMDL
MODEL 5
REMARK VINA RESULT:      -7.0      8.548     10.441
REMARK  Name = NuBBE_2
REMARK  12 active torsions:
REMARK  status: ('A' for Active; 'I' for Inactive)
REMARK    1  A    between atoms: C_2  and  C_3
REMARK    2  A    between atoms: C_2  and  O_21
REMARK    3  A    between atoms: C_5  and  O_6
REMARK    4  A    between atoms: C_7  and  O_10
REMARK    5  A    between atoms: O_10  and  C_11
REMARK    6  A    between atoms: C_11  and  C_12
REMARK    7  A    between atoms: C_13  and  C_14
REMARK    8  A    between atoms: C_13  and  C_20
REMARK    9  A    between atoms: C_14  and  C_15
REMARK   10  A    between atoms: C_15  and  C_16
REMARK   11  A    between atoms: C_17  and  C_18
REMARK   12  A    between atoms: C_17  and  C_19
REMARK                            x       y       z     vdW  Elec       q    Type
REMARK                         _______ _______ _______ _____ _____    ______ ____
ROOT
ATOM      1  C   LIG A   1      -6.960   3.523 122.038  0.00  0.00    +0.062 A 
ATOM      2  C   LIG A   1      -8.274   3.059 122.180  0.00  0.00    +0.064 A 
ATOM      3  C   LIG A   1      -8.679   2.503 123.390  0.00  0.00    +0.159 A 
ATOM      4  C   LIG A   1      -7.818   2.426 124.495  0.00  0.00    +0.162 A 
ATOM      5  C   LIG A   1      -6.511   2.895 124.352  0.00  0.00    +0.050 A 
ATOM      6  C   LIG A   1      -6.089   3.448 123.137  0.00  0.00    +0.019 A 
ENDROOT
BRANCH   1   8
ATOM      7  O   LIG A   1      -7.023   3.887 119.686  0.00  0.00    -0.245 OA
ATOM      8  C   LIG A   1      -6.473   4.110 120.772  0.00  0.00    +0.337 C 
BRANCH   8   9
ATOM      9  O   LIG A   1      -5.416   4.939 120.890  0.00  0.00    -0.477 OA
ATOM     10  H   LIG A   1      -4.625   4.690 120.376  0.00  0.00    +0.295 HD
ENDBRANCH   8   9
ENDBRANCH   1   8
BRANCH   3  11
ATOM     11  O   LIG A   1      -9.972   2.056 123.436  0.00  0.00    -0.503 OA
ATOM     12  H   LIG A   1     -10.193   1.920 124.376  0.00  0.00    +0.292 HD
ENDBRANCH   3  11
BRANCH   4  13
ATOM     13  O   LIG A   1      -8.337   1.892 125.645  0.00  0.00    -0.484 OA
BRANCH  13  14
ATOM     14  C   LIG A   1      -7.761   0.662 126.129  0.00  0.00    +0.257 C 
BRANCH  14  15
ATOM     15  C   LIG A   1      -8.609  -0.525 125.750  0.00  0.00    +0.012 C 
ATOM     16  C   LIG A   1      -8.633  -1.762 126.296  0.00  0.00    -0.073 C 
ATOM     17  C   LIG A   1      -7.878  -2.158 127.537  0.00  0.00    +0.038 C 
BRANCH  16  18
ATOM     18  C   LIG A   1      -9.358  -2.878 125.541  0.00  0.00    +0.034 C 
BRANCH  18  19
ATOM     19  C   LIG A   1      -8.771  -3.313 124.185  0.00  0.00    +0.031 C 
BRANCH  19  20
ATOM     20  C   LIG A   1      -7.320  -3.736 124.311  0.00  0.00    -0.028 C 
ATOM     21  C   LIG A   1      -6.249  -3.093 123.797  0.00  0.00    -0.080 C 
ATOM     22  C   LIG A   1      -6.319  -1.786 123.056  0.00  0.00    +0.038 C 
ATOM     23  C   LIG A   1      -4.854  -3.664 123.881  0.00  0.00    +0.038 C 
ENDBRANCH  19  20
ENDBRANCH  18  19
ENDBRANCH  16  18
ENDBRANCH  14  15
ENDBRANCH  13  14
ENDBRANCH   4  13
TORSDOF 9
ENDMDL
MODEL 6
REMARK VINA RESULT:      -6.9      3.325      4.498
REMARK  Name = NuBBE_2
REMARK  12 active torsions:
REMARK  status: ('A' for Active; 'I' for Inactive)
REMARK    1  A    between atoms: C_2  and  C_3
REMARK    2  A    between atoms: C_2  and  O_21
REMARK    3  A    between atoms: C_5  and  O_6
REMARK    4  A    between atoms: C_7  and  O_10
REMARK    5  A    between atoms: O_10  and  C_11
REMARK    6  A    between atoms: C_11  and  C_12
REMARK    7  A    between atoms: C_13  and  C_14
REMARK    8  A    between atoms: C_13  and  C_20
REMARK    9  A    between atoms: C_14  and  C_15
REMARK   10  A    between atoms: C_15  and  C_16
REMARK   11  A    between atoms: C_17  and  C_18
REMARK   12  A    between atoms: C_17  and  C_19
REMARK                            x       y       z     vdW  Elec       q    Type
REMARK                         _______ _______ _______ _____ _____    ______ ____
ROOT
ATOM      1  C   LIG A   1     -12.076   8.232 129.339  0.00  0.00    +0.062 A 
ATOM      2  C   LIG A   1     -12.406   7.485 130.476  0.00  0.00    +0.064 A 
ATOM      3  C   LIG A   1     -11.459   6.632 131.037  0.00  0.00    +0.159 A 
ATOM      4  C   LIG A   1     -10.161   6.525 130.518  0.00  0.00    +0.162 A 
ATOM      5  C   LIG A   1      -9.832   7.276 129.389  0.00  0.00    +0.050 A 
ATOM      6  C   LIG A   1     -10.780   8.129 128.810  0.00  0.00    +0.019 A 
ENDROOT
BRANCH   1   8
ATOM      7  O   LIG A   1     -13.886   8.743 127.879  0.00  0.00    -0.245 OA
ATOM      8  C   LIG A   1     -13.046   9.142 128.695  0.00  0.00    +0.337 C 
BRANCH   8   9
ATOM      9  O   LIG A   1     -12.980  10.430 129.091  0.00  0.00    -0.477 OA
ATOM     10  H   LIG A   1     -13.297  11.087 128.445  0.00  0.00    +0.295 HD
ENDBRANCH   8   9
ENDBRANCH   1   8
BRANCH   3  11
ATOM     11  O   LIG A   1     -11.872   5.924 132.133  0.00  0.00    -0.503 OA
ATOM     12  H   LIG A   1     -12.530   6.474 132.596  0.00  0.00    +0.292 HD
ENDBRANCH   3  11
BRANCH   4  13
ATOM     13  O   LIG A   1      -9.303   5.681 131.173  0.00  0.00    -0.484 OA
BRANCH  13  14
ATOM     14  C   LIG A   1      -8.353   6.269 132.084  0.00  0.00    +0.257 C 
BRANCH  14  15
ATOM     15  C   LIG A   1      -7.064   6.615 131.381  0.00  0.00    +0.012 C 
ATOM     16  C   LIG A   1      -5.792   6.447 131.807  0.00  0.00    -0.073 C 
ATOM     17  C   LIG A   1      -5.406   5.719 133.067  0.00  0.00    +0.038 C 
BRANCH  16  18
ATOM     18  C   LIG A   1      -4.669   7.154 131.045  0.00  0.00    +0.034 C 
BRANCH  18  19
ATOM     19  C   LIG A   1      -3.261   6.537 131.127  0.00  0.00    +0.031 C 
BRANCH  19  20
ATOM     20  C   LIG A   1      -3.078   5.417 130.121  0.00  0.00    -0.028 C 
ATOM     21  C   LIG A   1      -2.667   5.546 128.842  0.00  0.00    -0.080 C 
ATOM     22  C   LIG A   1      -2.249   6.847 128.212  0.00  0.00    +0.038 C 
ATOM     23  C   LIG A   1      -2.631   4.377 127.888  0.00  0.00    +0.038 C 
ENDBRANCH  19  20
ENDBRANCH  18  19
ENDBRANCH  16  18
ENDBRANCH  14  15
ENDBRANCH  13  14
ENDBRANCH   4  13
TORSDOF 9
ENDMDL
MODEL 7
REMARK VINA RESULT:      -6.8      2.028      3.321
REMARK  Name = NuBBE_2
REMARK  12 active torsions:
REMARK  status: ('A' for Active; 'I' for Inactive)
REMARK    1  A    between atoms: C_2  and  C_3
REMARK    2  A    between atoms: C_2  and  O_21
REMARK    3  A    between atoms: C_5  and  O_6
REMARK    4  A    between atoms: C_7  and  O_10
REMARK    5  A    between atoms: O_10  and  C_11
REMARK    6  A    between atoms: C_11  and  C_12
REMARK    7  A    between atoms: C_13  and  C_14
REMARK    8  A    between atoms: C_13  and  C_20
REMARK    9  A    between atoms: C_14  and  C_15
REMARK   10  A    between atoms: C_15  and  C_16
REMARK   11  A    between atoms: C_17  and  C_18
REMARK   12  A    between atoms: C_17  and  C_19
REMARK                            x       y       z     vdW  Elec       q    Type
REMARK                         _______ _______ _______ _____ _____    ______ ____
ROOT
ATOM      1  C   LIG A   1     -12.774   8.724 129.655  0.00  0.00    +0.062 A 
ATOM      2  C   LIG A   1     -12.692   8.037 130.872  0.00  0.00    +0.064 A 
ATOM      3  C   LIG A   1     -12.173   6.746 130.898  0.00  0.00    +0.159 A 
ATOM      4  C   LIG A   1     -11.689   6.119 129.741  0.00  0.00    +0.162 A 
ATOM      5  C   LIG A   1     -11.766   6.809 128.530  0.00  0.00    +0.050 A 
ATOM      6  C   LIG A   1     -12.295   8.105 128.490  0.00  0.00    +0.019 A 
ENDROOT
BRANCH   1   8
ATOM      7  O   LIG A   1     -13.873  10.519 128.541  0.00  0.00    -0.245 OA
ATOM      8  C   LIG A   1     -13.329  10.092 129.567  0.00  0.00    +0.337 C 
BRANCH   8   9
ATOM      9  O   LIG A   1     -13.237  10.825 130.695  0.00  0.00    -0.477 OA
ATOM     10  H   LIG A   1     -12.424  11.354 130.791  0.00  0.00    +0.295 HD
ENDBRANCH   8   9
ENDBRANCH   1   8
BRANCH   3  11
ATOM     11  O   LIG A   1     -12.149   6.139 132.125  0.00  0.00    -0.503 OA
ATOM     12  H   LIG A   1     -11.316   5.636 132.178  0.00  0.00    +0.292 HD
ENDBRANCH   3  11
BRANCH   4  13
ATOM     13  O   LIG A   1     -11.168   4.861 129.893  0.00  0.00    -0.484 OA
BRANCH  13  14
ATOM     14  C   LIG A   1      -9.751   4.695 129.686  0.00  0.00    +0.257 C 
BRANCH  14  15
ATOM     15  C   LIG A   1      -8.977   4.977 130.949  0.00  0.00    +0.012 C 
ATOM     16  C   LIG A   1      -8.328   6.105 131.316  0.00  0.00    -0.073 C 
ATOM     17  C   LIG A   1      -8.379   7.401 130.551  0.00  0.00    +0.038 C 
BRANCH  16  18
ATOM     18  C   LIG A   1      -7.366   6.040 132.504  0.00  0.00    +0.034 C 
BRANCH  18  19
ATOM     19  C   LIG A   1      -6.021   5.322 132.286  0.00  0.00    +0.031 C 
BRANCH  19  20
ATOM     20  C   LIG A   1      -4.844   6.225 132.599  0.00  0.00    -0.028 C 
ATOM     21  C   LIG A   1      -4.240   7.080 131.747  0.00  0.00    -0.080 C 
ATOM     22  C   LIG A   1      -4.690   7.329 130.333  0.00  0.00    +0.038 C 
ATOM     23  C   LIG A   1      -2.998   7.849 132.127  0.00  0.00    +0.038 C 
ENDBRANCH  19  20
ENDBRANCH  18  19
ENDBRANCH  16  18
ENDBRANCH  14  15
ENDBRANCH  13  14
ENDBRANCH   4  13
TORSDOF 9
ENDMDL
MODEL 8
REMARK VINA RESULT:      -6.7      2.658      3.693
REMARK  Name = NuBBE_2
REMARK  12 active torsions:
REMARK  status: ('A' for Active; 'I' for Inactive)
REMARK    1  A    between atoms: C_2  and  C_3
REMARK    2  A    between atoms: C_2  and  O_21
REMARK    3  A    between atoms: C_5  and  O_6
REMARK    4  A    between atoms: C_7  and  O_10
REMARK    5  A    between atoms: O_10  and  C_11
REMARK    6  A    between atoms: C_11  and  C_12
REMARK    7  A    between atoms: C_13  and  C_14
REMARK    8  A    between atoms: C_13  and  C_20
REMARK    9  A    between atoms: C_14  and  C_15
REMARK   10  A    between atoms: C_15  and  C_16
REMARK   11  A    between atoms: C_17  and  C_18
REMARK   12  A    between atoms: C_17  and  C_19
REMARK                            x       y       z     vdW  Elec       q    Type
REMARK                         _______ _______ _______ _____ _____    ______ ____
ROOT
ATOM      1  C   LIG A   1     -12.554   8.780 129.652  0.00  0.00    +0.062 A 
ATOM      2  C   LIG A   1     -11.668   8.377 128.646  0.00  0.00    +0.064 A 
ATOM      3  C   LIG A   1     -11.054   7.130 128.731  0.00  0.00    +0.159 A 
ATOM      4  C   LIG A   1     -11.326   6.241 129.781  0.00  0.00    +0.162 A 
ATOM      5  C   LIG A   1     -12.215   6.643 130.778  0.00  0.00    +0.050 A 
ATOM      6  C   LIG A   1     -12.832   7.899 130.709  0.00  0.00    +0.019 A 
ENDROOT
BRANCH   1   8
ATOM      7  O   LIG A   1     -13.287  10.832 130.613  0.00  0.00    -0.245 OA
ATOM      8  C   LIG A   1     -13.224  10.098 129.619  0.00  0.00    +0.337 C 
BRANCH   8   9
ATOM      9  O   LIG A   1     -13.723  10.461 128.420  0.00  0.00    -0.477 OA
ATOM     10  H   LIG A   1     -13.066  10.738 127.755  0.00  0.00    +0.295 HD
ENDBRANCH   8   9
ENDBRANCH   1   8
BRANCH   3  11
ATOM     11  O   LIG A   1     -10.187   6.824 127.717  0.00  0.00    -0.503 OA
ATOM     12  H   LIG A   1     -10.017   7.650 127.229  0.00  0.00    +0.292 HD
ENDBRANCH   3  11
BRANCH   4  13
ATOM     13  O   LIG A   1     -10.691   5.028 129.741  0.00  0.00    -0.484 OA
BRANCH  13  14
ATOM     14  C   LIG A   1     -10.146   4.519 130.975  0.00  0.00    +0.257 C 
BRANCH  14  15
ATOM     15  C   LIG A   1      -8.648   4.365 130.889  0.00  0.00    +0.012 C 
ATOM     16  C   LIG A   1      -7.694   5.323 130.871  0.00  0.00    -0.073 C 
ATOM     17  C   LIG A   1      -7.958   6.790 131.085  0.00  0.00    +0.038 C 
BRANCH  16  18
ATOM     18  C   LIG A   1      -6.271   4.927 130.472  0.00  0.00    +0.034 C 
BRANCH  18  19
ATOM     19  C   LIG A   1      -5.148   5.942 130.755  0.00  0.00    +0.031 C 
BRANCH  19  20
ATOM     20  C   LIG A   1      -4.300   6.201 129.525  0.00  0.00    -0.028 C 
ATOM     21  C   LIG A   1      -2.968   6.414 129.499  0.00  0.00    -0.080 C 
ATOM     22  C   LIG A   1      -2.076   6.361 130.710  0.00  0.00    +0.038 C 
ATOM     23  C   LIG A   1      -2.237   6.780 128.230  0.00  0.00    +0.038 C 
ENDBRANCH  19  20
ENDBRANCH  18  19
ENDBRANCH  16  18
ENDBRANCH  14  15
ENDBRANCH  13  14
ENDBRANCH   4  13
TORSDOF 9
ENDMDL
MODEL 9
REMARK VINA RESULT:      -6.6      9.788     12.580
REMARK  Name = NuBBE_2
REMARK  12 active torsions:
REMARK  status: ('A' for Active; 'I' for Inactive)
REMARK    1  A    between atoms: C_2  and  C_3
REMARK    2  A    between atoms: C_2  and  O_21
REMARK    3  A    between atoms: C_5  and  O_6
REMARK    4  A    between atoms: C_7  and  O_10
REMARK    5  A    between atoms: O_10  and  C_11
REMARK    6  A    between atoms: C_11  and  C_12
REMARK    7  A    between atoms: C_13  and  C_14
REMARK    8  A    between atoms: C_13  and  C_20
REMARK    9  A    between atoms: C_14  and  C_15
REMARK   10  A    between atoms: C_15  and  C_16
REMARK   11  A    between atoms: C_17  and  C_18
REMARK   12  A    between atoms: C_17  and  C_19
REMARK                            x       y       z     vdW  Elec       q    Type
REMARK                         _______ _______ _______ _____ _____    ______ ____
ROOT
ATOM      1  C   LIG A   1      -5.602  -3.345 129.817  0.00  0.00    +0.062 A 
ATOM      2  C   LIG A   1      -5.068  -2.305 129.048  0.00  0.00    +0.064 A 
ATOM      3  C   LIG A   1      -5.899  -1.587 128.192  0.00  0.00    +0.159 A 
ATOM      4  C   LIG A   1      -7.274  -1.848 128.103  0.00  0.00    +0.162 A 
ATOM      5  C   LIG A   1      -7.805  -2.882 128.876  0.00  0.00    +0.050 A 
ATOM      6  C   LIG A   1      -6.977  -3.618 129.734  0.00  0.00    +0.019 A 
ENDROOT
BRANCH   1   8
ATOM      7  O   LIG A   1      -5.178  -5.184 131.270  0.00  0.00    -0.245 OA
ATOM      8  C   LIG A   1      -4.764  -4.149 130.732  0.00  0.00    +0.337 C 
BRANCH   8   9
ATOM      9  O   LIG A   1      -3.505  -3.698 130.906  0.00  0.00    -0.477 OA
ATOM     10  H   LIG A   1      -2.888  -4.321 131.333  0.00  0.00    +0.295 HD
ENDBRANCH   8   9
ENDBRANCH   1   8
BRANCH   3  11
ATOM     11  O   LIG A   1      -5.291  -0.602 127.461  0.00  0.00    -0.503 OA
ATOM     12  H   LIG A   1      -4.330  -0.721 127.567  0.00  0.00    +0.292 HD
ENDBRANCH   3  11
BRANCH   4  13
ATOM     13  O   LIG A   1      -7.999  -1.055 127.254  0.00  0.00    -0.484 OA
BRANCH  13  14
ATOM     14  C   LIG A   1      -8.862  -1.708 126.302  0.00  0.00    +0.257 C 
BRANCH  14  15
ATOM     15  C   LIG A   1      -8.415  -1.443 124.887  0.00  0.00    +0.012 C 
ATOM     16  C   LIG A   1      -8.639  -2.176 123.772  0.00  0.00    -0.073 C 
ATOM     17  C   LIG A   1      -9.541  -3.380 123.715  0.00  0.00    +0.038 C 
BRANCH  16  18
ATOM     18  C   LIG A   1      -7.826  -1.859 122.515  0.00  0.00    +0.034 C 
BRANCH  18  19
ATOM     19  C   LIG A   1      -6.347  -1.478 122.707  0.00  0.00    +0.031 C 
BRANCH  19  20
ATOM     20  C   LIG A   1      -5.439  -2.691 122.628  0.00  0.00    -0.028 C 
ATOM     21  C   LIG A   1      -5.031  -3.456 123.662  0.00  0.00    -0.080 C 
ATOM     22  C   LIG A   1      -5.474  -3.265 125.086  0.00  0.00    +0.038 C 
ATOM     23  C   LIG A   1      -4.030  -4.573 123.487  0.00  0.00    +0.038 C 
ENDBRANCH  19  20
ENDBRANCH  18  19
ENDBRANCH  16  18
ENDBRANCH  14  15
ENDBRANCH  13  14
ENDBRANCH   4  13
TORSDOF 9
ENDMDL
