MODEL 1
REMARK VINA RESULT:      -6.7      0.000      0.000
REMARK  Name = NuBBE_23
REMARK  8 active torsions:
REMARK  status: ('A' for Active; 'I' for Inactive)
REMARK    1  A    between atoms: C_2  and  C_9
REMARK    2  A    between atoms: N_3  and  C_5
REMARK    3  A    between atoms: C_5  and  C_6
REMARK    4  A    between atoms: C_6  and  C_7
REMARK    5  A    between atoms: C_6  and  C_8
REMARK    6  A    between atoms: C_10  and  C_11
REMARK    7  A    between atoms: C_11  and  C_12
REMARK    8  A    between atoms: C_12  and  C_13
REMARK                            x       y       z     vdW  Elec       q    Type
REMARK                         _______ _______ _______ _____ _____    ______ ____
ROOT
ATOM      1  C   LIG A   1      -7.411   3.455 125.108  0.00  0.00    +0.032 C 
ENDROOT
BRANCH   1   3
ATOM      2  C   LIG A   1      -8.049   1.026 125.056  0.00  0.00    +0.063 C 
ATOM      3  C   LIG A   1      -8.360   2.305 125.339  0.00  0.00    -0.021 C 
BRANCH   2   5
ATOM      4  O   LIG A   1     -10.215   0.084 125.351  0.00  0.00    -0.271 OA
ATOM      5  C   LIG A   1      -8.999  -0.086 125.325  0.00  0.00    +0.237 C 
ATOM      6  N   LIG A   1      -8.369  -1.284 125.545  0.00  0.00    -0.312 N 
ATOM      7  H   LIG A   1      -7.361  -1.323 125.465  0.00  0.00    +0.149 HD
BRANCH   6   8
ATOM      8  C   LIG A   1      -9.065  -2.540 125.799  0.00  0.00    +0.107 C 
BRANCH   8   9
ATOM      9  C   LIG A   1      -8.796  -3.588 124.706  0.00  0.00    +0.000 C 
ATOM     10  C   LIG A   1      -9.597  -3.298 123.434  0.00  0.00    +0.009 C 
ATOM     11  C   LIG A   1      -7.303  -3.651 124.366  0.00  0.00    +0.009 C 
ENDBRANCH   8   9
ENDBRANCH   6   8
ENDBRANCH   2   5
ENDBRANCH   1   3
BRANCH   1  12
ATOM     12  C   LIG A   1      -6.126   3.074 124.349  0.00  0.00    +0.039 C 
BRANCH  12  13
ATOM     13  C   LIG A   1      -6.038   3.692 122.969  0.00  0.00    -0.043 A 
ATOM     14  C   LIG A   1      -7.079   3.521 122.043  0.00  0.00    +0.053 A 
ATOM     15  C   LIG A   1      -6.902   4.021 120.768  0.00  0.00    +0.167 A 
ATOM     16  O   LIG A   1      -7.797   3.928 119.748  0.00  0.00    -0.453 OA
ATOM     17  C   LIG A   1      -7.087   4.623 118.701  0.00  0.00    +0.466 C 
ATOM     18  O   LIG A   1      -5.769   5.058 119.092  0.00  0.00    -0.453 OA
ATOM     19  C   LIG A   1      -5.750   4.671 120.395  0.00  0.00    +0.166 A 
ATOM     20  C   LIG A   1      -4.716   4.879 121.281  0.00  0.00    +0.050 A 
ATOM     21  C   LIG A   1      -4.872   4.394 122.582  0.00  0.00    +0.007 A 
ENDBRANCH  12  13
ENDBRANCH   1  12
TORSDOF 6
ENDMDL
MODEL 2
REMARK VINA RESULT:      -6.6     10.339     12.761
REMARK  Name = NuBBE_23
REMARK  8 active torsions:
REMARK  status: ('A' for Active; 'I' for Inactive)
REMARK    1  A    between atoms: C_2  and  C_9
REMARK    2  A    between atoms: N_3  and  C_5
REMARK    3  A    between atoms: C_5  and  C_6
REMARK    4  A    between atoms: C_6  and  C_7
REMARK    5  A    between atoms: C_6  and  C_8
REMARK    6  A    between atoms: C_10  and  C_11
REMARK    7  A    between atoms: C_11  and  C_12
REMARK    8  A    between atoms: C_12  and  C_13
REMARK                            x       y       z     vdW  Elec       q    Type
REMARK                         _______ _______ _______ _____ _____    ______ ____
ROOT
ATOM      1  C   LIG A   1      -8.066   5.356 132.512  0.00  0.00    +0.032 C 
ENDROOT
BRANCH   1   3
ATOM      2  C   LIG A   1      -7.914   5.331 135.019  0.00  0.00    +0.063 C 
ATOM      3  C   LIG A   1      -7.644   5.928 133.843  0.00  0.00    -0.021 C 
BRANCH   2   5
ATOM      4  O   LIG A   1      -6.281   5.861 136.668  0.00  0.00    -0.271 OA
ATOM      5  C   LIG A   1      -7.455   5.909 136.310  0.00  0.00    +0.237 C 
ATOM      6  N   LIG A   1      -8.473   6.475 137.033  0.00  0.00    -0.312 N 
ATOM      7  H   LIG A   1      -9.401   6.494 136.629  0.00  0.00    +0.149 HD
BRANCH   6   8
ATOM      8  C   LIG A   1      -8.293   7.141 138.317  0.00  0.00    +0.107 C 
BRANCH   8   9
ATOM      9  C   LIG A   1      -8.607   8.645 138.245  0.00  0.00    +0.000 C 
ATOM     10  C   LIG A   1      -7.405   9.450 137.741  0.00  0.00    +0.009 C 
ATOM     11  C   LIG A   1      -9.814   8.907 137.337  0.00  0.00    +0.009 C 
ENDBRANCH   8   9
ENDBRANCH   6   8
ENDBRANCH   2   5
ENDBRANCH   1   3
BRANCH   1  12
ATOM     12  C   LIG A   1      -8.065   6.373 131.355  0.00  0.00    +0.039 C 
BRANCH  12  13
ATOM     13  C   LIG A   1      -9.454   6.743 130.879  0.00  0.00    -0.043 A 
ATOM     14  C   LIG A   1      -9.630   7.520 129.722  0.00  0.00    +0.053 A 
ATOM     15  C   LIG A   1     -10.912   7.909 129.391  0.00  0.00    +0.167 A 
ATOM     16  O   LIG A   1     -11.257   8.673 128.320  0.00  0.00    -0.453 OA
ATOM     17  C   LIG A   1     -12.690   8.736 128.482  0.00  0.00    +0.466 C 
ATOM     18  O   LIG A   1     -13.162   8.067 129.670  0.00  0.00    -0.453 OA
ATOM     19  C   LIG A   1     -12.000   7.559 130.155  0.00  0.00    +0.166 A 
ATOM     20  C   LIG A   1     -11.871   6.780 131.283  0.00  0.00    +0.050 A 
ATOM     21  C   LIG A   1     -10.586   6.359 131.637  0.00  0.00    +0.007 A 
ENDBRANCH  12  13
ENDBRANCH   1  12
TORSDOF 6
ENDMDL
MODEL 3
REMARK VINA RESULT:      -6.5      9.234     12.010
REMARK  Name = NuBBE_23
REMARK  8 active torsions:
REMARK  status: ('A' for Active; 'I' for Inactive)
REMARK    1  A    between atoms: C_2  and  C_9
REMARK    2  A    between atoms: N_3  and  C_5
REMARK    3  A    between atoms: C_5  and  C_6
REMARK    4  A    between atoms: C_6  and  C_7
REMARK    5  A    between atoms: C_6  and  C_8
REMARK    6  A    between atoms: C_10  and  C_11
REMARK    7  A    between atoms: C_11  and  C_12
REMARK    8  A    between atoms: C_12  and  C_13
REMARK                            x       y       z     vdW  Elec       q    Type
REMARK                         _______ _______ _______ _____ _____    ______ ____
ROOT
ATOM      1  C   LIG A   1      -9.841   2.854 130.734  0.00  0.00    +0.032 C 
ENDROOT
BRANCH   1   3
ATOM      2  C   LIG A   1     -10.868   5.141 130.886  0.00  0.00    +0.063 C 
ATOM      3  C   LIG A   1     -10.959   3.847 130.528  0.00  0.00    -0.021 C 
BRANCH   2   5
ATOM      4  O   LIG A   1     -12.555   6.683 131.552  0.00  0.00    -0.271 OA
ATOM      5  C   LIG A   1     -11.980   6.098 130.639  0.00  0.00    +0.237 C 
ATOM      6  N   LIG A   1     -12.280   6.234 129.308  0.00  0.00    -0.312 N 
ATOM      7  H   LIG A   1     -11.719   5.733 128.631  0.00  0.00    +0.149 HD
BRANCH   6   8
ATOM      8  C   LIG A   1     -13.304   7.132 128.788  0.00  0.00    +0.107 C 
BRANCH   8   9
ATOM      9  C   LIG A   1     -12.723   8.486 128.345  0.00  0.00    +0.000 C 
ATOM     10  C   LIG A   1     -12.892   9.556 129.428  0.00  0.00    +0.009 C 
ATOM     11  C   LIG A   1     -11.239   8.352 127.987  0.00  0.00    +0.009 C 
ENDBRANCH   8   9
ENDBRANCH   6   8
ENDBRANCH   2   5
ENDBRANCH   1   3
BRANCH   1  12
ATOM     12  C   LIG A   1      -9.809   2.217 132.136  0.00  0.00    +0.039 C 
BRANCH  12  13
ATOM     13  C   LIG A   1      -8.757   2.817 133.045  0.00  0.00    -0.043 A 
ATOM     14  C   LIG A   1      -7.503   2.202 133.189  0.00  0.00    +0.053 A 
ATOM     15  C   LIG A   1      -6.620   2.737 134.106  0.00  0.00    +0.167 A 
ATOM     16  O   LIG A   1      -5.377   2.258 134.383  0.00  0.00    -0.453 OA
ATOM     17  C   LIG A   1      -4.938   3.205 135.380  0.00  0.00    +0.466 C 
ATOM     18  O   LIG A   1      -5.940   4.184 135.722  0.00  0.00    -0.453 OA
ATOM     19  C   LIG A   1      -6.937   3.838 134.865  0.00  0.00    +0.166 A 
ATOM     20  C   LIG A   1      -8.146   4.483 134.735  0.00  0.00    +0.050 A 
ATOM     21  C   LIG A   1      -9.057   3.972 133.807  0.00  0.00    +0.007 A 
ENDBRANCH  12  13
ENDBRANCH   1  12
TORSDOF 6
ENDMDL
MODEL 4
REMARK VINA RESULT:      -6.5      7.572      9.395
REMARK  Name = NuBBE_23
REMARK  8 active torsions:
REMARK  status: ('A' for Active; 'I' for Inactive)
REMARK    1  A    between atoms: C_2  and  C_9
REMARK    2  A    between atoms: N_3  and  C_5
REMARK    3  A    between atoms: C_5  and  C_6
REMARK    4  A    between atoms: C_6  and  C_7
REMARK    5  A    between atoms: C_6  and  C_8
REMARK    6  A    between atoms: C_10  and  C_11
REMARK    7  A    between atoms: C_11  and  C_12
REMARK    8  A    between atoms: C_12  and  C_13
REMARK                            x       y       z     vdW  Elec       q    Type
REMARK                         _______ _______ _______ _____ _____    ______ ____
ROOT
ATOM      1  C   LIG A   1      -5.672   6.264 131.913  0.00  0.00    +0.032 C 
ENDROOT
BRANCH   1   3
ATOM      2  C   LIG A   1      -7.975   6.756 131.039  0.00  0.00    +0.063 C 
ATOM      3  C   LIG A   1      -7.179   6.226 131.986  0.00  0.00    -0.021 C 
BRANCH   2   5
ATOM      4  O   LIG A   1     -10.039   6.497 132.196  0.00  0.00    -0.271 OA
ATOM      5  C   LIG A   1      -9.457   6.672 131.130  0.00  0.00    +0.237 C 
ATOM      6  N   LIG A   1     -10.074   6.801 129.911  0.00  0.00    -0.312 N 
ATOM      7  H   LIG A   1      -9.502   6.979 129.096  0.00  0.00    +0.149 HD
BRANCH   6   8
ATOM      8  C   LIG A   1     -11.519   6.789 129.721  0.00  0.00    +0.107 C 
BRANCH   8   9
ATOM      9  C   LIG A   1     -11.996   7.929 128.804  0.00  0.00    +0.000 C 
ATOM     10  C   LIG A   1     -12.704   9.033 129.595  0.00  0.00    +0.009 C 
ATOM     11  C   LIG A   1     -10.821   8.531 128.026  0.00  0.00    +0.009 C 
ENDBRANCH   8   9
ENDBRANCH   6   8
ENDBRANCH   2   5
ENDBRANCH   1   3
BRANCH   1  12
ATOM     12  C   LIG A   1      -5.114   7.169 130.799  0.00  0.00    +0.039 C 
BRANCH  12  13
ATOM     13  C   LIG A   1      -4.317   6.415 129.755  0.00  0.00    -0.043 A 
ATOM     14  C   LIG A   1      -4.661   5.098 129.408  0.00  0.00    +0.053 A 
ATOM     15  C   LIG A   1      -3.841   4.426 128.524  0.00  0.00    +0.167 A 
ATOM     16  O   LIG A   1      -4.016   3.147 128.096  0.00  0.00    -0.453 OA
ATOM     17  C   LIG A   1      -2.890   3.003 127.203  0.00  0.00    +0.466 C 
ATOM     18  O   LIG A   1      -2.038   4.166 127.164  0.00  0.00    -0.453 OA
ATOM     19  C   LIG A   1      -2.717   5.008 127.987  0.00  0.00    +0.166 A 
ATOM     20  C   LIG A   1      -2.360   6.304 128.284  0.00  0.00    +0.050 A 
ATOM     21  C   LIG A   1      -3.178   7.015 129.167  0.00  0.00    +0.007 A 
ENDBRANCH  12  13
ENDBRANCH   1  12
TORSDOF 6
ENDMDL
MODEL 5
REMARK VINA RESULT:      -6.5      7.827     10.761
REMARK  Name = NuBBE_23
REMARK  8 active torsions:
REMARK  status: ('A' for Active; 'I' for Inactive)
REMARK    1  A    between atoms: C_2  and  C_9
REMARK    2  A    between atoms: N_3  and  C_5
REMARK    3  A    between atoms: C_5  and  C_6
REMARK    4  A    between atoms: C_6  and  C_7
REMARK    5  A    between atoms: C_6  and  C_8
REMARK    6  A    between atoms: C_10  and  C_11
REMARK    7  A    between atoms: C_11  and  C_12
REMARK    8  A    between atoms: C_12  and  C_13
REMARK                            x       y       z     vdW  Elec       q    Type
REMARK                         _______ _______ _______ _____ _____    ______ ____
ROOT
ATOM      1  C   LIG A   1      -8.540   6.171 132.079  0.00  0.00    +0.032 C 
ENDROOT
BRANCH   1   3
ATOM      2  C   LIG A   1     -11.033   6.291 131.799  0.00  0.00    +0.063 C 
ATOM      3  C   LIG A   1      -9.797   6.569 131.344  0.00  0.00    -0.021 C 
BRANCH   2   5
ATOM      4  O   LIG A   1     -13.224   7.208 131.634  0.00  0.00    -0.271 OA
ATOM      5  C   LIG A   1     -12.250   6.726 131.063  0.00  0.00    +0.237 C 
ATOM      6  N   LIG A   1     -12.157   6.520 129.710  0.00  0.00    -0.312 N 
ATOM      7  H   LIG A   1     -11.293   6.149 129.335  0.00  0.00    +0.149 HD
BRANCH   6   8
ATOM      8  C   LIG A   1     -13.193   6.887 128.753  0.00  0.00    +0.107 C 
BRANCH   8   9
ATOM      9  C   LIG A   1     -12.839   8.162 127.969  0.00  0.00    +0.000 C 
ATOM     10  C   LIG A   1     -13.329   9.423 128.687  0.00  0.00    +0.009 C 
ATOM     11  C   LIG A   1     -11.327   8.260 127.740  0.00  0.00    +0.009 C 
ENDBRANCH   8   9
ENDBRANCH   6   8
ENDBRANCH   2   5
ENDBRANCH   1   3
BRANCH   1  12
ATOM     12  C   LIG A   1      -8.723   5.001 133.063  0.00  0.00    +0.039 C 
BRANCH  12  13
ATOM     13  C   LIG A   1      -8.596   3.641 132.408  0.00  0.00    -0.043 A 
ATOM     14  C   LIG A   1      -7.662   3.426 131.383  0.00  0.00    +0.053 A 
ATOM     15  C   LIG A   1      -7.658   2.196 130.755  0.00  0.00    +0.167 A 
ATOM     16  O   LIG A   1      -6.836   1.827 129.737  0.00  0.00    -0.453 OA
ATOM     17  C   LIG A   1      -7.274   0.471 129.512  0.00  0.00    +0.466 C 
ATOM     18  O   LIG A   1      -8.382   0.080 130.349  0.00  0.00    -0.453 OA
ATOM     19  C   LIG A   1      -8.534   1.197 131.108  0.00  0.00    +0.166 A 
ATOM     20  C   LIG A   1      -9.449   1.361 132.123  0.00  0.00    +0.050 A 
ATOM     21  C   LIG A   1      -9.468   2.591 132.785  0.00  0.00    +0.007 A 
ENDBRANCH  12  13
ENDBRANCH   1  12
TORSDOF 6
ENDMDL
MODEL 6
REMARK VINA RESULT:      -6.5      9.850     11.149
REMARK  Name = NuBBE_23
REMARK  8 active torsions:
REMARK  status: ('A' for Active; 'I' for Inactive)
REMARK    1  A    between atoms: C_2  and  C_9
REMARK    2  A    between atoms: N_3  and  C_5
REMARK    3  A    between atoms: C_5  and  C_6
REMARK    4  A    between atoms: C_6  and  C_7
REMARK    5  A    between atoms: C_6  and  C_8
REMARK    6  A    between atoms: C_10  and  C_11
REMARK    7  A    between atoms: C_11  and  C_12
REMARK    8  A    between atoms: C_12  and  C_13
REMARK                            x       y       z     vdW  Elec       q    Type
REMARK                         _______ _______ _______ _____ _____    ______ ____
ROOT
ATOM      1  C   LIG A   1      -8.001   6.238 131.845  0.00  0.00    +0.032 C 
ENDROOT
BRANCH   1   3
ATOM      2  C   LIG A   1     -10.510   6.292 131.734  0.00  0.00    +0.063 C 
ATOM      3  C   LIG A   1      -9.315   6.511 131.155  0.00  0.00    -0.021 C 
BRANCH   2   5
ATOM      4  O   LIG A   1     -12.778   7.009 131.631  0.00  0.00    -0.271 OA
ATOM      5  C   LIG A   1     -11.784   6.603 131.034  0.00  0.00    +0.237 C 
ATOM      6  N   LIG A   1     -11.719   6.377 129.683  0.00  0.00    -0.312 N 
ATOM      7  H   LIG A   1     -10.839   6.076 129.285  0.00  0.00    +0.149 HD
BRANCH   6   8
ATOM      8  C   LIG A   1     -12.816   6.631 128.756  0.00  0.00    +0.107 C 
BRANCH   8   9
ATOM      9  C   LIG A   1     -12.602   7.914 127.936  0.00  0.00    +0.000 C 
ATOM     10  C   LIG A   1     -13.150   9.147 128.660  0.00  0.00    +0.009 C 
ATOM     11  C   LIG A   1     -11.115   8.123 127.627  0.00  0.00    +0.009 C 
ENDBRANCH   8   9
ENDBRANCH   6   8
ENDBRANCH   2   5
ENDBRANCH   1   3
BRANCH   1  12
ATOM     12  C   LIG A   1      -6.789   6.937 131.203  0.00  0.00    +0.039 C 
BRANCH  12  13
ATOM     13  C   LIG A   1      -5.460   6.464 131.755  0.00  0.00    -0.043 A 
ATOM     14  C   LIG A   1      -4.264   7.092 131.373  0.00  0.00    +0.053 A 
ATOM     15  C   LIG A   1      -3.076   6.556 131.829  0.00  0.00    +0.167 A 
ATOM     16  O   LIG A   1      -1.832   7.027 131.543  0.00  0.00    -0.453 OA
ATOM     17  C   LIG A   1      -1.014   6.099 132.287  0.00  0.00    +0.466 C 
ATOM     18  O   LIG A   1      -1.773   5.065 132.945  0.00  0.00    -0.453 OA
ATOM     19  C   LIG A   1      -3.041   5.442 132.633  0.00  0.00    +0.166 A 
ATOM     20  C   LIG A   1      -4.193   4.812 133.048  0.00  0.00    +0.050 A 
ATOM     21  C   LIG A   1      -5.412   5.339 132.613  0.00  0.00    +0.007 A 
ENDBRANCH  12  13
ENDBRANCH   1  12
TORSDOF 6
ENDMDL
MODEL 7
REMARK VINA RESULT:      -6.4      3.512      5.619
REMARK  Name = NuBBE_23
REMARK  8 active torsions:
REMARK  status: ('A' for Active; 'I' for Inactive)
REMARK    1  A    between atoms: C_2  and  C_9
REMARK    2  A    between atoms: N_3  and  C_5
REMARK    3  A    between atoms: C_5  and  C_6
REMARK    4  A    between atoms: C_6  and  C_7
REMARK    5  A    between atoms: C_6  and  C_8
REMARK    6  A    between atoms: C_10  and  C_11
REMARK    7  A    between atoms: C_11  and  C_12
REMARK    8  A    between atoms: C_12  and  C_13
REMARK                            x       y       z     vdW  Elec       q    Type
REMARK                         _______ _______ _______ _____ _____    ______ ____
ROOT
ATOM      1  C   LIG A   1      -9.257  -3.299 124.413  0.00  0.00    +0.032 C 
ENDROOT
BRANCH   1   3
ATOM      2  C   LIG A   1      -8.621  -2.532 126.719  0.00  0.00    +0.063 C 
ATOM      3  C   LIG A   1      -8.583  -3.469 125.752  0.00  0.00    -0.021 C 
BRANCH   2   5
ATOM      4  O   LIG A   1      -8.492  -3.419 128.924  0.00  0.00    -0.271 OA
ATOM      5  C   LIG A   1      -7.970  -2.748 128.038  0.00  0.00    +0.237 C 
ATOM      6  N   LIG A   1      -6.757  -2.116 128.144  0.00  0.00    -0.312 N 
ATOM      7  H   LIG A   1      -6.400  -1.617 127.340  0.00  0.00    +0.149 HD
BRANCH   6   8
ATOM      8  C   LIG A   1      -5.895  -2.190 129.318  0.00  0.00    +0.107 C 
BRANCH   8   9
ATOM      9  C   LIG A   1      -4.982  -3.428 129.294  0.00  0.00    +0.000 C 
ATOM     10  C   LIG A   1      -3.507  -3.046 129.447  0.00  0.00    +0.009 C 
ATOM     11  C   LIG A   1      -5.372  -4.415 130.399  0.00  0.00    +0.009 C 
ENDBRANCH   8   9
ENDBRANCH   6   8
ENDBRANCH   2   5
ENDBRANCH   1   3
BRANCH   1  12
ATOM     12  C   LIG A   1      -8.360  -2.681 123.324  0.00  0.00    +0.039 C 
BRANCH  12  13
ATOM     13  C   LIG A   1      -8.535  -1.184 123.180  0.00  0.00    -0.043 A 
ATOM     14  C   LIG A   1      -7.522  -0.303 123.590  0.00  0.00    +0.053 A 
ATOM     15  C   LIG A   1      -7.775   1.053 123.527  0.00  0.00    +0.167 A 
ATOM     16  O   LIG A   1      -6.916   2.039 123.899  0.00  0.00    -0.453 OA
ATOM     17  C   LIG A   1      -7.703   3.211 123.603  0.00  0.00    +0.466 C 
ATOM     18  O   LIG A   1      -9.029   2.905 123.123  0.00  0.00    -0.453 OA
ATOM     19  C   LIG A   1      -8.977   1.548 123.079  0.00  0.00    +0.166 A 
ATOM     20  C   LIG A   1      -9.986   0.718 122.646  0.00  0.00    +0.050 A 
ATOM     21  C   LIG A   1      -9.754  -0.659 122.686  0.00  0.00    +0.007 A 
ENDBRANCH  12  13
ENDBRANCH   1  12
TORSDOF 6
ENDMDL
MODEL 8
REMARK VINA RESULT:      -6.4      9.224     10.734
REMARK  Name = NuBBE_23
REMARK  8 active torsions:
REMARK  status: ('A' for Active; 'I' for Inactive)
REMARK    1  A    between atoms: C_2  and  C_9
REMARK    2  A    between atoms: N_3  and  C_5
REMARK    3  A    between atoms: C_5  and  C_6
REMARK    4  A    between atoms: C_6  and  C_7
REMARK    5  A    between atoms: C_6  and  C_8
REMARK    6  A    between atoms: C_10  and  C_11
REMARK    7  A    between atoms: C_11  and  C_12
REMARK    8  A    between atoms: C_12  and  C_13
REMARK                            x       y       z     vdW  Elec       q    Type
REMARK                         _______ _______ _______ _____ _____    ______ ____
ROOT
ATOM      1  C   LIG A   1      -8.829   5.912 132.824  0.00  0.00    +0.032 C 
ENDROOT
BRANCH   1   3
ATOM      2  C   LIG A   1      -7.031   6.787 131.304  0.00  0.00    +0.063 C 
ATOM      3  C   LIG A   1      -7.391   6.112 132.412  0.00  0.00    -0.021 C 
BRANCH   2   5
ATOM      4  O   LIG A   1      -5.258   7.688 129.996  0.00  0.00    -0.271 OA
ATOM      5  C   LIG A   1      -5.602   6.990 130.945  0.00  0.00    +0.237 C 
ATOM      6  N   LIG A   1      -4.743   6.315 131.774  0.00  0.00    -0.312 N 
ATOM      7  H   LIG A   1      -5.129   5.796 132.552  0.00  0.00    +0.149 HD
BRANCH   6   8
ATOM      8  C   LIG A   1      -3.290   6.369 131.666  0.00  0.00    +0.107 C 
BRANCH   8   9
ATOM      9  C   LIG A   1      -2.669   4.980 131.438  0.00  0.00    +0.000 C 
ATOM     10  C   LIG A   1      -1.712   4.595 132.569  0.00  0.00    +0.009 C 
ATOM     11  C   LIG A   1      -3.759   3.911 131.306  0.00  0.00    +0.009 C 
ENDBRANCH   8   9
ENDBRANCH   6   8
ENDBRANCH   2   5
ENDBRANCH   1   3
BRANCH   1  12
ATOM     12  C   LIG A   1      -9.641   5.011 131.876  0.00  0.00    +0.039 C 
BRANCH  12  13
ATOM     13  C   LIG A   1     -10.726   5.753 131.124  0.00  0.00    -0.043 A 
ATOM     14  C   LIG A   1     -10.772   5.720 129.721  0.00  0.00    +0.053 A 
ATOM     15  C   LIG A   1     -11.721   6.495 129.085  0.00  0.00    +0.167 A 
ATOM     16  O   LIG A   1     -11.893   6.594 127.739  0.00  0.00    -0.453 OA
ATOM     17  C   LIG A   1     -13.008   7.510 127.675  0.00  0.00    +0.466 C 
ATOM     18  O   LIG A   1     -13.435   7.984 128.968  0.00  0.00    -0.453 OA
ATOM     19  C   LIG A   1     -12.605   7.283 129.784  0.00  0.00    +0.166 A 
ATOM     20  C   LIG A   1     -12.606   7.324 131.160  0.00  0.00    +0.050 A 
ATOM     21  C   LIG A   1     -11.665   6.541 131.833  0.00  0.00    +0.007 A 
ENDBRANCH  12  13
ENDBRANCH   1  12
TORSDOF 6
ENDMDL
MODEL 9
REMARK VINA RESULT:      -6.4      7.394      9.609
REMARK  Name = NuBBE_23
REMARK  8 active torsions:
REMARK  status: ('A' for Active; 'I' for Inactive)
REMARK    1  A    between atoms: C_2  and  C_9
REMARK    2  A    between atoms: N_3  and  C_5
REMARK    3  A    between atoms: C_5  and  C_6
REMARK    4  A    between atoms: C_6  and  C_7
REMARK    5  A    between atoms: C_6  and  C_8
REMARK    6  A    between atoms: C_10  and  C_11
REMARK    7  A    between atoms: C_11  and  C_12
REMARK    8  A    between atoms: C_12  and  C_13
REMARK                            x       y       z     vdW  Elec       q    Type
REMARK                         _______ _______ _______ _____ _____    ______ ____
ROOT
ATOM      1  C   LIG A   1      -6.916   6.804 131.173  0.00  0.00    +0.032 C 
ENDROOT
BRANCH   1   3
ATOM      2  C   LIG A   1      -6.325   4.426 130.620  0.00  0.00    +0.063 C 
ATOM      3  C   LIG A   1      -6.076   5.744 130.503  0.00  0.00    -0.021 C 
BRANCH   2   5
ATOM      4  O   LIG A   1      -5.357   2.268 130.347  0.00  0.00    -0.271 OA
ATOM      5  C   LIG A   1      -5.493   3.411 129.920  0.00  0.00    +0.237 C 
ATOM      6  N   LIG A   1      -4.908   3.897 128.779  0.00  0.00    -0.312 N 
ATOM      7  H   LIG A   1      -5.115   4.846 128.494  0.00  0.00    +0.149 HD
BRANCH   6   8
ATOM      8  C   LIG A   1      -4.071   3.103 127.887  0.00  0.00    +0.107 C 
BRANCH   8   9
ATOM      9  C   LIG A   1      -2.997   3.952 127.184  0.00  0.00    +0.000 C 
ATOM     10  C   LIG A   1      -2.551   5.132 128.052  0.00  0.00    +0.009 C 
ATOM     11  C   LIG A   1      -1.779   3.097 126.818  0.00  0.00    +0.009 C 
ENDBRANCH   8   9
ENDBRANCH   6   8
ENDBRANCH   2   5
ENDBRANCH   1   3
BRANCH   1  12
ATOM     12  C   LIG A   1      -8.152   6.261 131.912  0.00  0.00    +0.039 C 
BRANCH  12  13
ATOM     13  C   LIG A   1      -9.461   6.629 131.244  0.00  0.00    -0.043 A 
ATOM     14  C   LIG A   1      -9.470   7.347 130.037  0.00  0.00    +0.053 A 
ATOM     15  C   LIG A   1     -10.690   7.741 129.526  0.00  0.00    +0.167 A 
ATOM     16  O   LIG A   1     -10.878   8.453 128.382  0.00  0.00    -0.453 OA
ATOM     17  C   LIG A   1     -12.318   8.549 128.357  0.00  0.00    +0.466 C 
ATOM     18  O   LIG A   1     -12.953   7.953 129.506  0.00  0.00    -0.453 OA
ATOM     19  C   LIG A   1     -11.874   7.450 130.161  0.00  0.00    +0.166 A 
ATOM     20  C   LIG A   1     -11.908   6.730 131.334  0.00  0.00    +0.050 A 
ATOM     21  C   LIG A   1     -10.689   6.306 131.870  0.00  0.00    +0.007 A 
ENDBRANCH  12  13
ENDBRANCH   1  12
TORSDOF 6
ENDMDL
