MODEL 1
REMARK VINA RESULT:      -6.2      0.000      0.000
REMARK  Name = NuBBE_1794
REMARK  18 active torsions:
REMARK  status: ('A' for Active; 'I' for Inactive)
REMARK    1  A    between atoms: C_2  and  C_3
REMARK    2  A    between atoms: C_3  and  C_4
REMARK    3  A    between atoms: C_4  and  C_5
REMARK    4  A    between atoms: C_5  and  C_6
REMARK    5  A    between atoms: C_6  and  C_7
REMARK    6  A    between atoms: C_7  and  C_8
REMARK    7  A    between atoms: C_8  and  C_9
REMARK    8  A    between atoms: C_9  and  C_10
REMARK    9  A    between atoms: C_10  and  C_11
REMARK   10  A    between atoms: C_13  and  C_14
REMARK   11  A    between atoms: C_14  and  C_15
REMARK   12  A    between atoms: C_15  and  O_16
REMARK   13  A    between atoms: C_15  and  C_20
REMARK   14  A    between atoms: O_16  and  C_17
REMARK   15  A    between atoms: C_17  and  C_18
REMARK   16  A    between atoms: C_20  and  O_21
REMARK   17  A    between atoms: O_21  and  C_22
REMARK   18  A    between atoms: C_22  and  C_23
REMARK                            x       y       z     vdW  Elec       q    Type
REMARK                         _______ _______ _______ _____ _____    ______ ____
ROOT
ATOM      1  C   LIG A   1      -6.491  -0.448 128.635  0.00  0.00    +0.177 C 
ATOM      2  C   LIG A   1      -5.946  -0.064 127.269  0.00  0.00    +0.059 C 
ATOM      3  C   LIG A   1      -6.655   1.248 126.963  0.00  0.00    +0.105 C 
ATOM      4  C   LIG A   1      -7.972   1.002 127.670  0.00  0.00    +0.311 C 
ATOM      5  O   LIG A   1      -7.821   0.070 128.651  0.00  0.00    -0.461 OA
ATOM      6  O   LIG A   1      -9.037   1.524 127.396  0.00  0.00    -0.251 OA
ENDROOT
BRANCH   1   7
ATOM      7  C   LIG A   1      -6.522  -1.961 128.868  0.00  0.00    +0.045 C 
BRANCH   7   8
ATOM      8  C   LIG A   1      -7.957  -2.483 129.061  0.00  0.00    +0.003 C 
BRANCH   8   9
ATOM      9  C   LIG A   1      -8.456  -3.395 127.933  0.00  0.00    +0.000 C 
BRANCH   9  10
ATOM     10  C   LIG A   1      -8.509  -2.732 126.558  0.00  0.00    -0.000 C 
BRANCH  10  11
ATOM     11  C   LIG A   1      -8.632  -3.702 125.383  0.00  0.00    +0.000 C 
BRANCH  11  12
ATOM     12  C   LIG A   1      -7.689  -3.423 124.205  0.00  0.00    +0.000 C 
BRANCH  12  13
ATOM     13  C   LIG A   1      -6.820  -2.157 124.295  0.00  0.00    +0.004 C 
BRANCH  13  14
ATOM     14  C   LIG A   1      -5.313  -2.402 124.382  0.00  0.00    +0.026 C 
BRANCH  14  16
ATOM     15  C   LIG A   1      -4.217  -4.541 123.650  0.00  0.00    +0.004 C 
ATOM     16  C   LIG A   1      -4.784  -3.367 123.359  0.00  0.00    -0.035 C 
ENDBRANCH  14  16
ENDBRANCH  13  14
ENDBRANCH  12  13
ENDBRANCH  11  12
ENDBRANCH  10  11
ENDBRANCH   9  10
ENDBRANCH   8   9
ENDBRANCH   7   8
ENDBRANCH   1   7
BRANCH   3  17
ATOM     17  C   LIG A   1      -5.855   2.469 127.453  0.00  0.00    +0.063 C 
BRANCH  17  18
ATOM     18  C   LIG A   1      -5.977   3.714 126.542  0.00  0.00    +0.214 C 
BRANCH  18  19
ATOM     19  C   LIG A   1      -4.705   4.597 126.549  0.00  0.00    +0.276 C 
BRANCH  19  20
ATOM     20  O   LIG A   1      -4.762   5.936 127.119  0.00  0.00    -0.461 OA
BRANCH  20  21
ATOM     21  C   LIG A   1      -3.802   6.440 127.938  0.00  0.00    +0.304 C 
ATOM     22  C   LIG A   1      -2.663   5.481 128.087  0.00  0.00    +0.136 C 
ATOM     23  O   LIG A   1      -3.807   7.509 128.516  0.00  0.00    -0.251 OA
ENDBRANCH  20  21
ENDBRANCH  19  20
ENDBRANCH  18  19
BRANCH  18  24
ATOM     24  O   LIG A   1      -7.164   4.438 126.896  0.00  0.00    -0.458 OA
BRANCH  24  25
ATOM     25  C   LIG A   1      -8.095   4.729 125.955  0.00  0.00    +0.304 C 
ATOM     26  C   LIG A   1      -8.014   3.764 124.812  0.00  0.00    +0.136 C 
ATOM     27  O   LIG A   1      -8.864   5.681 125.989  0.00  0.00    -0.251 OA
ENDBRANCH  24  25
ENDBRANCH  18  24
ENDBRANCH  17  18
ENDBRANCH   3  17
TORSDOF 16
ENDMDL
MODEL 2
REMARK VINA RESULT:      -6.1      1.653      3.634
REMARK  Name = NuBBE_1794
REMARK  18 active torsions:
REMARK  status: ('A' for Active; 'I' for Inactive)
REMARK    1  A    between atoms: C_2  and  C_3
REMARK    2  A    between atoms: C_3  and  C_4
REMARK    3  A    between atoms: C_4  and  C_5
REMARK    4  A    between atoms: C_5  and  C_6
REMARK    5  A    between atoms: C_6  and  C_7
REMARK    6  A    between atoms: C_7  and  C_8
REMARK    7  A    between atoms: C_8  and  C_9
REMARK    8  A    between atoms: C_9  and  C_10
REMARK    9  A    between atoms: C_10  and  C_11
REMARK   10  A    between atoms: C_13  and  C_14
REMARK   11  A    between atoms: C_14  and  C_15
REMARK   12  A    between atoms: C_15  and  O_16
REMARK   13  A    between atoms: C_15  and  C_20
REMARK   14  A    between atoms: O_16  and  C_17
REMARK   15  A    between atoms: C_17  and  C_18
REMARK   16  A    between atoms: C_20  and  O_21
REMARK   17  A    between atoms: O_21  and  C_22
REMARK   18  A    between atoms: C_22  and  C_23
REMARK                            x       y       z     vdW  Elec       q    Type
REMARK                         _______ _______ _______ _____ _____    ______ ____
ROOT
ATOM      1  C   LIG A   1      -5.671  -0.910 126.719  0.00  0.00    +0.177 C 
ATOM      2  C   LIG A   1      -6.585   0.229 126.297  0.00  0.00    +0.059 C 
ATOM      3  C   LIG A   1      -6.007   1.434 127.025  0.00  0.00    +0.105 C 
ATOM      4  C   LIG A   1      -5.486   0.755 128.276  0.00  0.00    +0.311 C 
ATOM      5  O   LIG A   1      -5.256  -0.566 128.041  0.00  0.00    -0.461 OA
ATOM      6  O   LIG A   1      -5.321   1.285 129.359  0.00  0.00    -0.251 OA
ENDROOT
BRANCH   1   7
ATOM      7  C   LIG A   1      -6.373  -2.271 126.734  0.00  0.00    +0.045 C 
BRANCH   7   8
ATOM      8  C   LIG A   1      -7.767  -2.191 127.379  0.00  0.00    +0.003 C 
BRANCH   8   9
ATOM      9  C   LIG A   1      -8.906  -2.709 126.491  0.00  0.00    +0.000 C 
BRANCH   9  10
ATOM     10  C   LIG A   1      -8.447  -3.509 125.274  0.00  0.00    -0.000 C 
BRANCH  10  11
ATOM     11  C   LIG A   1      -9.324  -3.346 124.032  0.00  0.00    +0.000 C 
BRANCH  11  12
ATOM     12  C   LIG A   1      -8.665  -2.605 122.860  0.00  0.00    +0.000 C 
BRANCH  12  13
ATOM     13  C   LIG A   1      -8.025  -1.242 123.172  0.00  0.00    +0.004 C 
BRANCH  13  14
ATOM     14  C   LIG A   1      -6.515  -1.161 122.944  0.00  0.00    +0.026 C 
BRANCH  14  16
ATOM     15  C   LIG A   1      -4.972  -3.058 123.523  0.00  0.00    +0.004 C 
ATOM     16  C   LIG A   1      -5.855  -2.488 122.698  0.00  0.00    -0.035 C 
ENDBRANCH  14  16
ENDBRANCH  13  14
ENDBRANCH  12  13
ENDBRANCH  11  12
ENDBRANCH  10  11
ENDBRANCH   9  10
ENDBRANCH   8   9
ENDBRANCH   7   8
ENDBRANCH   1   7
BRANCH   3  17
ATOM     17  C   LIG A   1      -4.953   2.173 126.182  0.00  0.00    +0.063 C 
BRANCH  17  18
ATOM     18  C   LIG A   1      -5.202   3.694 126.045  0.00  0.00    +0.214 C 
BRANCH  18  19
ATOM     19  C   LIG A   1      -5.910   4.076 124.723  0.00  0.00    +0.276 C 
BRANCH  19  20
ATOM     20  O   LIG A   1      -6.886   3.166 124.140  0.00  0.00    -0.461 OA
BRANCH  20  21
ATOM     21  C   LIG A   1      -8.223   3.258 124.369  0.00  0.00    +0.304 C 
ATOM     22  C   LIG A   1      -8.987   2.341 123.467  0.00  0.00    +0.136 C 
ATOM     23  O   LIG A   1      -8.790   3.974 125.169  0.00  0.00    -0.251 OA
ENDBRANCH  20  21
ENDBRANCH  19  20
ENDBRANCH  18  19
BRANCH  18  24
ATOM     24  O   LIG A   1      -3.961   4.390 126.238  0.00  0.00    -0.458 OA
BRANCH  24  25
ATOM     25  C   LIG A   1      -3.767   5.151 127.342  0.00  0.00    +0.304 C 
ATOM     26  C   LIG A   1      -2.764   4.513 128.255  0.00  0.00    +0.136 C 
ATOM     27  O   LIG A   1      -4.363   6.186 127.604  0.00  0.00    -0.251 OA
ENDBRANCH  24  25
ENDBRANCH  18  24
ENDBRANCH  17  18
ENDBRANCH   3  17
TORSDOF 16
ENDMDL
MODEL 3
REMARK VINA RESULT:      -6.1      3.180      4.834
REMARK  Name = NuBBE_1794
REMARK  18 active torsions:
REMARK  status: ('A' for Active; 'I' for Inactive)
REMARK    1  A    between atoms: C_2  and  C_3
REMARK    2  A    between atoms: C_3  and  C_4
REMARK    3  A    between atoms: C_4  and  C_5
REMARK    4  A    between atoms: C_5  and  C_6
REMARK    5  A    between atoms: C_6  and  C_7
REMARK    6  A    between atoms: C_7  and  C_8
REMARK    7  A    between atoms: C_8  and  C_9
REMARK    8  A    between atoms: C_9  and  C_10
REMARK    9  A    between atoms: C_10  and  C_11
REMARK   10  A    between atoms: C_13  and  C_14
REMARK   11  A    between atoms: C_14  and  C_15
REMARK   12  A    between atoms: C_15  and  O_16
REMARK   13  A    between atoms: C_15  and  C_20
REMARK   14  A    between atoms: O_16  and  C_17
REMARK   15  A    between atoms: C_17  and  C_18
REMARK   16  A    between atoms: C_20  and  O_21
REMARK   17  A    between atoms: O_21  and  C_22
REMARK   18  A    between atoms: C_22  and  C_23
REMARK                            x       y       z     vdW  Elec       q    Type
REMARK                         _______ _______ _______ _____ _____    ______ ____
ROOT
ATOM      1  C   LIG A   1      -8.924   0.251 125.190  0.00  0.00    +0.177 C 
ATOM      2  C   LIG A   1      -7.729   0.610 124.322  0.00  0.00    +0.059 C 
ATOM      3  C   LIG A   1      -8.343   1.438 123.201  0.00  0.00    +0.105 C 
ATOM      4  C   LIG A   1      -9.702   0.774 123.105  0.00  0.00    +0.311 C 
ATOM      5  O   LIG A   1     -10.017   0.158 124.277  0.00  0.00    -0.461 OA
ATOM      6  O   LIG A   1     -10.416   0.750 122.119  0.00  0.00    -0.251 OA
ENDROOT
BRANCH   1   7
ATOM      7  C   LIG A   1      -8.752  -1.078 125.930  0.00  0.00    +0.045 C 
BRANCH   7   8
ATOM      8  C   LIG A   1      -9.602  -2.198 125.304  0.00  0.00    +0.003 C 
BRANCH   8   9
ATOM      9  C   LIG A   1      -8.899  -2.973 124.181  0.00  0.00    +0.000 C 
BRANCH   9  10
ATOM     10  C   LIG A   1      -7.543  -3.559 124.568  0.00  0.00    -0.000 C 
BRANCH  10  11
ATOM     11  C   LIG A   1      -6.351  -2.965 123.818  0.00  0.00    +0.000 C 
BRANCH  11  12
ATOM     12  C   LIG A   1      -5.430  -2.069 124.659  0.00  0.00    +0.000 C 
BRANCH  12  13
ATOM     13  C   LIG A   1      -5.218  -2.475 126.128  0.00  0.00    +0.004 C 
BRANCH  13  14
ATOM     14  C   LIG A   1      -5.522  -1.387 127.158  0.00  0.00    +0.026 C 
BRANCH  14  16
ATOM     15  C   LIG A   1      -5.528   1.117 127.366  0.00  0.00    +0.004 C 
ATOM     16  C   LIG A   1      -5.211   0.008 126.693  0.00  0.00    -0.035 C 
ENDBRANCH  14  16
ENDBRANCH  13  14
ENDBRANCH  12  13
ENDBRANCH  11  12
ENDBRANCH  10  11
ENDBRANCH   9  10
ENDBRANCH   8   9
ENDBRANCH   7   8
ENDBRANCH   1   7
BRANCH   3  17
ATOM     17  C   LIG A   1      -8.360   2.942 123.530  0.00  0.00    +0.063 C 
BRANCH  17  18
ATOM     18  C   LIG A   1      -7.025   3.669 123.241  0.00  0.00    +0.214 C 
BRANCH  18  19
ATOM     19  C   LIG A   1      -6.357   3.210 121.922  0.00  0.00    +0.276 C 
BRANCH  19  20
ATOM     20  O   LIG A   1      -5.242   3.971 121.378  0.00  0.00    -0.461 OA
BRANCH  20  21
ATOM     21  C   LIG A   1      -5.387   4.930 120.425  0.00  0.00    +0.304 C 
ATOM     22  C   LIG A   1      -6.470   4.567 119.458  0.00  0.00    +0.136 C 
ATOM     23  O   LIG A   1      -4.751   5.958 120.304  0.00  0.00    -0.251 OA
ENDBRANCH  20  21
ENDBRANCH  19  20
ENDBRANCH  18  19
BRANCH  18  24
ATOM     24  O   LIG A   1      -6.164   3.536 124.382  0.00  0.00    -0.458 OA
BRANCH  24  25
ATOM     25  C   LIG A   1      -5.782   4.630 125.083  0.00  0.00    +0.304 C 
ATOM     26  C   LIG A   1      -4.605   4.316 125.957  0.00  0.00    +0.136 C 
ATOM     27  O   LIG A   1      -6.345   5.716 125.065  0.00  0.00    -0.251 OA
ENDBRANCH  24  25
ENDBRANCH  18  24
ENDBRANCH  17  18
ENDBRANCH   3  17
TORSDOF 16
ENDMDL
MODEL 4
REMARK VINA RESULT:      -6.0      2.583      4.470
REMARK  Name = NuBBE_1794
REMARK  18 active torsions:
REMARK  status: ('A' for Active; 'I' for Inactive)
REMARK    1  A    between atoms: C_2  and  C_3
REMARK    2  A    between atoms: C_3  and  C_4
REMARK    3  A    between atoms: C_4  and  C_5
REMARK    4  A    between atoms: C_5  and  C_6
REMARK    5  A    between atoms: C_6  and  C_7
REMARK    6  A    between atoms: C_7  and  C_8
REMARK    7  A    between atoms: C_8  and  C_9
REMARK    8  A    between atoms: C_9  and  C_10
REMARK    9  A    between atoms: C_10  and  C_11
REMARK   10  A    between atoms: C_13  and  C_14
REMARK   11  A    between atoms: C_14  and  C_15
REMARK   12  A    between atoms: C_15  and  O_16
REMARK   13  A    between atoms: C_15  and  C_20
REMARK   14  A    between atoms: O_16  and  C_17
REMARK   15  A    between atoms: C_17  and  C_18
REMARK   16  A    between atoms: C_20  and  O_21
REMARK   17  A    between atoms: O_21  and  C_22
REMARK   18  A    between atoms: C_22  and  C_23
REMARK                            x       y       z     vdW  Elec       q    Type
REMARK                         _______ _______ _______ _____ _____    ______ ____
ROOT
ATOM      1  C   LIG A   1      -8.354  -1.745 124.165  0.00  0.00    +0.177 C 
ATOM      2  C   LIG A   1      -7.404  -0.761 123.502  0.00  0.00    +0.059 C 
ATOM      3  C   LIG A   1      -8.293   0.438 123.201  0.00  0.00    +0.105 C 
ATOM      4  C   LIG A   1      -9.607  -0.272 122.946  0.00  0.00    +0.311 C 
ATOM      5  O   LIG A   1      -9.620  -1.488 123.559  0.00  0.00    -0.461 OA
ATOM      6  O   LIG A   1     -10.524   0.147 122.264  0.00  0.00    -0.251 OA
ENDROOT
BRANCH   1   7
ATOM      7  C   LIG A   1      -7.959  -3.208 123.939  0.00  0.00    +0.045 C 
BRANCH   7   8
ATOM      8  C   LIG A   1      -8.308  -4.090 125.150  0.00  0.00    +0.003 C 
BRANCH   8   9
ATOM      9  C   LIG A   1      -8.738  -3.309 126.399  0.00  0.00    +0.000 C 
BRANCH   9  10
ATOM     10  C   LIG A   1      -8.681  -4.109 127.698  0.00  0.00    -0.000 C 
BRANCH  10  11
ATOM     11  C   LIG A   1      -8.624  -3.263 128.970  0.00  0.00    +0.000 C 
BRANCH  11  12
ATOM     12  C   LIG A   1      -7.487  -2.232 129.018  0.00  0.00    +0.000 C 
BRANCH  12  13
ATOM     13  C   LIG A   1      -6.072  -2.742 128.698  0.00  0.00    +0.004 C 
BRANCH  13  14
ATOM     14  C   LIG A   1      -5.168  -1.748 127.968  0.00  0.00    +0.026 C 
BRANCH  14  16
ATOM     15  C   LIG A   1      -5.349   0.146 126.327  0.00  0.00    +0.004 C 
ATOM     16  C   LIG A   1      -5.866  -0.937 126.913  0.00  0.00    -0.035 C 
ENDBRANCH  14  16
ENDBRANCH  13  14
ENDBRANCH  12  13
ENDBRANCH  11  12
ENDBRANCH  10  11
ENDBRANCH   9  10
ENDBRANCH   8   9
ENDBRANCH   7   8
ENDBRANCH   1   7
BRANCH   3  17
ATOM     17  C   LIG A   1      -8.302   1.460 124.352  0.00  0.00    +0.063 C 
BRANCH  17  18
ATOM     18  C   LIG A   1      -8.033   2.918 123.909  0.00  0.00    +0.214 C 
BRANCH  18  19
ATOM     19  C   LIG A   1      -8.193   3.941 125.059  0.00  0.00    +0.276 C 
BRANCH  19  20
ATOM     20  O   LIG A   1      -8.251   3.471 126.436  0.00  0.00    -0.461 OA
BRANCH  20  21
ATOM     21  C   LIG A   1      -7.157   3.362 127.235  0.00  0.00    +0.304 C 
ATOM     22  C   LIG A   1      -6.023   4.185 126.708  0.00  0.00    +0.136 C 
ATOM     23  O   LIG A   1      -7.038   2.696 128.244  0.00  0.00    -0.251 OA
ENDBRANCH  20  21
ENDBRANCH  19  20
ENDBRANCH  18  19
BRANCH  18  24
ATOM     24  O   LIG A   1      -8.855   3.219 122.772  0.00  0.00    -0.458 OA
BRANCH  24  25
ATOM     25  C   LIG A   1      -8.289   3.507 121.574  0.00  0.00    +0.304 C 
ATOM     26  C   LIG A   1      -6.795   3.521 121.684  0.00  0.00    +0.136 C 
ATOM     27  O   LIG A   1      -8.899   3.781 120.549  0.00  0.00    -0.251 OA
ENDBRANCH  24  25
ENDBRANCH  18  24
ENDBRANCH  17  18
ENDBRANCH   3  17
TORSDOF 16
ENDMDL
MODEL 5
REMARK VINA RESULT:      -6.0      2.976      5.031
REMARK  Name = NuBBE_1794
REMARK  18 active torsions:
REMARK  status: ('A' for Active; 'I' for Inactive)
REMARK    1  A    between atoms: C_2  and  C_3
REMARK    2  A    between atoms: C_3  and  C_4
REMARK    3  A    between atoms: C_4  and  C_5
REMARK    4  A    between atoms: C_5  and  C_6
REMARK    5  A    between atoms: C_6  and  C_7
REMARK    6  A    between atoms: C_7  and  C_8
REMARK    7  A    between atoms: C_8  and  C_9
REMARK    8  A    between atoms: C_9  and  C_10
REMARK    9  A    between atoms: C_10  and  C_11
REMARK   10  A    between atoms: C_13  and  C_14
REMARK   11  A    between atoms: C_14  and  C_15
REMARK   12  A    between atoms: C_15  and  O_16
REMARK   13  A    between atoms: C_15  and  C_20
REMARK   14  A    between atoms: O_16  and  C_17
REMARK   15  A    between atoms: C_17  and  C_18
REMARK   16  A    between atoms: C_20  and  O_21
REMARK   17  A    between atoms: O_21  and  C_22
REMARK   18  A    between atoms: C_22  and  C_23
REMARK                            x       y       z     vdW  Elec       q    Type
REMARK                         _______ _______ _______ _____ _____    ______ ____
ROOT
ATOM      1  C   LIG A   1      -8.508  -1.329 123.994  0.00  0.00    +0.177 C 
ATOM      2  C   LIG A   1      -7.544  -0.521 123.141  0.00  0.00    +0.059 C 
ATOM      3  C   LIG A   1      -8.167   0.868 123.124  0.00  0.00    +0.105 C 
ATOM      4  C   LIG A   1      -9.634   0.494 123.196  0.00  0.00    +0.311 C 
ATOM      5  O   LIG A   1      -9.786  -0.741 123.749  0.00  0.00    -0.461 OA
ATOM      6  O   LIG A   1     -10.563   1.169 122.792  0.00  0.00    -0.251 OA
ENDROOT
BRANCH   1   7
ATOM      7  C   LIG A   1      -8.542  -2.814 123.621  0.00  0.00    +0.045 C 
BRANCH   7   8
ATOM      8  C   LIG A   1      -7.513  -3.630 124.424  0.00  0.00    +0.003 C 
BRANCH   8   9
ATOM      9  C   LIG A   1      -6.065  -3.473 123.942  0.00  0.00    +0.000 C 
BRANCH   9  10
ATOM     10  C   LIG A   1      -5.076  -3.060 125.030  0.00  0.00    -0.000 C 
BRANCH  10  11
ATOM     11  C   LIG A   1      -5.377  -1.715 125.692  0.00  0.00    +0.000 C 
BRANCH  11  12
ATOM     12  C   LIG A   1      -5.797  -1.793 127.166  0.00  0.00    +0.000 C 
BRANCH  12  13
ATOM     13  C   LIG A   1      -7.294  -1.619 127.474  0.00  0.00    +0.004 C 
BRANCH  13  14
ATOM     14  C   LIG A   1      -7.724  -2.026 128.884  0.00  0.00    +0.026 C 
BRANCH  14  16
ATOM     15  C   LIG A   1      -8.950  -3.985 127.897  0.00  0.00    +0.004 C 
ATOM     16  C   LIG A   1      -8.447  -3.341 128.954  0.00  0.00    -0.035 C 
ENDBRANCH  14  16
ENDBRANCH  13  14
ENDBRANCH  12  13
ENDBRANCH  11  12
ENDBRANCH  10  11
ENDBRANCH   9  10
ENDBRANCH   8   9
ENDBRANCH   7   8
ENDBRANCH   1   7
BRANCH   3  17
ATOM     17  C   LIG A   1      -7.650   1.753 124.273  0.00  0.00    +0.063 C 
BRANCH  17  18
ATOM     18  C   LIG A   1      -7.066   3.110 123.815  0.00  0.00    +0.214 C 
BRANCH  18  19
ATOM     19  C   LIG A   1      -6.859   3.196 122.284  0.00  0.00    +0.276 C 
BRANCH  19  20
ATOM     20  O   LIG A   1      -5.523   3.425 121.750  0.00  0.00    -0.461 OA
BRANCH  20  21
ATOM     21  C   LIG A   1      -5.145   4.589 121.161  0.00  0.00    +0.304 C 
ATOM     22  C   LIG A   1      -5.789   4.748 119.819  0.00  0.00    +0.136 C 
ATOM     23  O   LIG A   1      -4.380   5.427 121.597  0.00  0.00    -0.251 OA
ENDBRANCH  20  21
ENDBRANCH  19  20
ENDBRANCH  18  19
BRANCH  18  24
ATOM     24  O   LIG A   1      -5.867   3.378 124.559  0.00  0.00    -0.458 OA
BRANCH  24  25
ATOM     25  C   LIG A   1      -5.695   4.573 125.174  0.00  0.00    +0.304 C 
ATOM     26  C   LIG A   1      -4.914   4.409 126.442  0.00  0.00    +0.136 C 
ATOM     27  O   LIG A   1      -6.158   5.640 124.793  0.00  0.00    -0.251 OA
ENDBRANCH  24  25
ENDBRANCH  18  24
ENDBRANCH  17  18
ENDBRANCH   3  17
TORSDOF 16
ENDMDL
MODEL 6
REMARK VINA RESULT:      -6.0      1.930      2.746
REMARK  Name = NuBBE_1794
REMARK  18 active torsions:
REMARK  status: ('A' for Active; 'I' for Inactive)
REMARK    1  A    between atoms: C_2  and  C_3
REMARK    2  A    between atoms: C_3  and  C_4
REMARK    3  A    between atoms: C_4  and  C_5
REMARK    4  A    between atoms: C_5  and  C_6
REMARK    5  A    between atoms: C_6  and  C_7
REMARK    6  A    between atoms: C_7  and  C_8
REMARK    7  A    between atoms: C_8  and  C_9
REMARK    8  A    between atoms: C_9  and  C_10
REMARK    9  A    between atoms: C_10  and  C_11
REMARK   10  A    between atoms: C_13  and  C_14
REMARK   11  A    between atoms: C_14  and  C_15
REMARK   12  A    between atoms: C_15  and  O_16
REMARK   13  A    between atoms: C_15  and  C_20
REMARK   14  A    between atoms: O_16  and  C_17
REMARK   15  A    between atoms: C_17  and  C_18
REMARK   16  A    between atoms: C_20  and  O_21
REMARK   17  A    between atoms: O_21  and  C_22
REMARK   18  A    between atoms: C_22  and  C_23
REMARK                            x       y       z     vdW  Elec       q    Type
REMARK                         _______ _______ _______ _____ _____    ______ ____
ROOT
ATOM      1  C   LIG A   1      -7.623  -0.832 127.055  0.00  0.00    +0.177 C 
ATOM      2  C   LIG A   1      -8.024  -0.376 128.448  0.00  0.00    +0.059 C 
ATOM      3  C   LIG A   1      -7.323   0.967 128.595  0.00  0.00    +0.105 C 
ATOM      4  C   LIG A   1      -6.085   0.704 127.762  0.00  0.00    +0.311 C 
ATOM      5  O   LIG A   1      -6.318  -0.289 126.860  0.00  0.00    -0.461 OA
ATOM      6  O   LIG A   1      -5.011   1.264 127.884  0.00  0.00    -0.251 OA
ENDROOT
BRANCH   1   7
ATOM      7  C   LIG A   1      -7.576  -2.356 126.910  0.00  0.00    +0.045 C 
BRANCH   7   8
ATOM      8  C   LIG A   1      -8.870  -2.913 126.290  0.00  0.00    +0.003 C 
BRANCH   8   9
ATOM      9  C   LIG A   1      -8.650  -3.804 125.060  0.00  0.00    +0.000 C 
BRANCH   9  10
ATOM     10  C   LIG A   1      -9.322  -3.301 123.784  0.00  0.00    -0.000 C 
BRANCH  10  11
ATOM     11  C   LIG A   1      -8.745  -2.000 123.226  0.00  0.00    +0.000 C 
BRANCH  11  12
ATOM     12  C   LIG A   1      -7.301  -2.095 122.710  0.00  0.00    +0.000 C 
BRANCH  12  13
ATOM     13  C   LIG A   1      -6.213  -1.425 123.566  0.00  0.00    +0.004 C 
BRANCH  13  14
ATOM     14  C   LIG A   1      -5.201  -2.379 124.201  0.00  0.00    +0.026 C 
BRANCH  14  16
ATOM     15  C   LIG A   1      -4.339  -4.662 123.602  0.00  0.00    +0.004 C 
ATOM     16  C   LIG A   1      -5.355  -3.813 123.780  0.00  0.00    -0.035 C 
ENDBRANCH  14  16
ENDBRANCH  13  14
ENDBRANCH  12  13
ENDBRANCH  11  12
ENDBRANCH  10  11
ENDBRANCH   9  10
ENDBRANCH   8   9
ENDBRANCH   7   8
ENDBRANCH   1   7
BRANCH   3  17
ATOM     17  C   LIG A   1      -8.204   2.139 128.126  0.00  0.00    +0.063 C 
BRANCH  17  18
ATOM     18  C   LIG A   1      -7.674   2.870 126.870  0.00  0.00    +0.214 C 
BRANCH  18  19
ATOM     19  C   LIG A   1      -7.023   4.236 127.194  0.00  0.00    +0.276 C 
BRANCH  19  20
ATOM     20  O   LIG A   1      -6.612   5.113 126.106  0.00  0.00    -0.461 OA
BRANCH  20  21
ATOM     21  C   LIG A   1      -5.749   4.733 125.127  0.00  0.00    +0.304 C 
ATOM     22  C   LIG A   1      -4.577   3.999 125.698  0.00  0.00    +0.136 C 
ATOM     23  O   LIG A   1      -5.845   4.940 123.934  0.00  0.00    -0.251 OA
ENDBRANCH  20  21
ENDBRANCH  19  20
ENDBRANCH  18  19
BRANCH  18  24
ATOM     24  O   LIG A   1      -8.731   2.966 125.904  0.00  0.00    -0.458 OA
BRANCH  24  25
ATOM     25  C   LIG A   1      -8.988   1.934 125.065  0.00  0.00    +0.304 C 
ATOM     26  C   LIG A   1      -7.840   1.713 124.128  0.00  0.00    +0.136 C 
ATOM     27  O   LIG A   1     -10.033   1.298 125.023  0.00  0.00    -0.251 OA
ENDBRANCH  24  25
ENDBRANCH  18  24
ENDBRANCH  17  18
ENDBRANCH   3  17
TORSDOF 16
ENDMDL
MODEL 7
REMARK VINA RESULT:      -6.0      2.554      4.300
REMARK  Name = NuBBE_1794
REMARK  18 active torsions:
REMARK  status: ('A' for Active; 'I' for Inactive)
REMARK    1  A    between atoms: C_2  and  C_3
REMARK    2  A    between atoms: C_3  and  C_4
REMARK    3  A    between atoms: C_4  and  C_5
REMARK    4  A    between atoms: C_5  and  C_6
REMARK    5  A    between atoms: C_6  and  C_7
REMARK    6  A    between atoms: C_7  and  C_8
REMARK    7  A    between atoms: C_8  and  C_9
REMARK    8  A    between atoms: C_9  and  C_10
REMARK    9  A    between atoms: C_10  and  C_11
REMARK   10  A    between atoms: C_13  and  C_14
REMARK   11  A    between atoms: C_14  and  C_15
REMARK   12  A    between atoms: C_15  and  O_16
REMARK   13  A    between atoms: C_15  and  C_20
REMARK   14  A    between atoms: O_16  and  C_17
REMARK   15  A    between atoms: C_17  and  C_18
REMARK   16  A    between atoms: C_20  and  O_21
REMARK   17  A    between atoms: O_21  and  C_22
REMARK   18  A    between atoms: C_22  and  C_23
REMARK                            x       y       z     vdW  Elec       q    Type
REMARK                         _______ _______ _______ _____ _____    ______ ____
ROOT
ATOM      1  C   LIG A   1      -8.510   0.134 123.785  0.00  0.00    +0.177 C 
ATOM      2  C   LIG A   1      -8.967   0.175 125.234  0.00  0.00    +0.059 C 
ATOM      3  C   LIG A   1      -7.700   0.549 125.992  0.00  0.00    +0.105 C 
ATOM      4  C   LIG A   1      -6.665  -0.119 125.110  0.00  0.00    +0.311 C 
ATOM      5  O   LIG A   1      -7.147  -0.286 123.848  0.00  0.00    -0.461 OA
ATOM      6  O   LIG A   1      -5.562  -0.496 125.464  0.00  0.00    -0.251 OA
ENDROOT
BRANCH   1   7
ATOM      7  C   LIG A   1      -9.315  -0.848 122.928  0.00  0.00    +0.045 C 
BRANCH   7   8
ATOM      8  C   LIG A   1      -8.663  -2.241 122.886  0.00  0.00    +0.003 C 
BRANCH   8   9
ATOM      9  C   LIG A   1      -9.319  -3.275 123.811  0.00  0.00    +0.000 C 
BRANCH   9  10
ATOM     10  C   LIG A   1      -8.523  -3.590 125.076  0.00  0.00    -0.000 C 
BRANCH  10  11
ATOM     11  C   LIG A   1      -9.213  -3.194 126.382  0.00  0.00    +0.000 C 
BRANCH  11  12
ATOM     12  C   LIG A   1      -8.746  -3.964 127.625  0.00  0.00    +0.000 C 
BRANCH  12  13
ATOM     13  C   LIG A   1      -8.492  -3.140 128.899  0.00  0.00    +0.004 C 
BRANCH  13  14
ATOM     14  C   LIG A   1      -7.491  -1.994 128.747  0.00  0.00    +0.026 C 
BRANCH  14  16
ATOM     15  C   LIG A   1      -7.896   0.278 129.742  0.00  0.00    +0.004 C 
ATOM     16  C   LIG A   1      -7.518  -0.997 129.870  0.00  0.00    -0.035 C 
ENDBRANCH  14  16
ENDBRANCH  13  14
ENDBRANCH  12  13
ENDBRANCH  11  12
ENDBRANCH  10  11
ENDBRANCH   9  10
ENDBRANCH   8   9
ENDBRANCH   7   8
ENDBRANCH   1   7
BRANCH   3  17
ATOM     17  C   LIG A   1      -7.549   2.072 126.158  0.00  0.00    +0.063 C 
BRANCH  17  18
ATOM     18  C   LIG A   1      -6.359   2.681 125.378  0.00  0.00    +0.214 C 
BRANCH  18  19
ATOM     19  C   LIG A   1      -5.307   3.344 126.299  0.00  0.00    +0.276 C 
BRANCH  19  20
ATOM     20  O   LIG A   1      -3.896   3.032 126.121  0.00  0.00    -0.461 OA
BRANCH  20  21
ATOM     21  C   LIG A   1      -2.943   3.334 127.041  0.00  0.00    +0.304 C 
ATOM     22  C   LIG A   1      -1.578   2.983 126.537  0.00  0.00    +0.136 C 
ATOM     23  O   LIG A   1      -3.104   3.810 128.147  0.00  0.00    -0.251 OA
ENDBRANCH  20  21
ENDBRANCH  19  20
ENDBRANCH  18  19
BRANCH  18  24
ATOM     24  O   LIG A   1      -6.866   3.572 124.373  0.00  0.00    -0.458 OA
BRANCH  24  25
ATOM     25  C   LIG A   1      -6.142   3.829 123.257  0.00  0.00    +0.304 C 
ATOM     26  C   LIG A   1      -6.411   2.801 122.201  0.00  0.00    +0.136 C 
ATOM     27  O   LIG A   1      -5.329   4.735 123.133  0.00  0.00    -0.251 OA
ENDBRANCH  24  25
ENDBRANCH  18  24
ENDBRANCH  17  18
ENDBRANCH   3  17
TORSDOF 16
ENDMDL
MODEL 8
REMARK VINA RESULT:      -5.9      2.130      3.983
REMARK  Name = NuBBE_1794
REMARK  18 active torsions:
REMARK  status: ('A' for Active; 'I' for Inactive)
REMARK    1  A    between atoms: C_2  and  C_3
REMARK    2  A    between atoms: C_3  and  C_4
REMARK    3  A    between atoms: C_4  and  C_5
REMARK    4  A    between atoms: C_5  and  C_6
REMARK    5  A    between atoms: C_6  and  C_7
REMARK    6  A    between atoms: C_7  and  C_8
REMARK    7  A    between atoms: C_8  and  C_9
REMARK    8  A    between atoms: C_9  and  C_10
REMARK    9  A    between atoms: C_10  and  C_11
REMARK   10  A    between atoms: C_13  and  C_14
REMARK   11  A    between atoms: C_14  and  C_15
REMARK   12  A    between atoms: C_15  and  O_16
REMARK   13  A    between atoms: C_15  and  C_20
REMARK   14  A    between atoms: O_16  and  C_17
REMARK   15  A    between atoms: C_17  and  C_18
REMARK   16  A    between atoms: C_20  and  O_21
REMARK   17  A    between atoms: O_21  and  C_22
REMARK   18  A    between atoms: C_22  and  C_23
REMARK                            x       y       z     vdW  Elec       q    Type
REMARK                         _______ _______ _______ _____ _____    ______ ____
ROOT
ATOM      1  C   LIG A   1      -8.458   0.373 124.093  0.00  0.00    +0.177 C 
ATOM      2  C   LIG A   1      -7.157   0.780 123.421  0.00  0.00    +0.059 C 
ATOM      3  C   LIG A   1      -6.835   2.123 124.061  0.00  0.00    +0.105 C 
ATOM      4  C   LIG A   1      -8.240   2.639 124.299  0.00  0.00    +0.311 C 
ATOM      5  O   LIG A   1      -9.124   1.606 124.366  0.00  0.00    -0.461 OA
ATOM      6  O   LIG A   1      -8.565   3.809 124.387  0.00  0.00    -0.251 OA
ENDROOT
BRANCH   1   7
ATOM      7  C   LIG A   1      -9.344  -0.508 123.207  0.00  0.00    +0.045 C 
BRANCH   7   8
ATOM      8  C   LIG A   1      -8.626  -1.803 122.786  0.00  0.00    +0.003 C 
BRANCH   8   9
ATOM      9  C   LIG A   1      -8.935  -3.015 123.673  0.00  0.00    +0.000 C 
BRANCH   9  10
ATOM     10  C   LIG A   1      -7.713  -3.639 124.343  0.00  0.00    -0.000 C 
BRANCH  10  11
ATOM     11  C   LIG A   1      -6.499  -2.716 124.447  0.00  0.00    +0.000 C 
BRANCH  11  12
ATOM     12  C   LIG A   1      -5.963  -2.501 125.870  0.00  0.00    +0.000 C 
BRANCH  12  13
ATOM     13  C   LIG A   1      -6.565  -1.335 126.671  0.00  0.00    +0.004 C 
BRANCH  13  14
ATOM     14  C   LIG A   1      -7.960  -1.588 127.245  0.00  0.00    +0.026 C 
BRANCH  14  16
ATOM     15  C   LIG A   1      -8.819  -3.869 127.854  0.00  0.00    +0.004 C 
ATOM     16  C   LIG A   1      -8.056  -2.805 128.120  0.00  0.00    -0.035 C 
ENDBRANCH  14  16
ENDBRANCH  13  14
ENDBRANCH  12  13
ENDBRANCH  11  12
ENDBRANCH  10  11
ENDBRANCH   9  10
ENDBRANCH   8   9
ENDBRANCH   7   8
ENDBRANCH   1   7
BRANCH   3  17
ATOM     17  C   LIG A   1      -5.959   1.975 125.318  0.00  0.00    +0.063 C 
BRANCH  17  18
ATOM     18  C   LIG A   1      -6.232   3.035 126.411  0.00  0.00    +0.214 C 
BRANCH  18  19
ATOM     19  C   LIG A   1      -5.041   3.998 126.633  0.00  0.00    +0.276 C 
BRANCH  19  20
ATOM     20  O   LIG A   1      -3.765   3.724 125.987  0.00  0.00    -0.461 OA
BRANCH  20  21
ATOM     21  C   LIG A   1      -2.631   3.420 126.672  0.00  0.00    +0.304 C 
ATOM     22  C   LIG A   1      -2.542   4.209 127.941  0.00  0.00    +0.136 C 
ATOM     23  O   LIG A   1      -1.758   2.638 126.353  0.00  0.00    -0.251 OA
ENDBRANCH  20  21
ENDBRANCH  19  20
ENDBRANCH  18  19
BRANCH  18  24
ATOM     24  O   LIG A   1      -6.647   2.370 127.613  0.00  0.00    -0.458 OA
BRANCH  24  25
ATOM     25  C   LIG A   1      -7.911   2.519 128.078  0.00  0.00    +0.304 C 
ATOM     26  C   LIG A   1      -7.937   3.442 129.258  0.00  0.00    +0.136 C 
ATOM     27  O   LIG A   1      -8.899   1.942 127.645  0.00  0.00    -0.251 OA
ENDBRANCH  24  25
ENDBRANCH  18  24
ENDBRANCH  17  18
ENDBRANCH   3  17
TORSDOF 16
ENDMDL
MODEL 9
REMARK VINA RESULT:      -5.9      2.141      3.730
REMARK  Name = NuBBE_1794
REMARK  18 active torsions:
REMARK  status: ('A' for Active; 'I' for Inactive)
REMARK    1  A    between atoms: C_2  and  C_3
REMARK    2  A    between atoms: C_3  and  C_4
REMARK    3  A    between atoms: C_4  and  C_5
REMARK    4  A    between atoms: C_5  and  C_6
REMARK    5  A    between atoms: C_6  and  C_7
REMARK    6  A    between atoms: C_7  and  C_8
REMARK    7  A    between atoms: C_8  and  C_9
REMARK    8  A    between atoms: C_9  and  C_10
REMARK    9  A    between atoms: C_10  and  C_11
REMARK   10  A    between atoms: C_13  and  C_14
REMARK   11  A    between atoms: C_14  and  C_15
REMARK   12  A    between atoms: C_15  and  O_16
REMARK   13  A    between atoms: C_15  and  C_20
REMARK   14  A    between atoms: O_16  and  C_17
REMARK   15  A    between atoms: C_17  and  C_18
REMARK   16  A    between atoms: C_20  and  O_21
REMARK   17  A    between atoms: O_21  and  C_22
REMARK   18  A    between atoms: C_22  and  C_23
REMARK                            x       y       z     vdW  Elec       q    Type
REMARK                         _______ _______ _______ _____ _____    ______ ____
ROOT
ATOM      1  C   LIG A   1      -7.012  -2.366 128.157  0.00  0.00    +0.177 C 
ATOM      2  C   LIG A   1      -7.341  -0.883 128.152  0.00  0.00    +0.059 C 
ATOM      3  C   LIG A   1      -5.977  -0.219 128.287  0.00  0.00    +0.105 C 
ATOM      4  C   LIG A   1      -5.268  -1.257 129.133  0.00  0.00    +0.311 C 
ATOM      5  O   LIG A   1      -5.855  -2.476 128.986  0.00  0.00    -0.461 OA
ATOM      6  O   LIG A   1      -4.325  -1.049 129.875  0.00  0.00    -0.251 OA
ENDROOT
BRANCH   1   7
ATOM      7  C   LIG A   1      -8.141  -3.231 128.727  0.00  0.00    +0.045 C 
BRANCH   7   8
ATOM      8  C   LIG A   1      -9.054  -3.785 127.619  0.00  0.00    +0.003 C 
BRANCH   8   9
ATOM      9  C   LIG A   1      -8.435  -3.756 126.215  0.00  0.00    +0.000 C 
BRANCH   9  10
ATOM     10  C   LIG A   1      -9.266  -3.015 125.171  0.00  0.00    -0.000 C 
BRANCH  10  11
ATOM     11  C   LIG A   1      -8.814  -3.223 123.726  0.00  0.00    +0.000 C 
BRANCH  11  12
ATOM     12  C   LIG A   1      -8.310  -1.960 123.011  0.00  0.00    +0.000 C 
BRANCH  12  13
ATOM     13  C   LIG A   1      -6.795  -1.860 122.764  0.00  0.00    +0.004 C 
BRANCH  13  14
ATOM     14  C   LIG A   1      -5.912  -2.202 123.964  0.00  0.00    +0.026 C 
BRANCH  14  16
ATOM     15  C   LIG A   1      -4.778  -4.442 123.866  0.00  0.00    +0.004 C 
ATOM     16  C   LIG A   1      -4.769  -3.124 123.648  0.00  0.00    -0.035 C 
ENDBRANCH  14  16
ENDBRANCH  13  14
ENDBRANCH  12  13
ENDBRANCH  11  12
ENDBRANCH  10  11
ENDBRANCH   9  10
ENDBRANCH   8   9
ENDBRANCH   7   8
ENDBRANCH   1   7
BRANCH   3  17
ATOM     17  C   LIG A   1      -5.335   0.076 126.920  0.00  0.00    +0.063 C 
BRANCH  17  18
ATOM     18  C   LIG A   1      -5.518   1.534 126.434  0.00  0.00    +0.214 C 
BRANCH  18  19
ATOM     19  C   LIG A   1      -6.598   1.676 125.335  0.00  0.00    +0.276 C 
BRANCH  19  20
ATOM     20  O   LIG A   1      -6.772   2.954 124.658  0.00  0.00    -0.461 OA
BRANCH  20  21
ATOM     21  C   LIG A   1      -6.366   3.184 123.382  0.00  0.00    +0.304 C 
ATOM     22  C   LIG A   1      -5.460   4.373 123.312  0.00  0.00    +0.136 C 
ATOM     23  O   LIG A   1      -6.668   2.561 122.383  0.00  0.00    -0.251 OA
ENDBRANCH  20  21
ENDBRANCH  19  20
ENDBRANCH  18  19
BRANCH  18  24
ATOM     24  O   LIG A   1      -4.242   2.057 126.037  0.00  0.00    -0.458 OA
BRANCH  24  25
ATOM     25  C   LIG A   1      -3.803   3.240 126.531  0.00  0.00    +0.304 C 
ATOM     26  C   LIG A   1      -2.365   3.143 126.940  0.00  0.00    +0.136 C 
ATOM     27  O   LIG A   1      -4.488   4.243 126.686  0.00  0.00    -0.251 OA
ENDBRANCH  24  25
ENDBRANCH  18  24
ENDBRANCH  17  18
ENDBRANCH   3  17
TORSDOF 16
ENDMDL
