MODEL 1
REMARK VINA RESULT:      -7.7      0.000      0.000
REMARK  Name = NuBBE_1587
REMARK  7 active torsions:
REMARK  status: ('A' for Active; 'I' for Inactive)
REMARK    1  A    between atoms: C_1  and  C_2
REMARK    2  A    between atoms: C_7  and  O_18
REMARK    3  A    between atoms: C_12  and  C_13
REMARK    4  A    between atoms: C_12  and  C_14
REMARK    5  A    between atoms: O_18  and  C_19
REMARK    6  A    between atoms: C_19  and  C_21
REMARK    7  A    between atoms: C_22  and  C_24
REMARK                            x       y       z     vdW  Elec       q    Type
REMARK                         _______ _______ _______ _____ _____    ______ ____
ROOT
ATOM      1  C   LIG A   1      -8.990  -0.132 126.366  0.00  0.00    +0.012 C 
ATOM      2  C   LIG A   1      -8.065  -1.356 126.088  0.00  0.00    -0.025 C 
ATOM      3  C   LIG A   1      -7.165  -1.663 127.325  0.00  0.00    +0.010 C 
ATOM      4  C   LIG A   1      -6.291  -0.426 127.805  0.00  0.00    +0.041 C 
ATOM      5  C   LIG A   1      -5.865   0.474 126.604  0.00  0.00    +0.181 C 
ATOM      6  C   LIG A   1      -5.845  -0.247 125.250  0.00  0.00    +0.049 C 
ATOM      7  C   LIG A   1      -7.107  -1.078 124.860  0.00  0.00    +0.004 C 
ATOM      8  C   LIG A   1      -6.711  -2.335 123.947  0.00  0.00    -0.031 C 
ATOM      9  C   LIG A   1      -6.374  -1.830 122.521  0.00  0.00    +0.011 C 
ATOM     10  C   LIG A   1      -5.473  -3.135 124.427  0.00  0.00    +0.011 C 
ATOM     11  C   LIG A   1      -7.877  -3.339 123.804  0.00  0.00    +0.007 C 
ATOM     12  C   LIG A   1      -8.471  -3.725 125.146  0.00  0.00    +0.001 C 
ATOM     13  C   LIG A   1      -9.082  -2.487 125.764  0.00  0.00    +0.007 C 
ATOM     14  C   LIG A   1      -5.148  -0.888 128.814  0.00  0.00    +0.026 C 
ATOM     15  C   LIG A   1      -4.650   0.243 129.731  0.00  0.00    +0.013 C 
ATOM     16  C   LIG A   1      -5.649  -2.002 129.703  0.00  0.00    -0.003 A 
ATOM     17  C   LIG A   1      -6.891  -2.572 129.569  0.00  0.00    +0.109 A 
ATOM     18  C   LIG A   1      -7.907  -2.288 128.537  0.00  0.00    +0.079 C 
ATOM     19  O   LIG A   1      -7.113  -3.530 130.496  0.00  0.00    -0.468 OA
ATOM     20  C   LIG A   1      -5.979  -3.591 131.246  0.00  0.00    +0.195 A 
ATOM     21  C   LIG A   1      -5.043  -2.689 130.786  0.00  0.00    +0.045 A 
ENDROOT
BRANCH   5  22
ATOM     22  O   LIG A   1      -4.575   1.099 126.772  0.00  0.00    -0.461 OA
BRANCH  22  23
ATOM     23  C   LIG A   1      -4.524   2.442 126.544  0.00  0.00    +0.304 C 
ATOM     24  O   LIG A   1      -5.488   3.158 126.290  0.00  0.00    -0.251 OA
ATOM     25  C   LIG A   1      -3.117   2.945 126.651  0.00  0.00    +0.136 C 
ENDBRANCH  22  23
ENDBRANCH   5  22
TORSDOF 2
ENDMDL
MODEL 2
REMARK VINA RESULT:      -7.5      3.207      4.725
REMARK  Name = NuBBE_1587
REMARK  7 active torsions:
REMARK  status: ('A' for Active; 'I' for Inactive)
REMARK    1  A    between atoms: C_1  and  C_2
REMARK    2  A    between atoms: C_7  and  O_18
REMARK    3  A    between atoms: C_12  and  C_13
REMARK    4  A    between atoms: C_12  and  C_14
REMARK    5  A    between atoms: O_18  and  C_19
REMARK    6  A    between atoms: C_19  and  C_21
REMARK    7  A    between atoms: C_22  and  C_24
REMARK                            x       y       z     vdW  Elec       q    Type
REMARK                         _______ _______ _______ _____ _____    ______ ____
ROOT
ATOM      1  C   LIG A   1      -9.974   1.265 124.379  0.00  0.00    +0.012 C 
ATOM      2  C   LIG A   1      -8.707   0.572 124.965  0.00  0.00    -0.025 C 
ATOM      3  C   LIG A   1      -7.820   1.597 125.738  0.00  0.00    +0.010 C 
ATOM      4  C   LIG A   1      -7.392   2.856 124.869  0.00  0.00    +0.041 C 
ATOM      5  C   LIG A   1      -7.200   2.477 123.368  0.00  0.00    +0.181 C 
ATOM      6  C   LIG A   1      -6.892   0.994 123.124  0.00  0.00    +0.049 C 
ATOM      7  C   LIG A   1      -7.818  -0.054 123.815  0.00  0.00    +0.004 C 
ATOM      8  C   LIG A   1      -7.012  -1.394 124.167  0.00  0.00    -0.031 C 
ATOM      9  C   LIG A   1      -6.772  -2.191 122.859  0.00  0.00    +0.011 C 
ATOM     10  C   LIG A   1      -5.614  -1.176 124.803  0.00  0.00    +0.011 C 
ATOM     11  C   LIG A   1      -7.806  -2.318 125.117  0.00  0.00    +0.007 C 
ATOM     12  C   LIG A   1      -8.322  -1.581 126.338  0.00  0.00    +0.001 C 
ATOM     13  C   LIG A   1      -9.312  -0.536 125.874  0.00  0.00    +0.007 C 
ATOM     14  C   LIG A   1      -6.215   3.666 125.575  0.00  0.00    +0.026 C 
ATOM     15  C   LIG A   1      -6.134   5.136 125.129  0.00  0.00    +0.013 C 
ATOM     16  C   LIG A   1      -6.397   3.658 127.075  0.00  0.00    -0.003 A 
ATOM     17  C   LIG A   1      -7.397   2.964 127.709  0.00  0.00    +0.109 A 
ATOM     18  C   LIG A   1      -8.398   2.066 127.101  0.00  0.00    +0.079 C 
ATOM     19  O   LIG A   1      -7.364   3.135 129.049  0.00  0.00    -0.468 OA
ATOM     20  C   LIG A   1      -6.305   3.955 129.292  0.00  0.00    +0.195 A 
ATOM     21  C   LIG A   1      -5.666   4.286 128.117  0.00  0.00    +0.045 A 
ENDROOT
BRANCH   5  22
ATOM     22  O   LIG A   1      -6.172   3.240 122.701  0.00  0.00    -0.461 OA
BRANCH  22  23
ATOM     23  C   LIG A   1      -6.479   3.699 121.454  0.00  0.00    +0.304 C 
ATOM     24  O   LIG A   1      -7.608   3.767 120.979  0.00  0.00    -0.251 OA
ATOM     25  C   LIG A   1      -5.241   4.125 120.726  0.00  0.00    +0.136 C 
ENDBRANCH  22  23
ENDBRANCH   5  22
TORSDOF 2
ENDMDL
MODEL 3
REMARK VINA RESULT:      -7.5      2.558      4.735
REMARK  Name = NuBBE_1587
REMARK  7 active torsions:
REMARK  status: ('A' for Active; 'I' for Inactive)
REMARK    1  A    between atoms: C_1  and  C_2
REMARK    2  A    between atoms: C_7  and  O_18
REMARK    3  A    between atoms: C_12  and  C_13
REMARK    4  A    between atoms: C_12  and  C_14
REMARK    5  A    between atoms: O_18  and  C_19
REMARK    6  A    between atoms: C_19  and  C_21
REMARK    7  A    between atoms: C_22  and  C_24
REMARK                            x       y       z     vdW  Elec       q    Type
REMARK                         _______ _______ _______ _____ _____    ______ ____
ROOT
ATOM      1  C   LIG A   1      -9.135   1.073 126.408  0.00  0.00    +0.012 C 
ATOM      2  C   LIG A   1      -7.831   0.244 126.203  0.00  0.00    -0.025 C 
ATOM      3  C   LIG A   1      -6.575   1.168 126.239  0.00  0.00    +0.010 C 
ATOM      4  C   LIG A   1      -6.625   2.359 125.189  0.00  0.00    +0.041 C 
ATOM      5  C   LIG A   1      -7.380   1.944 123.888  0.00  0.00    +0.181 C 
ATOM      6  C   LIG A   1      -7.403   0.433 123.626  0.00  0.00    +0.049 C 
ATOM      7  C   LIG A   1      -7.840  -0.494 124.804  0.00  0.00    +0.004 C 
ATOM      8  C   LIG A   1      -7.101  -1.914 124.725  0.00  0.00    -0.031 C 
ATOM      9  C   LIG A   1      -7.740  -2.748 123.586  0.00  0.00    +0.011 C 
ATOM     10  C   LIG A   1      -5.582  -1.852 124.416  0.00  0.00    +0.011 C 
ATOM     11  C   LIG A   1      -7.269  -2.729 126.027  0.00  0.00    +0.007 C 
ATOM     12  C   LIG A   1      -6.907  -1.923 127.260  0.00  0.00    +0.001 C 
ATOM     13  C   LIG A   1      -7.886  -0.775 127.377  0.00  0.00    +0.007 C 
ATOM     14  C   LIG A   1      -5.193   3.036 125.018  0.00  0.00    +0.026 C 
ATOM     15  C   LIG A   1      -5.259   4.481 124.497  0.00  0.00    +0.013 C 
ATOM     16  C   LIG A   1      -4.465   3.066 126.342  0.00  0.00    -0.003 A 
ATOM     17  C   LIG A   1      -4.963   2.500 127.489  0.00  0.00    +0.109 A 
ATOM     18  C   LIG A   1      -6.204   1.717 127.643  0.00  0.00    +0.079 C 
ATOM     19  O   LIG A   1      -4.138   2.681 128.545  0.00  0.00    -0.468 OA
ATOM     20  C   LIG A   1      -3.070   3.375 128.066  0.00  0.00    +0.195 A 
ATOM     21  C   LIG A   1      -3.212   3.617 126.717  0.00  0.00    +0.045 A 
ENDROOT
BRANCH   5  22
ATOM     22  O   LIG A   1      -6.873   2.575 122.693  0.00  0.00    -0.461 OA
BRANCH  22  23
ATOM     23  C   LIG A   1      -7.799   3.170 121.889  0.00  0.00    +0.304 C 
ATOM     24  O   LIG A   1      -9.012   3.173 122.081  0.00  0.00    -0.251 OA
ATOM     25  C   LIG A   1      -7.139   3.837 120.722  0.00  0.00    +0.136 C 
ENDBRANCH  22  23
ENDBRANCH   5  22
TORSDOF 2
ENDMDL
MODEL 4
REMARK VINA RESULT:      -7.3      2.625      5.235
REMARK  Name = NuBBE_1587
REMARK  7 active torsions:
REMARK  status: ('A' for Active; 'I' for Inactive)
REMARK    1  A    between atoms: C_1  and  C_2
REMARK    2  A    between atoms: C_7  and  O_18
REMARK    3  A    between atoms: C_12  and  C_13
REMARK    4  A    between atoms: C_12  and  C_14
REMARK    5  A    between atoms: O_18  and  C_19
REMARK    6  A    between atoms: C_19  and  C_21
REMARK    7  A    between atoms: C_22  and  C_24
REMARK                            x       y       z     vdW  Elec       q    Type
REMARK                         _______ _______ _______ _____ _____    ______ ____
ROOT
ATOM      1  C   LIG A   1      -8.195  -3.510 129.399  0.00  0.00    +0.012 C 
ATOM      2  C   LIG A   1      -7.002  -2.703 129.995  0.00  0.00    -0.025 C 
ATOM      3  C   LIG A   1      -7.315  -1.174 130.003  0.00  0.00    +0.010 C 
ATOM      4  C   LIG A   1      -7.700  -0.591 128.576  0.00  0.00    +0.041 C 
ATOM      5  C   LIG A   1      -6.942  -1.331 127.431  0.00  0.00    +0.181 C 
ATOM      6  C   LIG A   1      -5.636  -2.005 127.871  0.00  0.00    +0.049 C 
ATOM      7  C   LIG A   1      -5.688  -2.914 129.138  0.00  0.00    +0.004 C 
ATOM      8  C   LIG A   1      -4.293  -2.886 129.927  0.00  0.00    -0.031 C 
ATOM      9  C   LIG A   1      -3.256  -3.726 129.139  0.00  0.00    +0.011 C 
ATOM     10  C   LIG A   1      -3.664  -1.479 130.106  0.00  0.00    +0.011 C 
ATOM     11  C   LIG A   1      -4.407  -3.517 131.332  0.00  0.00    +0.007 C 
ATOM     12  C   LIG A   1      -5.566  -2.946 132.127  0.00  0.00    +0.001 C 
ATOM     13  C   LIG A   1      -6.851  -3.313 131.417  0.00  0.00    +0.007 C 
ATOM     14  C   LIG A   1      -7.652   1.002 128.575  0.00  0.00    +0.026 C 
ATOM     15  C   LIG A   1      -8.521   1.638 127.476  0.00  0.00    +0.013 C 
ATOM     16  C   LIG A   1      -8.132   1.544 129.901  0.00  0.00    -0.003 A 
ATOM     17  C   LIG A   1      -8.470   0.744 130.964  0.00  0.00    +0.109 A 
ATOM     18  C   LIG A   1      -8.361  -0.725 131.058  0.00  0.00    +0.079 C 
ATOM     19  O   LIG A   1      -8.892   1.463 132.028  0.00  0.00    -0.468 OA
ATOM     20  C   LIG A   1      -8.817   2.767 131.647  0.00  0.00    +0.195 A 
ATOM     21  C   LIG A   1      -8.337   2.871 130.359  0.00  0.00    +0.045 A 
ENDROOT
BRANCH   5  22
ATOM     22  O   LIG A   1      -6.627  -0.490 126.302  0.00  0.00    -0.461 OA
BRANCH  22  23
ATOM     23  C   LIG A   1      -7.037  -0.943 125.083  0.00  0.00    +0.304 C 
ATOM     24  O   LIG A   1      -6.389  -0.871 124.043  0.00  0.00    -0.251 OA
ATOM     25  C   LIG A   1      -8.400  -1.556 125.175  0.00  0.00    +0.136 C 
ENDBRANCH  22  23
ENDBRANCH   5  22
TORSDOF 2
ENDMDL
MODEL 5
REMARK VINA RESULT:      -7.2      2.394      4.580
REMARK  Name = NuBBE_1587
REMARK  7 active torsions:
REMARK  status: ('A' for Active; 'I' for Inactive)
REMARK    1  A    between atoms: C_1  and  C_2
REMARK    2  A    between atoms: C_7  and  O_18
REMARK    3  A    between atoms: C_12  and  C_13
REMARK    4  A    between atoms: C_12  and  C_14
REMARK    5  A    between atoms: O_18  and  C_19
REMARK    6  A    between atoms: C_19  and  C_21
REMARK    7  A    between atoms: C_22  and  C_24
REMARK                            x       y       z     vdW  Elec       q    Type
REMARK                         _______ _______ _______ _____ _____    ______ ____
ROOT
ATOM      1  C   LIG A   1      -5.212   0.057 125.960  0.00  0.00    +0.012 C 
ATOM      2  C   LIG A   1      -6.722  -0.326 126.002  0.00  0.00    -0.025 C 
ATOM      3  C   LIG A   1      -7.380   0.155 127.333  0.00  0.00    +0.010 C 
ATOM      4  C   LIG A   1      -6.652  -0.382 128.638  0.00  0.00    +0.041 C 
ATOM      5  C   LIG A   1      -6.050  -1.803 128.415  0.00  0.00    +0.181 C 
ATOM      6  C   LIG A   1      -6.723  -2.605 127.293  0.00  0.00    +0.049 C 
ATOM      7  C   LIG A   1      -6.914  -1.894 125.917  0.00  0.00    +0.004 C 
ATOM      8  C   LIG A   1      -8.227  -2.427 125.169  0.00  0.00    -0.031 C 
ATOM      9  C   LIG A   1      -7.943  -3.844 124.609  0.00  0.00    +0.011 C 
ATOM     10  C   LIG A   1      -9.488  -2.560 126.063  0.00  0.00    +0.011 C 
ATOM     11  C   LIG A   1      -8.613  -1.537 123.966  0.00  0.00    +0.007 C 
ATOM     12  C   LIG A   1      -8.678  -0.068 124.337  0.00  0.00    +0.001 C 
ATOM     13  C   LIG A   1      -7.289   0.380 124.737  0.00  0.00    +0.007 C 
ATOM     14  C   LIG A   1      -7.560  -0.167 129.931  0.00  0.00    +0.026 C 
ATOM     15  C   LIG A   1      -6.755  -0.122 131.241  0.00  0.00    +0.013 C 
ATOM     16  C   LIG A   1      -8.325   1.132 129.826  0.00  0.00    -0.003 A 
ATOM     17  C   LIG A   1      -8.286   1.942 128.718  0.00  0.00    +0.109 A 
ATOM     18  C   LIG A   1      -7.595   1.689 127.439  0.00  0.00    +0.079 C 
ATOM     19  O   LIG A   1      -9.034   3.057 128.878  0.00  0.00    -0.468 OA
ATOM     20  C   LIG A   1      -9.582   2.961 130.120  0.00  0.00    +0.195 A 
ATOM     21  C   LIG A   1      -9.195   1.790 130.734  0.00  0.00    +0.045 A 
ENDROOT
BRANCH   5  22
ATOM     22  O   LIG A   1      -6.060  -2.633 129.595  0.00  0.00    -0.461 OA
BRANCH  22  23
ATOM     23  C   LIG A   1      -5.018  -3.501 129.728  0.00  0.00    +0.304 C 
ATOM     24  O   LIG A   1      -3.910  -3.367 129.217  0.00  0.00    -0.251 OA
ATOM     25  C   LIG A   1      -5.399  -4.660 130.598  0.00  0.00    +0.136 C 
ENDBRANCH  22  23
ENDBRANCH   5  22
TORSDOF 2
ENDMDL
MODEL 6
REMARK VINA RESULT:      -7.1      5.840      9.731
REMARK  Name = NuBBE_1587
REMARK  7 active torsions:
REMARK  status: ('A' for Active; 'I' for Inactive)
REMARK    1  A    between atoms: C_1  and  C_2
REMARK    2  A    between atoms: C_7  and  O_18
REMARK    3  A    between atoms: C_12  and  C_13
REMARK    4  A    between atoms: C_12  and  C_14
REMARK    5  A    between atoms: O_18  and  C_19
REMARK    6  A    between atoms: C_19  and  C_21
REMARK    7  A    between atoms: C_22  and  C_24
REMARK                            x       y       z     vdW  Elec       q    Type
REMARK                         _______ _______ _______ _____ _____    ______ ____
ROOT
ATOM      1  C   LIG A   1      -3.629   8.098 130.665  0.00  0.00    +0.012 C 
ATOM      2  C   LIG A   1      -3.125   6.717 131.184  0.00  0.00    -0.025 C 
ATOM      3  C   LIG A   1      -3.393   5.597 130.132  0.00  0.00    +0.010 C 
ATOM      4  C   LIG A   1      -4.915   5.483 129.690  0.00  0.00    +0.041 C 
ATOM      5  C   LIG A   1      -5.879   5.843 130.862  0.00  0.00    +0.181 C 
ATOM      6  C   LIG A   1      -5.270   5.666 132.259  0.00  0.00    +0.049 C 
ATOM      7  C   LIG A   1      -3.870   6.305 132.518  0.00  0.00    +0.004 C 
ATOM      8  C   LIG A   1      -3.033   5.449 133.584  0.00  0.00    -0.031 C 
ATOM      9  C   LIG A   1      -3.617   5.703 134.997  0.00  0.00    +0.011 C 
ATOM     10  C   LIG A   1      -3.068   3.913 133.370  0.00  0.00    +0.011 C 
ATOM     11  C   LIG A   1      -1.547   5.870 133.629  0.00  0.00    +0.007 C 
ATOM     12  C   LIG A   1      -0.918   5.906 132.250  0.00  0.00    +0.001 C 
ATOM     13  C   LIG A   1      -1.614   6.979 131.442  0.00  0.00    +0.007 C 
ATOM     14  C   LIG A   1      -5.186   4.119 128.912  0.00  0.00    +0.026 C 
ATOM     15  C   LIG A   1      -6.417   4.176 127.992  0.00  0.00    +0.013 C 
ATOM     16  C   LIG A   1      -3.996   3.757 128.055  0.00  0.00    -0.003 A 
ATOM     17  C   LIG A   1      -2.829   4.479 128.042  0.00  0.00    +0.109 A 
ATOM     18  C   LIG A   1      -2.480   5.645 128.877  0.00  0.00    +0.079 C 
ATOM     19  O   LIG A   1      -1.925   3.969 127.176  0.00  0.00    -0.468 OA
ATOM     20  C   LIG A   1      -2.520   2.879 126.619  0.00  0.00    +0.195 A 
ATOM     21  C   LIG A   1      -3.782   2.694 127.140  0.00  0.00    +0.045 A 
ENDROOT
BRANCH   5  22
ATOM     22  O   LIG A   1      -7.120   5.106 130.844  0.00  0.00    -0.461 OA
BRANCH  22  23
ATOM     23  C   LIG A   1      -8.256   5.846 130.695  0.00  0.00    +0.304 C 
ATOM     24  O   LIG A   1      -8.718   6.231 129.625  0.00  0.00    -0.251 OA
ATOM     25  C   LIG A   1      -8.883   6.130 132.024  0.00  0.00    +0.136 C 
ENDBRANCH  22  23
ENDBRANCH   5  22
TORSDOF 2
ENDMDL
MODEL 7
REMARK VINA RESULT:      -6.9      4.308      7.998
REMARK  Name = NuBBE_1587
REMARK  7 active torsions:
REMARK  status: ('A' for Active; 'I' for Inactive)
REMARK    1  A    between atoms: C_1  and  C_2
REMARK    2  A    between atoms: C_7  and  O_18
REMARK    3  A    between atoms: C_12  and  C_13
REMARK    4  A    between atoms: C_12  and  C_14
REMARK    5  A    between atoms: O_18  and  C_19
REMARK    6  A    between atoms: C_19  and  C_21
REMARK    7  A    between atoms: C_22  and  C_24
REMARK                            x       y       z     vdW  Elec       q    Type
REMARK                         _______ _______ _______ _____ _____    ______ ____
ROOT
ATOM      1  C   LIG A   1      -3.606   3.945 131.632  0.00  0.00    +0.012 C 
ATOM      2  C   LIG A   1      -3.965   4.496 130.219  0.00  0.00    -0.025 C 
ATOM      3  C   LIG A   1      -5.503   4.718 130.084  0.00  0.00    +0.010 C 
ATOM      4  C   LIG A   1      -6.367   3.421 130.391  0.00  0.00    +0.041 C 
ATOM      5  C   LIG A   1      -5.621   2.120 129.959  0.00  0.00    +0.181 C 
ATOM      6  C   LIG A   1      -4.562   2.331 128.869  0.00  0.00    +0.049 C 
ATOM      7  C   LIG A   1      -3.529   3.481 129.086  0.00  0.00    +0.004 C 
ATOM      8  C   LIG A   1      -3.064   4.110 127.687  0.00  0.00    -0.031 C 
ATOM      9  C   LIG A   1      -2.096   3.119 126.991  0.00  0.00    +0.011 C 
ATOM     10  C   LIG A   1      -4.206   4.383 126.673  0.00  0.00    +0.011 C 
ATOM     11  C   LIG A   1      -2.292   5.435 127.873  0.00  0.00    +0.007 C 
ATOM     12  C   LIG A   1      -3.037   6.414 128.761  0.00  0.00    +0.001 C 
ATOM     13  C   LIG A   1      -3.138   5.811 130.145  0.00  0.00    +0.007 C 
ATOM     14  C   LIG A   1      -7.870   3.601 129.892  0.00  0.00    +0.026 C 
ATOM     15  C   LIG A   1      -8.869   2.687 130.622  0.00  0.00    +0.013 C 
ATOM     16  C   LIG A   1      -8.326   5.026 130.101  0.00  0.00    -0.003 A 
ATOM     17  C   LIG A   1      -7.504   6.019 130.573  0.00  0.00    +0.109 A 
ATOM     18  C   LIG A   1      -6.063   5.927 130.880  0.00  0.00    +0.079 C 
ATOM     19  O   LIG A   1      -8.151   7.199 130.696  0.00  0.00    -0.468 OA
ATOM     20  C   LIG A   1      -9.426   6.968 130.281  0.00  0.00    +0.195 A 
ATOM     21  C   LIG A   1      -9.579   5.657 129.886  0.00  0.00    +0.045 A 
ENDROOT
BRANCH   5  22
ATOM     22  O   LIG A   1      -6.498   1.070 129.501  0.00  0.00    -0.461 OA
BRANCH  22  23
ATOM     23  C   LIG A   1      -6.481  -0.086 130.225  0.00  0.00    +0.304 C 
ATOM     24  O   LIG A   1      -5.570  -0.448 130.964  0.00  0.00    -0.251 OA
ATOM     25  C   LIG A   1      -7.738  -0.869 130.006  0.00  0.00    +0.136 C 
ENDBRANCH  22  23
ENDBRANCH   5  22
TORSDOF 2
ENDMDL
MODEL 8
REMARK VINA RESULT:      -6.9      6.263      9.464
REMARK  Name = NuBBE_1587
REMARK  7 active torsions:
REMARK  status: ('A' for Active; 'I' for Inactive)
REMARK    1  A    between atoms: C_1  and  C_2
REMARK    2  A    between atoms: C_7  and  O_18
REMARK    3  A    between atoms: C_12  and  C_13
REMARK    4  A    between atoms: C_12  and  C_14
REMARK    5  A    between atoms: O_18  and  C_19
REMARK    6  A    between atoms: C_19  and  C_21
REMARK    7  A    between atoms: C_22  and  C_24
REMARK                            x       y       z     vdW  Elec       q    Type
REMARK                         _______ _______ _______ _____ _____    ______ ____
ROOT
ATOM      1  C   LIG A   1      -3.987   2.578 131.822  0.00  0.00    +0.012 C 
ATOM      2  C   LIG A   1      -3.699   4.074 132.150  0.00  0.00    -0.025 C 
ATOM      3  C   LIG A   1      -4.807   4.663 133.078  0.00  0.00    +0.010 C 
ATOM      4  C   LIG A   1      -6.277   4.514 132.495  0.00  0.00    +0.041 C 
ATOM      5  C   LIG A   1      -6.287   4.607 130.937  0.00  0.00    +0.181 C 
ATOM      6  C   LIG A   1      -5.091   5.360 130.341  0.00  0.00    +0.049 C 
ATOM      7  C   LIG A   1      -3.667   4.950 130.832  0.00  0.00    +0.004 C 
ATOM      8  C   LIG A   1      -2.668   6.203 130.815  0.00  0.00    -0.031 C 
ATOM      9  C   LIG A   1      -2.277   6.509 129.347  0.00  0.00    +0.011 C 
ATOM     10  C   LIG A   1      -3.249   7.520 131.392  0.00  0.00    +0.011 C 
ATOM     11  C   LIG A   1      -1.356   5.910 131.577  0.00  0.00    +0.007 C 
ATOM     12  C   LIG A   1      -1.610   5.355 132.965  0.00  0.00    +0.001 C 
ATOM     13  C   LIG A   1      -2.296   4.014 132.819  0.00  0.00    +0.007 C 
ATOM     14  C   LIG A   1      -7.306   5.435 133.290  0.00  0.00    +0.026 C 
ATOM     15  C   LIG A   1      -8.762   4.951 133.188  0.00  0.00    +0.013 C 
ATOM     16  C   LIG A   1      -6.946   5.481 134.756  0.00  0.00    -0.003 A 
ATOM     17  C   LIG A   1      -5.831   4.874 135.278  0.00  0.00    +0.109 A 
ATOM     18  C   LIG A   1      -4.766   4.161 134.546  0.00  0.00    +0.079 C 
ATOM     19  O   LIG A   1      -5.743   5.037 136.617  0.00  0.00    -0.468 OA
ATOM     20  C   LIG A   1      -6.826   5.780 136.972  0.00  0.00    +0.195 A 
ATOM     21  C   LIG A   1      -7.584   6.096 135.865  0.00  0.00    +0.045 A 
ENDROOT
BRANCH   5  22
ATOM     22  O   LIG A   1      -7.481   5.211 130.397  0.00  0.00    -0.461 OA
BRANCH  22  23
ATOM     23  C   LIG A   1      -8.106   4.521 129.401  0.00  0.00    +0.304 C 
ATOM     24  O   LIG A   1      -8.549   5.010 128.366  0.00  0.00    -0.251 OA
ATOM     25  C   LIG A   1      -8.181   3.063 129.732  0.00  0.00    +0.136 C 
ENDBRANCH  22  23
ENDBRANCH   5  22
TORSDOF 2
ENDMDL
MODEL 9
REMARK VINA RESULT:      -6.8      2.085      5.880
REMARK  Name = NuBBE_1587
REMARK  7 active torsions:
REMARK  status: ('A' for Active; 'I' for Inactive)
REMARK    1  A    between atoms: C_1  and  C_2
REMARK    2  A    between atoms: C_7  and  O_18
REMARK    3  A    between atoms: C_12  and  C_13
REMARK    4  A    between atoms: C_12  and  C_14
REMARK    5  A    between atoms: O_18  and  C_19
REMARK    6  A    between atoms: C_19  and  C_21
REMARK    7  A    between atoms: C_22  and  C_24
REMARK                            x       y       z     vdW  Elec       q    Type
REMARK                         _______ _______ _______ _____ _____    ______ ____
ROOT
ATOM      1  C   LIG A   1      -7.911  -0.200 130.669  0.00  0.00    +0.012 C 
ATOM      2  C   LIG A   1      -6.492  -0.771 130.365  0.00  0.00    -0.025 C 
ATOM      3  C   LIG A   1      -5.807   0.028 129.213  0.00  0.00    +0.010 C 
ATOM      4  C   LIG A   1      -6.662   0.084 127.876  0.00  0.00    +0.041 C 
ATOM      5  C   LIG A   1      -7.494  -1.220 127.673  0.00  0.00    +0.181 C 
ATOM      6  C   LIG A   1      -6.932  -2.448 128.401  0.00  0.00    +0.049 C 
ATOM      7  C   LIG A   1      -6.573  -2.285 129.911  0.00  0.00    +0.004 C 
ATOM      8  C   LIG A   1      -5.346  -3.233 130.318  0.00  0.00    -0.031 C 
ATOM      9  C   LIG A   1      -5.852  -4.695 130.405  0.00  0.00    +0.011 C 
ATOM     10  C   LIG A   1      -4.160  -3.244 129.319  0.00  0.00    +0.011 C 
ATOM     11  C   LIG A   1      -4.771  -2.874 131.707  0.00  0.00    +0.007 C 
ATOM     12  C   LIG A   1      -4.464  -1.394 131.837  0.00  0.00    +0.001 C 
ATOM     13  C   LIG A   1      -5.767  -0.632 131.734  0.00  0.00    +0.007 C 
ATOM     14  C   LIG A   1      -5.777   0.585 126.649  0.00  0.00    +0.026 C 
ATOM     15  C   LIG A   1      -6.607   1.194 125.506  0.00  0.00    +0.013 C 
ATOM     16  C   LIG A   1      -4.795   1.639 127.105  0.00  0.00    -0.003 A 
ATOM     17  C   LIG A   1      -4.653   2.020 128.416  0.00  0.00    +0.109 A 
ATOM     18  C   LIG A   1      -5.333   1.456 129.598  0.00  0.00    +0.079 C 
ATOM     19  O   LIG A   1      -3.729   2.996 128.565  0.00  0.00    -0.468 OA
ATOM     20  C   LIG A   1      -3.250   3.246 127.316  0.00  0.00    +0.195 A 
ATOM     21  C   LIG A   1      -3.856   2.426 126.389  0.00  0.00    +0.045 A 
ENDROOT
BRANCH   5  22
ATOM     22  O   LIG A   1      -7.669  -1.591 126.289  0.00  0.00    -0.461 OA
BRANCH  22  23
ATOM     23  C   LIG A   1      -8.955  -1.634 125.837  0.00  0.00    +0.304 C 
ATOM     24  O   LIG A   1      -9.658  -0.658 125.597  0.00  0.00    -0.251 OA
ATOM     25  C   LIG A   1      -9.408  -3.051 125.661  0.00  0.00    +0.136 C 
ENDBRANCH  22  23
ENDBRANCH   5  22
TORSDOF 2
ENDMDL
