MODEL 1
REMARK VINA RESULT:      -7.5      0.000      0.000
REMARK  Name = NuBBE_2483
REMARK  8 active torsions:
REMARK  status: ('A' for Active; 'I' for Inactive)
REMARK    1  A    between atoms: C_1  and  C_2
REMARK    2  A    between atoms: C_1  and  C_4
REMARK    3  A    between atoms: C_9  and  O_11
REMARK    4  A    between atoms: O_11  and  C_12
REMARK    5  A    between atoms: C_14  and  C_19
REMARK    6  A    between atoms: C_16  and  C_18
REMARK    7  A    between atoms: C_23  and  O_25
REMARK    8  A    between atoms: O_25  and  C_26
REMARK                            x       y       z     vdW  Elec       q    Type
REMARK                         _______ _______ _______ _____ _____    ______ ____
ROOT
ATOM      1  C   LIG A   1      -6.142  -1.372 125.641  0.00  0.00    +0.059 C 
ATOM      2  C   LIG A   1      -7.260  -0.437 125.245  0.00  0.00    +0.113 C 
ATOM      3  C   LIG A   1      -8.558  -0.738 125.301  0.00  0.00    +0.096 C 
ATOM      4  C   LIG A   1      -8.981  -2.047 125.831  0.00  0.00    +0.223 C 
ATOM      5  O   LIG A   1     -10.135  -2.403 125.658  0.00  0.00    -0.284 OA
ATOM      6  C   LIG A   1      -7.960  -2.824 126.631  0.00  0.00    +0.164 C 
ATOM      7  C   LIG A   1      -6.665  -2.498 126.511  0.00  0.00    +0.038 C 
ATOM      8  O   LIG A   1      -6.874   0.879 125.064  0.00  0.00    -0.487 OA
ATOM      9  C   LIG A   1      -5.519   0.954 125.532  0.00  0.00    +0.207 C 
ATOM     10  C   LIG A   1      -5.234  -0.334 126.352  0.00  0.00    +0.049 C 
ATOM     11  C   LIG A   1      -5.513  -0.188 127.858  0.00  0.00    +0.013 C 
ENDROOT
BRANCH   9  12
ATOM     12  C   LIG A   1      -5.244   2.277 126.220  0.00  0.00    +0.000 A 
ATOM     13  C   LIG A   1      -3.950   2.788 126.416  0.00  0.00    +0.057 A 
ATOM     14  C   LIG A   1      -3.817   4.015 127.042  0.00  0.00    +0.170 A 
ATOM     15  C   LIG A   1      -4.904   4.744 127.480  0.00  0.00    +0.207 A 
ATOM     16  C   LIG A   1      -6.191   4.270 127.310  0.00  0.00    +0.166 A 
ATOM     17  C   LIG A   1      -6.347   3.031 126.676  0.00  0.00    +0.057 A 
ATOM     18  O   LIG A   1      -4.516   5.903 128.085  0.00  0.00    -0.449 OA
ATOM     19  C   LIG A   1      -3.084   5.828 127.966  0.00  0.00    +0.467 C 
ATOM     20  O   LIG A   1      -2.631   4.631 127.309  0.00  0.00    -0.453 OA
BRANCH  16  21
ATOM     21  O   LIG A   1      -7.357   4.833 127.739  0.00  0.00    -0.491 OA
ATOM     22  C   LIG A   1      -7.837   4.397 129.003  0.00  0.00    +0.277 C 
ENDBRANCH  16  21
ENDBRANCH   9  12
BRANCH   6  23
ATOM     23  O   LIG A   1      -8.314  -3.894 127.442  0.00  0.00    -0.492 OA
ATOM     24  C   LIG A   1      -8.580  -3.560 128.803  0.00  0.00    +0.277 C 
ENDBRANCH   6  23
BRANCH   1  25
ATOM     25  C   LIG A   1      -5.382  -2.004 124.416  0.00  0.00    +0.045 C 
BRANCH  25  26
ATOM     26  C   LIG A   1      -5.444  -3.509 124.261  0.00  0.00    -0.033 C 
ATOM     27  C   LIG A   1      -4.475  -4.268 123.727  0.00  0.00    +0.004 C 
ENDBRANCH  25  26
ENDBRANCH   1  25
TORSDOF 5
ENDMDL
MODEL 2
REMARK VINA RESULT:      -7.5      4.058      5.913
REMARK  Name = NuBBE_2483
REMARK  8 active torsions:
REMARK  status: ('A' for Active; 'I' for Inactive)
REMARK    1  A    between atoms: C_1  and  C_2
REMARK    2  A    between atoms: C_1  and  C_4
REMARK    3  A    between atoms: C_9  and  O_11
REMARK    4  A    between atoms: O_11  and  C_12
REMARK    5  A    between atoms: C_14  and  C_19
REMARK    6  A    between atoms: C_16  and  C_18
REMARK    7  A    between atoms: C_23  and  O_25
REMARK    8  A    between atoms: O_25  and  C_26
REMARK                            x       y       z     vdW  Elec       q    Type
REMARK                         _______ _______ _______ _____ _____    ______ ____
ROOT
ATOM      1  C   LIG A   1      -8.404   0.466 125.734  0.00  0.00    +0.059 C 
ATOM      2  C   LIG A   1      -6.926   0.708 125.536  0.00  0.00    +0.113 C 
ATOM      3  C   LIG A   1      -5.969  -0.183 125.795  0.00  0.00    +0.096 C 
ATOM      4  C   LIG A   1      -6.336  -1.533 126.258  0.00  0.00    +0.223 C 
ATOM      5  O   LIG A   1      -5.462  -2.253 126.716  0.00  0.00    -0.284 OA
ATOM      6  C   LIG A   1      -7.772  -1.962 126.056  0.00  0.00    +0.164 C 
ATOM      7  C   LIG A   1      -8.697  -1.018 125.830  0.00  0.00    +0.038 C 
ATOM      8  O   LIG A   1      -6.621   1.841 124.803  0.00  0.00    -0.487 OA
ATOM      9  C   LIG A   1      -7.872   2.315 124.282  0.00  0.00    +0.207 C 
ATOM     10  C   LIG A   1      -8.913   1.175 124.452  0.00  0.00    +0.049 C 
ATOM     11  C   LIG A   1      -9.025   0.248 123.229  0.00  0.00    +0.013 C 
ENDROOT
BRANCH   9  12
ATOM     12  C   LIG A   1      -7.709   2.890 122.889  0.00  0.00    +0.000 A 
ATOM     13  C   LIG A   1      -8.787   3.112 122.017  0.00  0.00    +0.057 A 
ATOM     14  C   LIG A   1      -8.523   3.657 120.772  0.00  0.00    +0.170 A 
ATOM     15  C   LIG A   1      -7.246   3.984 120.363  0.00  0.00    +0.207 A 
ATOM     16  C   LIG A   1      -6.160   3.774 121.192  0.00  0.00    +0.166 A 
ATOM     17  C   LIG A   1      -6.407   3.225 122.456  0.00  0.00    +0.057 A 
ATOM     18  O   LIG A   1      -7.242   4.480 119.093  0.00  0.00    -0.449 OA
ATOM     19  C   LIG A   1      -8.641   4.444 118.761  0.00  0.00    +0.467 C 
ATOM     20  O   LIG A   1      -9.462   3.919 119.819  0.00  0.00    -0.453 OA
BRANCH  16  21
ATOM     21  O   LIG A   1      -4.841   3.979 120.915  0.00  0.00    -0.491 OA
ATOM     22  C   LIG A   1      -4.185   4.978 121.684  0.00  0.00    +0.277 C 
ENDBRANCH  16  21
ENDBRANCH   9  12
BRANCH   6  23
ATOM     23  O   LIG A   1      -8.168  -3.288 126.146  0.00  0.00    -0.492 OA
ATOM     24  C   LIG A   1      -8.266  -3.978 124.902  0.00  0.00    +0.277 C 
ENDBRANCH   6  23
BRANCH   1  25
ATOM     25  C   LIG A   1      -8.995   1.172 127.010  0.00  0.00    +0.045 C 
BRANCH  25  26
ATOM     26  C   LIG A   1      -8.046   1.436 128.161  0.00  0.00    -0.033 C 
ATOM     27  C   LIG A   1      -7.844   0.609 129.197  0.00  0.00    +0.004 C 
ENDBRANCH  25  26
ENDBRANCH   1  25
TORSDOF 5
ENDMDL
MODEL 3
REMARK VINA RESULT:      -7.5      2.815      4.015
REMARK  Name = NuBBE_2483
REMARK  8 active torsions:
REMARK  status: ('A' for Active; 'I' for Inactive)
REMARK    1  A    between atoms: C_1  and  C_2
REMARK    2  A    between atoms: C_1  and  C_4
REMARK    3  A    between atoms: C_9  and  O_11
REMARK    4  A    between atoms: O_11  and  C_12
REMARK    5  A    between atoms: C_14  and  C_19
REMARK    6  A    between atoms: C_16  and  C_18
REMARK    7  A    between atoms: C_23  and  O_25
REMARK    8  A    between atoms: O_25  and  C_26
REMARK                            x       y       z     vdW  Elec       q    Type
REMARK                         _______ _______ _______ _____ _____    ______ ____
ROOT
ATOM      1  C   LIG A   1      -7.815  -1.331 126.326  0.00  0.00    +0.059 C 
ATOM      2  C   LIG A   1      -8.064  -0.070 127.119  0.00  0.00    +0.113 C 
ATOM      3  C   LIG A   1      -7.919   0.038 128.439  0.00  0.00    +0.096 C 
ATOM      4  C   LIG A   1      -7.430  -1.115 129.216  0.00  0.00    +0.223 C 
ATOM      5  O   LIG A   1      -7.527  -1.085 130.433  0.00  0.00    -0.284 OA
ATOM      6  C   LIG A   1      -6.762  -2.229 128.443  0.00  0.00    +0.164 C 
ATOM      7  C   LIG A   1      -6.970  -2.307 127.121  0.00  0.00    +0.038 C 
ATOM      8  O   LIG A   1      -8.202   1.074 126.353  0.00  0.00    -0.487 OA
ATOM      9  C   LIG A   1      -7.844   0.692 125.016  0.00  0.00    +0.207 C 
ATOM     10  C   LIG A   1      -7.124  -0.682 125.098  0.00  0.00    +0.049 C 
ATOM     11  C   LIG A   1      -5.595  -0.577 125.225  0.00  0.00    +0.013 C 
ENDROOT
BRANCH   9  12
ATOM     12  C   LIG A   1      -7.107   1.808 124.301  0.00  0.00    +0.000 A 
ATOM     13  C   LIG A   1      -7.023   1.901 122.902  0.00  0.00    +0.057 A 
ATOM     14  C   LIG A   1      -6.338   2.973 122.356  0.00  0.00    +0.170 A 
ATOM     15  C   LIG A   1      -5.737   3.941 123.134  0.00  0.00    +0.207 A 
ATOM     16  C   LIG A   1      -5.794   3.879 124.513  0.00  0.00    +0.166 A 
ATOM     17  C   LIG A   1      -6.485   2.804 125.085  0.00  0.00    +0.057 A 
ATOM     18  O   LIG A   1      -5.106   4.875 122.367  0.00  0.00    -0.449 OA
ATOM     19  C   LIG A   1      -5.387   4.400 121.039  0.00  0.00    +0.467 C 
ATOM     20  O   LIG A   1      -6.165   3.190 121.021  0.00  0.00    -0.453 OA
BRANCH  16  21
ATOM     21  O   LIG A   1      -5.204   4.712 125.416  0.00  0.00    -0.491 OA
ATOM     22  C   LIG A   1      -4.265   4.118 126.301  0.00  0.00    +0.277 C 
ENDBRANCH  16  21
ENDBRANCH   9  12
BRANCH   6  23
ATOM     23  O   LIG A   1      -5.987  -3.199 129.062  0.00  0.00    -0.492 OA
ATOM     24  C   LIG A   1      -4.581  -2.960 129.034  0.00  0.00    +0.277 C 
ENDBRANCH   6  23
BRANCH   1  25
ATOM     25  C   LIG A   1      -9.132  -2.067 125.877  0.00  0.00    +0.045 C 
BRANCH  25  26
ATOM     26  C   LIG A   1      -8.988  -3.207 124.890  0.00  0.00    -0.033 C 
ATOM     27  C   LIG A   1      -9.394  -3.174 123.612  0.00  0.00    +0.004 C 
ENDBRANCH  25  26
ENDBRANCH   1  25
TORSDOF 5
ENDMDL
MODEL 4
REMARK VINA RESULT:      -7.4      3.750      5.801
REMARK  Name = NuBBE_2483
REMARK  8 active torsions:
REMARK  status: ('A' for Active; 'I' for Inactive)
REMARK    1  A    between atoms: C_1  and  C_2
REMARK    2  A    between atoms: C_1  and  C_4
REMARK    3  A    between atoms: C_9  and  O_11
REMARK    4  A    between atoms: O_11  and  C_12
REMARK    5  A    between atoms: C_14  and  C_19
REMARK    6  A    between atoms: C_16  and  C_18
REMARK    7  A    between atoms: C_23  and  O_25
REMARK    8  A    between atoms: O_25  and  C_26
REMARK                            x       y       z     vdW  Elec       q    Type
REMARK                         _______ _______ _______ _____ _____    ______ ____
ROOT
ATOM      1  C   LIG A   1      -7.026  -2.096 126.082  0.00  0.00    +0.059 C 
ATOM      2  C   LIG A   1      -7.242  -0.682 126.566  0.00  0.00    +0.113 C 
ATOM      3  C   LIG A   1      -7.966   0.237 125.927  0.00  0.00    +0.096 C 
ATOM      4  C   LIG A   1      -8.668  -0.124 124.683  0.00  0.00    +0.223 C 
ATOM      5  O   LIG A   1      -9.124   0.770 123.987  0.00  0.00    -0.284 OA
ATOM      6  C   LIG A   1      -8.845  -1.598 124.398  0.00  0.00    +0.164 C 
ATOM      7  C   LIG A   1      -8.067  -2.475 125.048  0.00  0.00    +0.038 C 
ATOM      8  O   LIG A   1      -6.857  -0.455 127.876  0.00  0.00    -0.487 OA
ATOM      9  C   LIG A   1      -6.557  -1.750 128.422  0.00  0.00    +0.207 C 
ATOM     10  C   LIG A   1      -7.142  -2.814 127.453  0.00  0.00    +0.049 C 
ATOM     11  C   LIG A   1      -8.572  -3.257 127.806  0.00  0.00    +0.013 C 
ENDROOT
BRANCH   9  12
ATOM     12  C   LIG A   1      -6.974  -1.846 129.876  0.00  0.00    +0.000 A 
ATOM     13  C   LIG A   1      -6.483  -2.827 130.753  0.00  0.00    +0.057 A 
ATOM     14  C   LIG A   1      -6.921  -2.811 132.067  0.00  0.00    +0.170 A 
ATOM     15  C   LIG A   1      -7.818  -1.874 132.537  0.00  0.00    +0.207 A 
ATOM     16  C   LIG A   1      -8.327  -0.897 131.701  0.00  0.00    +0.166 A 
ATOM     17  C   LIG A   1      -7.894  -0.895 130.369  0.00  0.00    +0.057 A 
ATOM     18  O   LIG A   1      -8.112  -2.081 133.851  0.00  0.00    -0.449 OA
ATOM     19  C   LIG A   1      -7.298  -3.228 134.155  0.00  0.00    +0.467 C 
ATOM     20  O   LIG A   1      -6.541  -3.701 133.027  0.00  0.00    -0.453 OA
BRANCH  16  21
ATOM     21  O   LIG A   1      -9.261   0.052 131.990  0.00  0.00    -0.491 OA
ATOM     22  C   LIG A   1      -8.769   1.354 132.273  0.00  0.00    +0.277 C 
ENDBRANCH  16  21
ENDBRANCH   9  12
BRANCH   6  23
ATOM     23  O   LIG A   1      -9.746  -2.066 123.453  0.00  0.00    -0.492 OA
ATOM     24  C   LIG A   1      -9.762  -3.482 123.279  0.00  0.00    +0.277 C 
ENDBRANCH   6  23
BRANCH   1  25
ATOM     25  C   LIG A   1      -5.599  -2.343 125.465  0.00  0.00    +0.045 C 
BRANCH  25  26
ATOM     26  C   LIG A   1      -5.526  -3.153 124.187  0.00  0.00    -0.033 C 
ATOM     27  C   LIG A   1      -4.502  -3.945 123.836  0.00  0.00    +0.004 C 
ENDBRANCH  25  26
ENDBRANCH   1  25
TORSDOF 5
ENDMDL
MODEL 5
REMARK VINA RESULT:      -7.2      2.902      7.318
REMARK  Name = NuBBE_2483
REMARK  8 active torsions:
REMARK  status: ('A' for Active; 'I' for Inactive)
REMARK    1  A    between atoms: C_1  and  C_2
REMARK    2  A    between atoms: C_1  and  C_4
REMARK    3  A    between atoms: C_9  and  O_11
REMARK    4  A    between atoms: O_11  and  C_12
REMARK    5  A    between atoms: C_14  and  C_19
REMARK    6  A    between atoms: C_16  and  C_18
REMARK    7  A    between atoms: C_23  and  O_25
REMARK    8  A    between atoms: O_25  and  C_26
REMARK                            x       y       z     vdW  Elec       q    Type
REMARK                         _______ _______ _______ _____ _____    ______ ____
ROOT
ATOM      1  C   LIG A   1      -7.129   2.990 124.486  0.00  0.00    +0.059 C 
ATOM      2  C   LIG A   1      -8.517   2.534 124.104  0.00  0.00    +0.113 C 
ATOM      3  C   LIG A   1      -9.057   2.675 122.894  0.00  0.00    +0.096 C 
ATOM      4  C   LIG A   1      -8.259   3.265 121.804  0.00  0.00    +0.223 C 
ATOM      5  O   LIG A   1      -8.829   3.607 120.779  0.00  0.00    -0.284 OA
ATOM      6  C   LIG A   1      -6.762   3.329 122.007  0.00  0.00    +0.164 C 
ATOM      7  C   LIG A   1      -6.278   3.212 123.252  0.00  0.00    +0.038 C 
ATOM      8  O   LIG A   1      -9.125   1.701 125.027  0.00  0.00    -0.487 OA
ATOM      9  C   LIG A   1      -8.105   1.373 125.984  0.00  0.00    +0.207 C 
ATOM     10  C   LIG A   1      -6.737   1.775 125.368  0.00  0.00    +0.049 C 
ATOM     11  C   LIG A   1      -6.045   0.640 124.595  0.00  0.00    +0.013 C 
ENDROOT
BRANCH   9  12
ATOM     12  C   LIG A   1      -8.243  -0.056 126.470  0.00  0.00    +0.000 A 
ATOM     13  C   LIG A   1      -7.684  -0.516 127.674  0.00  0.00    +0.057 A 
ATOM     14  C   LIG A   1      -7.886  -1.839 128.028  0.00  0.00    +0.170 A 
ATOM     15  C   LIG A   1      -8.609  -2.714 127.242  0.00  0.00    +0.207 A 
ATOM     16  C   LIG A   1      -9.168  -2.298 126.048  0.00  0.00    +0.166 A 
ATOM     17  C   LIG A   1      -8.976  -0.962 125.674  0.00  0.00    +0.057 A 
ATOM     18  O   LIG A   1      -8.646  -3.962 127.789  0.00  0.00    -0.449 OA
ATOM     19  C   LIG A   1      -7.889  -3.773 128.998  0.00  0.00    +0.467 C 
ATOM     20  O   LIG A   1      -7.399  -2.429 129.156  0.00  0.00    -0.453 OA
BRANCH  16  21
ATOM     21  O   LIG A   1      -9.848  -3.047 125.134  0.00  0.00    -0.491 OA
ATOM     22  C   LIG A   1      -9.258  -3.156 123.846  0.00  0.00    +0.277 C 
ENDBRANCH  16  21
ENDBRANCH   9  12
BRANCH   6  23
ATOM     23  O   LIG A   1      -5.882   3.555 120.959  0.00  0.00    -0.492 OA
ATOM     24  C   LIG A   1      -4.973   4.637 121.153  0.00  0.00    +0.277 C 
ENDBRANCH   6  23
BRANCH   1  25
ATOM     25  C   LIG A   1      -7.110   4.308 125.346  0.00  0.00    +0.045 C 
BRANCH  25  26
ATOM     26  C   LIG A   1      -6.218   4.326 126.570  0.00  0.00    -0.033 C 
ATOM     27  C   LIG A   1      -4.998   4.881 126.625  0.00  0.00    +0.004 C 
ENDBRANCH  25  26
ENDBRANCH   1  25
TORSDOF 5
ENDMDL
MODEL 6
REMARK VINA RESULT:      -7.1      4.201      7.191
REMARK  Name = NuBBE_2483
REMARK  8 active torsions:
REMARK  status: ('A' for Active; 'I' for Inactive)
REMARK    1  A    between atoms: C_1  and  C_2
REMARK    2  A    between atoms: C_1  and  C_4
REMARK    3  A    between atoms: C_9  and  O_11
REMARK    4  A    between atoms: O_11  and  C_12
REMARK    5  A    between atoms: C_14  and  C_19
REMARK    6  A    between atoms: C_16  and  C_18
REMARK    7  A    between atoms: C_23  and  O_25
REMARK    8  A    between atoms: O_25  and  C_26
REMARK                            x       y       z     vdW  Elec       q    Type
REMARK                         _______ _______ _______ _____ _____    ______ ____
ROOT
ATOM      1  C   LIG A   1      -6.797  -2.042 130.286  0.00  0.00    +0.059 C 
ATOM      2  C   LIG A   1      -5.515  -1.954 129.492  0.00  0.00    +0.113 C 
ATOM      3  C   LIG A   1      -4.383  -2.583 129.804  0.00  0.00    +0.096 C 
ATOM      4  C   LIG A   1      -4.347  -3.484 130.970  0.00  0.00    +0.223 C 
ATOM      5  O   LIG A   1      -3.263  -3.863 131.385  0.00  0.00    -0.284 OA
ATOM      6  C   LIG A   1      -5.678  -3.943 131.523  0.00  0.00    +0.164 C 
ATOM      7  C   LIG A   1      -6.780  -3.252 131.200  0.00  0.00    +0.038 C 
ATOM      8  O   LIG A   1      -5.651  -1.378 128.240  0.00  0.00    -0.487 OA
ATOM      9  C   LIG A   1      -7.065  -1.239 128.029  0.00  0.00    +0.207 C 
ATOM     10  C   LIG A   1      -7.787  -2.111 129.092  0.00  0.00    +0.049 C 
ATOM     11  C   LIG A   1      -8.096  -3.541 128.618  0.00  0.00    +0.013 C 
ENDROOT
BRANCH   9  12
ATOM     12  C   LIG A   1      -7.433  -1.484 126.579  0.00  0.00    +0.000 A 
ATOM     13  C   LIG A   1      -8.494  -0.827 125.933  0.00  0.00    +0.057 A 
ATOM     14  C   LIG A   1      -8.731  -1.117 124.600  0.00  0.00    +0.170 A 
ATOM     15  C   LIG A   1      -7.969  -2.025 123.893  0.00  0.00    +0.207 A 
ATOM     16  C   LIG A   1      -6.921  -2.695 124.497  0.00  0.00    +0.166 A 
ATOM     17  C   LIG A   1      -6.664  -2.413 125.845  0.00  0.00    +0.057 A 
ATOM     18  O   LIG A   1      -8.411  -2.156 122.611  0.00  0.00    -0.449 OA
ATOM     19  C   LIG A   1      -9.512  -1.230 122.587  0.00  0.00    +0.467 C 
ATOM     20  O   LIG A   1      -9.725  -0.569 123.847  0.00  0.00    -0.453 OA
BRANCH  16  21
ATOM     21  O   LIG A   1      -6.121  -3.660 123.962  0.00  0.00    -0.491 OA
ATOM     22  C   LIG A   1      -4.767  -3.300 123.732  0.00  0.00    +0.277 C 
ENDBRANCH  16  21
ENDBRANCH   9  12
BRANCH   6  23
ATOM     23  O   LIG A   1      -5.787  -5.020 132.391  0.00  0.00    -0.492 OA
ATOM     24  C   LIG A   1      -6.097  -4.681 133.741  0.00  0.00    +0.277 C 
ENDBRANCH   6  23
BRANCH   1  25
ATOM     25  C   LIG A   1      -7.092  -0.766 131.157  0.00  0.00    +0.045 C 
BRANCH  25  26
ATOM     26  C   LIG A   1      -8.403  -0.047 130.915  0.00  0.00    -0.033 C 
ATOM     27  C   LIG A   1      -9.207   0.431 131.877  0.00  0.00    +0.004 C 
ENDBRANCH  25  26
ENDBRANCH   1  25
TORSDOF 5
ENDMDL
MODEL 7
REMARK VINA RESULT:      -7.0      3.617      6.015
REMARK  Name = NuBBE_2483
REMARK  8 active torsions:
REMARK  status: ('A' for Active; 'I' for Inactive)
REMARK    1  A    between atoms: C_1  and  C_2
REMARK    2  A    between atoms: C_1  and  C_4
REMARK    3  A    between atoms: C_9  and  O_11
REMARK    4  A    between atoms: O_11  and  C_12
REMARK    5  A    between atoms: C_14  and  C_19
REMARK    6  A    between atoms: C_16  and  C_18
REMARK    7  A    between atoms: C_23  and  O_25
REMARK    8  A    between atoms: O_25  and  C_26
REMARK                            x       y       z     vdW  Elec       q    Type
REMARK                         _______ _______ _______ _____ _____    ______ ____
ROOT
ATOM      1  C   LIG A   1      -6.578  -1.840 124.755  0.00  0.00    +0.059 C 
ATOM      2  C   LIG A   1      -6.295  -0.500 125.393  0.00  0.00    +0.113 C 
ATOM      3  C   LIG A   1      -6.692   0.674 124.903  0.00  0.00    +0.096 C 
ATOM      4  C   LIG A   1      -7.515   0.713 123.680  0.00  0.00    +0.223 C 
ATOM      5  O   LIG A   1      -7.669   1.783 123.112  0.00  0.00    -0.284 OA
ATOM      6  C   LIG A   1      -8.182  -0.577 123.261  0.00  0.00    +0.164 C 
ATOM      7  C   LIG A   1      -7.719  -1.732 123.763  0.00  0.00    +0.038 C 
ATOM      8  O   LIG A   1      -5.815  -0.569 126.689  0.00  0.00    -0.487 OA
ATOM      9  C   LIG A   1      -5.946  -1.945 127.079  0.00  0.00    +0.207 C 
ATOM     10  C   LIG A   1      -6.883  -2.637 126.051  0.00  0.00    +0.049 C 
ATOM     11  C   LIG A   1      -8.367  -2.626 126.457  0.00  0.00    +0.013 C 
ENDROOT
BRANCH   9  12
ATOM     12  C   LIG A   1      -6.323  -2.072 128.541  0.00  0.00    +0.000 A 
ATOM     13  C   LIG A   1      -7.014  -1.073 129.247  0.00  0.00    +0.057 A 
ATOM     14  C   LIG A   1      -7.321  -1.301 130.577  0.00  0.00    +0.170 A 
ATOM     15  C   LIG A   1      -6.971  -2.467 131.228  0.00  0.00    +0.207 A 
ATOM     16  C   LIG A   1      -6.286  -3.470 130.568  0.00  0.00    +0.166 A 
ATOM     17  C   LIG A   1      -5.968  -3.258 129.220  0.00  0.00    +0.057 A 
ATOM     18  O   LIG A   1      -7.361  -2.445 132.534  0.00  0.00    -0.449 OA
ATOM     19  C   LIG A   1      -8.001  -1.160 132.626  0.00  0.00    +0.467 C 
ATOM     20  O   LIG A   1      -7.977  -0.424 131.389  0.00  0.00    -0.453 OA
BRANCH  16  21
ATOM     21  O   LIG A   1      -5.814  -4.641 131.080  0.00  0.00    -0.491 OA
ATOM     22  C   LIG A   1      -4.718  -4.540 131.978  0.00  0.00    +0.277 C 
ENDBRANCH  16  21
ENDBRANCH   9  12
BRANCH   6  23
ATOM     23  O   LIG A   1      -9.218  -0.610 122.339  0.00  0.00    -0.492 OA
ATOM     24  C   LIG A   1     -10.274   0.317 122.581  0.00  0.00    +0.277 C 
ENDBRANCH   6  23
BRANCH   1  25
ATOM     25  C   LIG A   1      -5.337  -2.465 124.018  0.00  0.00    +0.045 C 
BRANCH  25  26
ATOM     26  C   LIG A   1      -5.254  -3.975 123.956  0.00  0.00    -0.033 C 
ATOM     27  C   LIG A   1      -4.187  -4.671 123.532  0.00  0.00    +0.004 C 
ENDBRANCH  25  26
ENDBRANCH   1  25
TORSDOF 5
ENDMDL
MODEL 8
REMARK VINA RESULT:      -6.9      2.821      4.073
REMARK  Name = NuBBE_2483
REMARK  8 active torsions:
REMARK  status: ('A' for Active; 'I' for Inactive)
REMARK    1  A    between atoms: C_1  and  C_2
REMARK    2  A    between atoms: C_1  and  C_4
REMARK    3  A    between atoms: C_9  and  O_11
REMARK    4  A    between atoms: O_11  and  C_12
REMARK    5  A    between atoms: C_14  and  C_19
REMARK    6  A    between atoms: C_16  and  C_18
REMARK    7  A    between atoms: C_23  and  O_25
REMARK    8  A    between atoms: O_25  and  C_26
REMARK                            x       y       z     vdW  Elec       q    Type
REMARK                         _______ _______ _______ _____ _____    ______ ____
ROOT
ATOM      1  C   LIG A   1      -7.111   1.806 123.627  0.00  0.00    +0.059 C 
ATOM      2  C   LIG A   1      -8.425   2.453 123.995  0.00  0.00    +0.113 C 
ATOM      3  C   LIG A   1      -9.626   1.948 123.714  0.00  0.00    +0.096 C 
ATOM      4  C   LIG A   1      -9.728   0.638 123.045  0.00  0.00    +0.223 C 
ATOM      5  O   LIG A   1     -10.806   0.299 122.583  0.00  0.00    -0.284 OA
ATOM      6  C   LIG A   1      -8.493  -0.233 123.053  0.00  0.00    +0.164 C 
ATOM      7  C   LIG A   1      -7.307   0.336 123.311  0.00  0.00    +0.038 C 
ATOM      8  O   LIG A   1      -8.320   3.499 124.895  0.00  0.00    -0.487 OA
ATOM      9  C   LIG A   1      -6.959   3.483 125.352  0.00  0.00    +0.207 C 
ATOM     10  C   LIG A   1      -6.341   2.119 124.937  0.00  0.00    +0.049 C 
ATOM     11  C   LIG A   1      -6.467   1.026 126.012  0.00  0.00    +0.013 C 
ENDROOT
BRANCH   9  12
ATOM     12  C   LIG A   1      -6.864   3.859 126.818  0.00  0.00    +0.000 A 
ATOM     13  C   LIG A   1      -5.647   4.137 127.462  0.00  0.00    +0.057 A 
ATOM     14  C   LIG A   1      -5.679   4.486 128.802  0.00  0.00    +0.170 A 
ATOM     15  C   LIG A   1      -6.856   4.565 129.518  0.00  0.00    +0.207 A 
ATOM     16  C   LIG A   1      -8.071   4.292 128.918  0.00  0.00    +0.166 A 
ATOM     17  C   LIG A   1      -8.060   3.939 127.563  0.00  0.00    +0.057 A 
ATOM     18  O   LIG A   1      -6.626   4.902 130.819  0.00  0.00    -0.449 OA
ATOM     19  C   LIG A   1      -5.194   5.040 130.836  0.00  0.00    +0.467 C 
ATOM     20  O   LIG A   1      -4.584   4.774 129.560  0.00  0.00    -0.453 OA
BRANCH  16  21
ATOM     21  O   LIG A   1      -9.305   4.261 129.497  0.00  0.00    -0.491 OA
ATOM     22  C   LIG A   1      -9.626   3.090 130.233  0.00  0.00    +0.277 C 
ENDBRANCH  16  21
ENDBRANCH   9  12
BRANCH   6  23
ATOM     23  O   LIG A   1      -8.540  -1.587 122.752  0.00  0.00    -0.492 OA
ATOM     24  C   LIG A   1      -8.839  -2.442 123.854  0.00  0.00    +0.277 C 
ENDBRANCH   6  23
BRANCH   1  25
ATOM     25  C   LIG A   1      -6.391   2.485 122.404  0.00  0.00    +0.045 C 
BRANCH  25  26
ATOM     26  C   LIG A   1      -7.191   3.484 121.594  0.00  0.00    -0.033 C 
ATOM     27  C   LIG A   1      -6.860   3.924 120.371  0.00  0.00    +0.004 C 
ENDBRANCH  25  26
ENDBRANCH   1  25
TORSDOF 5
ENDMDL
MODEL 9
REMARK VINA RESULT:      -6.9      2.813      4.541
REMARK  Name = NuBBE_2483
REMARK  8 active torsions:
REMARK  status: ('A' for Active; 'I' for Inactive)
REMARK    1  A    between atoms: C_1  and  C_2
REMARK    2  A    between atoms: C_1  and  C_4
REMARK    3  A    between atoms: C_9  and  O_11
REMARK    4  A    between atoms: O_11  and  C_12
REMARK    5  A    between atoms: C_14  and  C_19
REMARK    6  A    between atoms: C_16  and  C_18
REMARK    7  A    between atoms: C_23  and  O_25
REMARK    8  A    between atoms: O_25  and  C_26
REMARK                            x       y       z     vdW  Elec       q    Type
REMARK                         _______ _______ _______ _____ _____    ______ ____
ROOT
ATOM      1  C   LIG A   1      -7.117   2.583 123.677  0.00  0.00    +0.059 C 
ATOM      2  C   LIG A   1      -8.249   3.038 124.568  0.00  0.00    +0.113 C 
ATOM      3  C   LIG A   1      -9.428   2.424 124.671  0.00  0.00    +0.096 C 
ATOM      4  C   LIG A   1      -9.670   1.179 123.921  0.00  0.00    +0.223 C 
ATOM      5  O   LIG A   1     -10.814   0.761 123.833  0.00  0.00    -0.284 OA
ATOM      6  C   LIG A   1      -8.457   0.459 123.378  0.00  0.00    +0.164 C 
ATOM      7  C   LIG A   1      -7.305   1.136 123.267  0.00  0.00    +0.038 C 
ATOM      8  O   LIG A   1      -7.900   4.001 125.497  0.00  0.00    -0.487 OA
ATOM      9  C   LIG A   1      -6.468   4.101 125.434  0.00  0.00    +0.207 C 
ATOM     10  C   LIG A   1      -5.946   2.862 124.656  0.00  0.00    +0.049 C 
ATOM     11  C   LIG A   1      -5.587   1.668 125.557  0.00  0.00    +0.013 C 
ENDROOT
BRANCH   9  12
ATOM     12  C   LIG A   1      -5.871   4.350 126.805  0.00  0.00    +0.000 A 
ATOM     13  C   LIG A   1      -6.581   4.153 128.001  0.00  0.00    +0.057 A 
ATOM     14  C   LIG A   1      -5.930   4.396 129.198  0.00  0.00    +0.170 A 
ATOM     15  C   LIG A   1      -4.619   4.826 129.255  0.00  0.00    +0.207 A 
ATOM     16  C   LIG A   1      -3.892   5.036 128.098  0.00  0.00    +0.166 A 
ATOM     17  C   LIG A   1      -4.532   4.793 126.877  0.00  0.00    +0.057 A 
ATOM     18  O   LIG A   1      -4.213   5.018 130.541  0.00  0.00    -0.449 OA
ATOM     19  C   LIG A   1      -5.393   4.651 131.278  0.00  0.00    +0.467 C 
ATOM     20  O   LIG A   1      -6.490   4.259 130.433  0.00  0.00    -0.453 OA
BRANCH  16  21
ATOM     21  O   LIG A   1      -2.622   5.516 127.982  0.00  0.00    -0.491 OA
ATOM     22  C   LIG A   1      -2.456   6.912 128.184  0.00  0.00    +0.277 C 
ENDBRANCH  16  21
ENDBRANCH   9  12
BRANCH   6  23
ATOM     23  O   LIG A   1      -8.510  -0.858 122.944  0.00  0.00    -0.492 OA
ATOM     24  C   LIG A   1      -7.307  -1.604 123.121  0.00  0.00    +0.277 C 
ENDBRANCH   6  23
BRANCH   1  25
ATOM     25  C   LIG A   1      -6.949   3.450 122.375  0.00  0.00    +0.045 C 
BRANCH  25  26
ATOM     26  C   LIG A   1      -5.537   3.784 121.941  0.00  0.00    -0.033 C 
ATOM     27  C   LIG A   1      -5.186   4.192 120.712  0.00  0.00    +0.004 C 
ENDBRANCH  25  26
ENDBRANCH   1  25
TORSDOF 5
ENDMDL
