MODEL 1
REMARK VINA RESULT:      -9.3      0.000      0.000
REMARK  Name = NuBBE_1966
REMARK  9 active torsions:
REMARK  status: ('A' for Active; 'I' for Inactive)
REMARK    1  A    between atoms: O_1  and  C_2
REMARK    2  A    between atoms: C_4  and  C_29
REMARK    3  A    between atoms: C_6  and  C_22
REMARK    4  A    between atoms: C_11  and  C_13
REMARK    5  A    between atoms: C_14  and  C_15
REMARK    6  A    between atoms: C_18  and  O_21
REMARK    7  A    between atoms: C_25  and  O_28
REMARK    8  A    between atoms: C_31  and  O_32
REMARK    9  A    between atoms: C_34  and  O_36
REMARK                            x       y       z     vdW  Elec       q    Type
REMARK                         _______ _______ _______ _____ _____    ______ ____
ROOT
ATOM      1  C   LIG A   1      -5.723   1.698 125.917  0.00  0.00    +0.125 A 
ATOM      2  C   LIG A   1      -6.584   1.849 124.849  0.00  0.00    +0.047 A 
ATOM      3  C   LIG A   1      -6.626   1.178 123.518  0.00  0.00    +0.101 C 
ATOM      4  C   LIG A   1      -7.627   2.120 122.787  0.00  0.00    +0.215 C 
ATOM      5  O   LIG A   1      -8.393   2.843 123.797  0.00  0.00    -0.483 OA
ATOM      6  C   LIG A   1      -7.639   2.744 124.940  0.00  0.00    +0.129 A 
ATOM      7  C   LIG A   1      -7.892   3.479 126.083  0.00  0.00    +0.054 A 
ATOM      8  C   LIG A   1      -7.033   3.321 127.179  0.00  0.00    -0.018 A 
ATOM      9  C   LIG A   1      -5.945   2.432 127.081  0.00  0.00    +0.054 A 
ENDROOT
BRANCH   4  10
ATOM     10  C   LIG A   1      -6.955   3.098 121.822  0.00  0.00    -0.006 A 
ATOM     11  C   LIG A   1      -7.638   3.529 120.671  0.00  0.00    +0.011 A 
ATOM     12  C   LIG A   1      -7.045   4.429 119.777  0.00  0.00    +0.046 A 
ATOM     13  C   LIG A   1      -5.759   4.896 120.025  0.00  0.00    +0.117 A 
ATOM     14  C   LIG A   1      -5.060   4.477 121.147  0.00  0.00    +0.046 A 
ATOM     15  C   LIG A   1      -5.653   3.583 122.040  0.00  0.00    +0.011 A 
BRANCH  13  16
ATOM     16  O   LIG A   1      -5.140   5.776 119.188  0.00  0.00    -0.507 OA
ATOM     17  H   LIG A   1      -5.751   6.506 118.992  0.00  0.00    +0.292 HD
ENDBRANCH  13  16
ENDBRANCH   4  10
BRANCH   3  18
ATOM     18  C   LIG A   1      -7.088  -0.274 123.597  0.00  0.00    -0.029 A 
ATOM     19  C   LIG A   1      -8.425  -0.660 123.382  0.00  0.00    +0.050 A 
ATOM     20  C   LIG A   1      -8.793  -2.004 123.480  0.00  0.00    +0.121 A 
ATOM     21  C   LIG A   1      -7.859  -2.984 123.792  0.00  0.00    +0.090 A 
ATOM     22  C   LIG A   1      -6.541  -2.606 124.007  0.00  0.00    +0.121 A 
ATOM     23  C   LIG A   1      -6.151  -1.272 123.913  0.00  0.00    +0.050 A 
BRANCH  20  24
ATOM     24  O   LIG A   1     -10.081  -2.407 123.272  0.00  0.00    -0.507 OA
ATOM     25  H   LIG A   1     -10.284  -3.139 123.879  0.00  0.00    +0.292 HD
ENDBRANCH  20  24
BRANCH  22  26
ATOM     26  O   LIG A   1      -5.579  -3.523 124.316  0.00  0.00    -0.507 OA
ATOM     27  H   LIG A   1      -6.013  -4.366 124.527  0.00  0.00    +0.292 HD
ENDBRANCH  22  26
ENDBRANCH   3  18
BRANCH   1  28
ATOM     28  O   LIG A   1      -4.654   0.857 125.901  0.00  0.00    -0.506 OA
ATOM     29  H   LIG A   1      -4.920  -0.007 126.254  0.00  0.00    +0.292 HD
ENDBRANCH   1  28
BRANCH   8  30
ATOM     30  C   LIG A   1      -7.348   4.032 128.428  0.00  0.00    +0.009 C 
ATOM     31  C   LIG A   1      -7.910   3.474 129.508  0.00  0.00    +0.008 C 
BRANCH  31  32
ATOM     32  C   LIG A   1      -8.219   4.215 130.742  0.00  0.00    -0.025 A 
ATOM     33  C   LIG A   1      -8.755   3.579 131.871  0.00  0.00    +0.011 A 
ATOM     34  C   LIG A   1      -9.061   4.305 133.024  0.00  0.00    +0.046 A 
ATOM     35  C   LIG A   1      -8.847   5.677 133.043  0.00  0.00    +0.117 A 
ATOM     36  C   LIG A   1      -8.336   6.332 131.929  0.00  0.00    +0.046 A 
ATOM     37  C   LIG A   1      -8.025   5.602 130.778  0.00  0.00    +0.011 A 
BRANCH  35  38
ATOM     38  O   LIG A   1      -9.138   6.423 134.146  0.00  0.00    -0.507 OA
ATOM     39  H   LIG A   1      -9.932   6.949 133.959  0.00  0.00    +0.292 HD
ENDBRANCH  35  38
ENDBRANCH  31  32
ENDBRANCH   8  30
TORSDOF 9
ENDMDL
MODEL 2
REMARK VINA RESULT:      -9.1      4.134     10.182
REMARK  Name = NuBBE_1966
REMARK  9 active torsions:
REMARK  status: ('A' for Active; 'I' for Inactive)
REMARK    1  A    between atoms: O_1  and  C_2
REMARK    2  A    between atoms: C_4  and  C_29
REMARK    3  A    between atoms: C_6  and  C_22
REMARK    4  A    between atoms: C_11  and  C_13
REMARK    5  A    between atoms: C_14  and  C_15
REMARK    6  A    between atoms: C_18  and  O_21
REMARK    7  A    between atoms: C_25  and  O_28
REMARK    8  A    between atoms: C_31  and  O_32
REMARK    9  A    between atoms: C_34  and  O_36
REMARK                            x       y       z     vdW  Elec       q    Type
REMARK                         _______ _______ _______ _____ _____    ______ ____
ROOT
ATOM      1  C   LIG A   1      -9.371   3.014 131.502  0.00  0.00    +0.125 A 
ATOM      2  C   LIG A   1      -8.992   4.278 131.098  0.00  0.00    +0.047 A 
ATOM      3  C   LIG A   1      -9.064   5.595 131.794  0.00  0.00    +0.101 C 
ATOM      4  C   LIG A   1      -8.789   6.537 130.586  0.00  0.00    +0.215 C 
ATOM      5  O   LIG A   1      -8.129   5.762 129.541  0.00  0.00    -0.483 OA
ATOM      6  C   LIG A   1      -8.416   4.454 129.849  0.00  0.00    +0.129 A 
ATOM      7  C   LIG A   1      -8.168   3.399 128.991  0.00  0.00    +0.054 A 
ATOM      8  C   LIG A   1      -8.534   2.109 129.398  0.00  0.00    -0.018 A 
ATOM      9  C   LIG A   1      -9.144   1.930 130.654  0.00  0.00    +0.054 A 
ENDROOT
BRANCH   4  10
ATOM     10  C   LIG A   1     -10.047   7.215 130.038  0.00  0.00    -0.006 A 
ATOM     11  C   LIG A   1     -11.263   7.107 130.737  0.00  0.00    +0.011 A 
ATOM     12  C   LIG A   1     -12.424   7.725 130.258  0.00  0.00    +0.046 A 
ATOM     13  C   LIG A   1     -12.378   8.446 129.070  0.00  0.00    +0.117 A 
ATOM     14  C   LIG A   1     -11.194   8.557 128.356  0.00  0.00    +0.046 A 
ATOM     15  C   LIG A   1     -10.035   7.945 128.837  0.00  0.00    +0.011 A 
BRANCH  13  16
ATOM     16  O   LIG A   1     -13.480   9.070 128.564  0.00  0.00    -0.507 OA
ATOM     17  H   LIG A   1     -13.583   8.816 127.631  0.00  0.00    +0.292 HD
ENDBRANCH  13  16
ENDBRANCH   4  10
BRANCH   3  18
ATOM     18  C   LIG A   1      -8.050   5.726 132.925  0.00  0.00    -0.029 A 
ATOM     19  C   LIG A   1      -6.660   5.759 132.702  0.00  0.00    +0.050 A 
ATOM     20  C   LIG A   1      -5.777   5.869 133.779  0.00  0.00    +0.121 A 
ATOM     21  C   LIG A   1      -6.242   5.944 135.085  0.00  0.00    +0.090 A 
ATOM     22  C   LIG A   1      -7.612   5.910 135.309  0.00  0.00    +0.121 A 
ATOM     23  C   LIG A   1      -8.510   5.802 134.250  0.00  0.00    +0.050 A 
BRANCH  20  24
ATOM     24  O   LIG A   1      -4.425   5.907 133.590  0.00  0.00    -0.507 OA
ATOM     25  H   LIG A   1      -4.151   5.106 133.112  0.00  0.00    +0.292 HD
ENDBRANCH  20  24
BRANCH  22  26
ATOM     26  O   LIG A   1      -8.129   5.980 136.569  0.00  0.00    -0.507 OA
ATOM     27  H   LIG A   1      -8.884   5.371 136.627  0.00  0.00    +0.292 HD
ENDBRANCH  22  26
ENDBRANCH   3  18
BRANCH   1  28
ATOM     28  O   LIG A   1      -9.960   2.759 132.701  0.00  0.00    -0.506 OA
ATOM     29  H   LIG A   1     -10.839   3.169 132.721  0.00  0.00    +0.292 HD
ENDBRANCH   1  28
BRANCH   8  30
ATOM     30  C   LIG A   1      -8.193   0.974 128.528  0.00  0.00    +0.009 C 
ATOM     31  C   LIG A   1      -8.326   0.961 127.195  0.00  0.00    +0.008 C 
BRANCH  31  32
ATOM     32  C   LIG A   1      -7.980  -0.195 126.351  0.00  0.00    -0.025 A 
ATOM     33  C   LIG A   1      -8.949  -1.116 125.928  0.00  0.00    +0.011 A 
ATOM     34  C   LIG A   1      -8.595  -2.218 125.146  0.00  0.00    +0.046 A 
ATOM     35  C   LIG A   1      -7.264  -2.410 124.800  0.00  0.00    +0.117 A 
ATOM     36  C   LIG A   1      -6.284  -1.521 125.225  0.00  0.00    +0.046 A 
ATOM     37  C   LIG A   1      -6.641  -0.416 126.003  0.00  0.00    +0.011 A 
BRANCH  35  38
ATOM     38  O   LIG A   1      -6.876  -3.475 124.043  0.00  0.00    -0.507 OA
ATOM     39  H   LIG A   1      -6.854  -4.262 124.611  0.00  0.00    +0.292 HD
ENDBRANCH  35  38
ENDBRANCH  31  32
ENDBRANCH   8  30
TORSDOF 9
ENDMDL
MODEL 3
REMARK VINA RESULT:      -9.0      2.651      8.732
REMARK  Name = NuBBE_1966
REMARK  9 active torsions:
REMARK  status: ('A' for Active; 'I' for Inactive)
REMARK    1  A    between atoms: O_1  and  C_2
REMARK    2  A    between atoms: C_4  and  C_29
REMARK    3  A    between atoms: C_6  and  C_22
REMARK    4  A    between atoms: C_11  and  C_13
REMARK    5  A    between atoms: C_14  and  C_15
REMARK    6  A    between atoms: C_18  and  O_21
REMARK    7  A    between atoms: C_25  and  O_28
REMARK    8  A    between atoms: C_31  and  O_32
REMARK    9  A    between atoms: C_34  and  O_36
REMARK                            x       y       z     vdW  Elec       q    Type
REMARK                         _______ _______ _______ _____ _____    ______ ____
ROOT
ATOM      1  C   LIG A   1      -8.372   1.155 126.040  0.00  0.00    +0.125 A 
ATOM      2  C   LIG A   1      -7.755   1.553 127.209  0.00  0.00    +0.047 A 
ATOM      3  C   LIG A   1      -7.824   1.002 128.593  0.00  0.00    +0.101 C 
ATOM      4  C   LIG A   1      -7.159   2.176 129.369  0.00  0.00    +0.215 C 
ATOM      5  O   LIG A   1      -6.374   2.963 128.423  0.00  0.00    -0.483 OA
ATOM      6  C   LIG A   1      -6.885   2.632 127.192  0.00  0.00    +0.129 A 
ATOM      7  C   LIG A   1      -6.575   3.317 126.032  0.00  0.00    +0.054 A 
ATOM      8  C   LIG A   1      -7.184   2.911 124.836  0.00  0.00    -0.018 A 
ATOM      9  C   LIG A   1      -8.089   1.833 124.854  0.00  0.00    +0.054 A 
ENDROOT
BRANCH   4  10
ATOM     10  C   LIG A   1      -8.159   3.068 130.108  0.00  0.00    -0.006 A 
ATOM     11  C   LIG A   1      -7.699   4.159 130.866  0.00  0.00    +0.011 A 
ATOM     12  C   LIG A   1      -8.597   4.992 131.545  0.00  0.00    +0.046 A 
ATOM     13  C   LIG A   1      -9.961   4.732 131.476  0.00  0.00    +0.117 A 
ATOM     14  C   LIG A   1     -10.439   3.655 130.744  0.00  0.00    +0.046 A 
ATOM     15  C   LIG A   1      -9.544   2.827 130.064  0.00  0.00    +0.011 A 
BRANCH  13  16
ATOM     16  O   LIG A   1     -10.876   5.516 132.115  0.00  0.00    -0.507 OA
ATOM     17  H   LIG A   1     -11.039   5.149 132.999  0.00  0.00    +0.292 HD
ENDBRANCH  13  16
ENDBRANCH   4  10
BRANCH   3  18
ATOM     18  C   LIG A   1      -7.096  -0.330 128.741  0.00  0.00    -0.029 A 
ATOM     19  C   LIG A   1      -5.699  -0.420 128.895  0.00  0.00    +0.050 A 
ATOM     20  C   LIG A   1      -5.084  -1.669 129.015  0.00  0.00    +0.121 A 
ATOM     21  C   LIG A   1      -5.827  -2.842 128.981  0.00  0.00    +0.090 A 
ATOM     22  C   LIG A   1      -7.204  -2.756 128.826  0.00  0.00    +0.121 A 
ATOM     23  C   LIG A   1      -7.838  -1.521 128.708  0.00  0.00    +0.050 A 
BRANCH  20  24
ATOM     24  O   LIG A   1      -3.733  -1.785 129.169  0.00  0.00    -0.507 OA
ATOM     25  H   LIG A   1      -3.477  -1.382 130.016  0.00  0.00    +0.292 HD
ENDBRANCH  20  24
BRANCH  22  26
ATOM     26  O   LIG A   1      -7.986  -3.872 128.786  0.00  0.00    -0.507 OA
ATOM     27  H   LIG A   1      -8.898  -3.604 128.583  0.00  0.00    +0.292 HD
ENDBRANCH  22  26
ENDBRANCH   3  18
BRANCH   1  28
ATOM     28  O   LIG A   1      -9.254   0.121 125.976  0.00  0.00    -0.506 OA
ATOM     29  H   LIG A   1     -10.028   0.390 125.456  0.00  0.00    +0.292 HD
ENDBRANCH   1  28
BRANCH   8  30
ATOM     30  C   LIG A   1      -6.792   3.578 123.586  0.00  0.00    +0.009 C 
ATOM     31  C   LIG A   1      -7.151   3.180 122.358  0.00  0.00    +0.008 C 
BRANCH  31  32
ATOM     32  C   LIG A   1      -6.737   3.866 121.123  0.00  0.00    -0.025 A 
ATOM     33  C   LIG A   1      -5.480   4.477 121.003  0.00  0.00    +0.011 A 
ATOM     34  C   LIG A   1      -5.117   5.142 119.830  0.00  0.00    +0.046 A 
ATOM     35  C   LIG A   1      -6.021   5.212 118.778  0.00  0.00    +0.117 A 
ATOM     36  C   LIG A   1      -7.279   4.632 118.881  0.00  0.00    +0.046 A 
ATOM     37  C   LIG A   1      -7.638   3.962 120.054  0.00  0.00    +0.011 A 
BRANCH  35  38
ATOM     38  O   LIG A   1      -5.707   5.856 117.618  0.00  0.00    -0.507 OA
ATOM     39  H   LIG A   1      -5.260   6.689 117.841  0.00  0.00    +0.292 HD
ENDBRANCH  35  38
ENDBRANCH  31  32
ENDBRANCH   8  30
TORSDOF 9
ENDMDL
MODEL 4
REMARK VINA RESULT:      -8.9      6.550     10.474
REMARK  Name = NuBBE_1966
REMARK  9 active torsions:
REMARK  status: ('A' for Active; 'I' for Inactive)
REMARK    1  A    between atoms: O_1  and  C_2
REMARK    2  A    between atoms: C_4  and  C_29
REMARK    3  A    between atoms: C_6  and  C_22
REMARK    4  A    between atoms: C_11  and  C_13
REMARK    5  A    between atoms: C_14  and  C_15
REMARK    6  A    between atoms: C_18  and  O_21
REMARK    7  A    between atoms: C_25  and  O_28
REMARK    8  A    between atoms: C_31  and  O_32
REMARK    9  A    between atoms: C_34  and  O_36
REMARK                            x       y       z     vdW  Elec       q    Type
REMARK                         _______ _______ _______ _____ _____    ______ ____
ROOT
ATOM      1  C   LIG A   1      -3.630   6.506 133.252  0.00  0.00    +0.125 A 
ATOM      2  C   LIG A   1      -4.219   6.449 132.005  0.00  0.00    +0.047 A 
ATOM      3  C   LIG A   1      -5.179   5.472 131.415  0.00  0.00    +0.101 C 
ATOM      4  C   LIG A   1      -5.078   5.886 129.918  0.00  0.00    +0.215 C 
ATOM      5  O   LIG A   1      -4.550   7.245 129.854  0.00  0.00    -0.483 OA
ATOM      6  C   LIG A   1      -3.947   7.439 131.073  0.00  0.00    +0.129 A 
ATOM      7  C   LIG A   1      -3.128   8.516 131.353  0.00  0.00    +0.054 A 
ATOM      8  C   LIG A   1      -2.538   8.593 132.622  0.00  0.00    -0.018 A 
ATOM      9  C   LIG A   1      -2.791   7.575 133.562  0.00  0.00    +0.054 A 
ENDROOT
BRANCH   4  10
ATOM     10  C   LIG A   1      -4.221   4.938 129.076  0.00  0.00    -0.006 A 
ATOM     11  C   LIG A   1      -4.259   3.554 129.320  0.00  0.00    +0.011 A 
ATOM     12  C   LIG A   1      -3.489   2.668 128.558  0.00  0.00    +0.046 A 
ATOM     13  C   LIG A   1      -2.669   3.163 127.550  0.00  0.00    +0.117 A 
ATOM     14  C   LIG A   1      -2.605   4.525 127.297  0.00  0.00    +0.046 A 
ATOM     15  C   LIG A   1      -3.376   5.408 128.055  0.00  0.00    +0.011 A 
BRANCH  13  16
ATOM     16  O   LIG A   1      -1.904   2.341 126.776  0.00  0.00    -0.507 OA
ATOM     17  H   LIG A   1      -1.103   2.821 126.507  0.00  0.00    +0.292 HD
ENDBRANCH  13  16
ENDBRANCH   4  10
BRANCH   3  18
ATOM     18  C   LIG A   1      -6.583   5.591 131.997  0.00  0.00    -0.029 A 
ATOM     19  C   LIG A   1      -6.952   5.000 133.221  0.00  0.00    +0.050 A 
ATOM     20  C   LIG A   1      -8.258   5.132 133.700  0.00  0.00    +0.121 A 
ATOM     21  C   LIG A   1      -9.217   5.841 132.988  0.00  0.00    +0.090 A 
ATOM     22  C   LIG A   1      -8.856   6.424 131.781  0.00  0.00    +0.121 A 
ATOM     23  C   LIG A   1      -7.560   6.306 131.285  0.00  0.00    +0.050 A 
BRANCH  20  24
ATOM     24  O   LIG A   1      -8.641   4.572 134.885  0.00  0.00    -0.507 OA
ATOM     25  H   LIG A   1      -8.999   5.268 135.461  0.00  0.00    +0.292 HD
ENDBRANCH  20  24
BRANCH  22  26
ATOM     26  O   LIG A   1      -9.753   7.133 131.037  0.00  0.00    -0.507 OA
ATOM     27  H   LIG A   1      -9.797   6.739 130.149  0.00  0.00    +0.292 HD
ENDBRANCH  22  26
ENDBRANCH   3  18
BRANCH   1  28
ATOM     28  O   LIG A   1      -3.828   5.565 134.214  0.00  0.00    -0.506 OA
ATOM     29  H   LIG A   1      -4.340   5.953 134.942  0.00  0.00    +0.292 HD
ENDBRANCH   1  28
BRANCH   8  30
ATOM     30  C   LIG A   1      -1.738   9.781 132.955  0.00  0.00    +0.009 C 
ATOM     31  C   LIG A   1      -0.441   9.764 133.287  0.00  0.00    +0.008 C 
BRANCH  31  32
ATOM     32  C   LIG A   1       0.333  10.971 133.622  0.00  0.00    -0.025 A 
ATOM     33  C   LIG A   1       0.735  11.251 134.936  0.00  0.00    +0.011 A 
ATOM     34  C   LIG A   1       1.448  12.413 135.234  0.00  0.00    +0.046 A 
ATOM     35  C   LIG A   1       1.746  13.310 134.217  0.00  0.00    +0.117 A 
ATOM     36  C   LIG A   1       1.340  13.065 132.911  0.00  0.00    +0.046 A 
ATOM     37  C   LIG A   1       0.631  11.898 132.613  0.00  0.00    +0.011 A 
BRANCH  35  38
ATOM     38  O   LIG A   1       2.436  14.459 134.466  0.00  0.00    -0.507 OA
ATOM     39  H   LIG A   1       2.465  14.983 133.649  0.00  0.00    +0.292 HD
ENDBRANCH  35  38
ENDBRANCH  31  32
ENDBRANCH   8  30
TORSDOF 9
ENDMDL
MODEL 5
REMARK VINA RESULT:      -8.9      3.191      6.243
REMARK  Name = NuBBE_1966
REMARK  9 active torsions:
REMARK  status: ('A' for Active; 'I' for Inactive)
REMARK    1  A    between atoms: O_1  and  C_2
REMARK    2  A    between atoms: C_4  and  C_29
REMARK    3  A    between atoms: C_6  and  C_22
REMARK    4  A    between atoms: C_11  and  C_13
REMARK    5  A    between atoms: C_14  and  C_15
REMARK    6  A    between atoms: C_18  and  O_21
REMARK    7  A    between atoms: C_25  and  O_28
REMARK    8  A    between atoms: C_31  and  O_32
REMARK    9  A    between atoms: C_34  and  O_36
REMARK                            x       y       z     vdW  Elec       q    Type
REMARK                         _______ _______ _______ _____ _____    ______ ____
ROOT
ATOM      1  C   LIG A   1      -7.868   3.936 125.614  0.00  0.00    +0.125 A 
ATOM      2  C   LIG A   1      -7.414   2.803 124.971  0.00  0.00    +0.047 A 
ATOM      3  C   LIG A   1      -7.912   2.097 123.755  0.00  0.00    +0.101 C 
ATOM      4  C   LIG A   1      -7.116   0.766 123.889  0.00  0.00    +0.215 C 
ATOM      5  O   LIG A   1      -5.969   1.004 124.758  0.00  0.00    -0.483 OA
ATOM      6  C   LIG A   1      -6.292   2.145 125.451  0.00  0.00    +0.129 A 
ATOM      7  C   LIG A   1      -5.576   2.599 126.542  0.00  0.00    +0.054 A 
ATOM      8  C   LIG A   1      -6.019   3.758 127.194  0.00  0.00    -0.018 A 
ATOM      9  C   LIG A   1      -7.174   4.414 126.725  0.00  0.00    +0.054 A 
ENDROOT
BRANCH   4  10
ATOM     10  C   LIG A   1      -7.956  -0.400 124.415  0.00  0.00    -0.006 A 
ATOM     11  C   LIG A   1      -8.486  -1.344 123.518  0.00  0.00    +0.011 A 
ATOM     12  C   LIG A   1      -9.251  -2.423 123.979  0.00  0.00    +0.046 A 
ATOM     13  C   LIG A   1      -9.497  -2.558 125.341  0.00  0.00    +0.117 A 
ATOM     14  C   LIG A   1      -8.995  -1.633 126.244  0.00  0.00    +0.046 A 
ATOM     15  C   LIG A   1      -8.230  -0.560 125.785  0.00  0.00    +0.011 A 
BRANCH  13  16
ATOM     16  O   LIG A   1     -10.232  -3.592 125.840  0.00  0.00    -0.507 OA
ATOM     17  H   LIG A   1      -9.627  -4.268 126.186  0.00  0.00    +0.292 HD
ENDBRANCH  13  16
ENDBRANCH   4  10
BRANCH   3  18
ATOM     18  C   LIG A   1      -7.630   2.861 122.466  0.00  0.00    -0.029 A 
ATOM     19  C   LIG A   1      -6.346   3.325 122.121  0.00  0.00    +0.050 A 
ATOM     20  C   LIG A   1      -6.148   4.030 120.931  0.00  0.00    +0.121 A 
ATOM     21  C   LIG A   1      -7.204   4.292 120.067  0.00  0.00    +0.090 A 
ATOM     22  C   LIG A   1      -8.471   3.837 120.405  0.00  0.00    +0.121 A 
ATOM     23  C   LIG A   1      -8.690   3.131 121.586  0.00  0.00    +0.050 A 
BRANCH  20  24
ATOM     24  O   LIG A   1      -4.913   4.487 120.572  0.00  0.00    -0.507 OA
ATOM     25  H   LIG A   1      -4.977   5.434 120.361  0.00  0.00    +0.292 HD
ENDBRANCH  20  24
BRANCH  22  26
ATOM     26  O   LIG A   1      -9.546   4.063 119.597  0.00  0.00    -0.507 OA
ATOM     27  H   LIG A   1      -9.955   4.906 119.856  0.00  0.00    +0.292 HD
ENDBRANCH  22  26
ENDBRANCH   3  18
BRANCH   1  28
ATOM     28  O   LIG A   1      -8.971   4.627 125.220  0.00  0.00    -0.506 OA
ATOM     29  H   LIG A   1      -8.698   5.391 124.686  0.00  0.00    +0.292 HD
ENDBRANCH   1  28
BRANCH   8  30
ATOM     30  C   LIG A   1      -5.213   4.296 128.300  0.00  0.00    +0.009 C 
ATOM     31  C   LIG A   1      -3.873   4.304 128.339  0.00  0.00    +0.008 C 
BRANCH  31  32
ATOM     32  C   LIG A   1      -3.093   4.845 129.465  0.00  0.00    -0.025 A 
ATOM     33  C   LIG A   1      -3.137   4.265 130.741  0.00  0.00    +0.011 A 
ATOM     34  C   LIG A   1      -2.406   4.809 131.799  0.00  0.00    +0.046 A 
ATOM     35  C   LIG A   1      -1.641   5.947 131.586  0.00  0.00    +0.117 A 
ATOM     36  C   LIG A   1      -1.598   6.551 130.335  0.00  0.00    +0.046 A 
ATOM     37  C   LIG A   1      -2.326   6.002 129.275  0.00  0.00    +0.011 A 
BRANCH  35  38
ATOM     38  O   LIG A   1      -0.917   6.512 132.593  0.00  0.00    -0.507 OA
ATOM     39  H   LIG A   1      -0.953   7.477 132.493  0.00  0.00    +0.292 HD
ENDBRANCH  35  38
ENDBRANCH  31  32
ENDBRANCH   8  30
TORSDOF 9
ENDMDL
MODEL 6
REMARK VINA RESULT:      -8.9      3.007      3.568
REMARK  Name = NuBBE_1966
REMARK  9 active torsions:
REMARK  status: ('A' for Active; 'I' for Inactive)
REMARK    1  A    between atoms: O_1  and  C_2
REMARK    2  A    between atoms: C_4  and  C_29
REMARK    3  A    between atoms: C_6  and  C_22
REMARK    4  A    between atoms: C_11  and  C_13
REMARK    5  A    between atoms: C_14  and  C_15
REMARK    6  A    between atoms: C_18  and  O_21
REMARK    7  A    between atoms: C_25  and  O_28
REMARK    8  A    between atoms: C_31  and  O_32
REMARK    9  A    between atoms: C_34  and  O_36
REMARK                            x       y       z     vdW  Elec       q    Type
REMARK                         _______ _______ _______ _____ _____    ______ ____
ROOT
ATOM      1  C   LIG A   1      -5.164   1.542 126.119  0.00  0.00    +0.125 A 
ATOM      2  C   LIG A   1      -6.362   1.813 125.491  0.00  0.00    +0.047 A 
ATOM      3  C   LIG A   1      -7.128   1.050 124.464  0.00  0.00    +0.101 C 
ATOM      4  C   LIG A   1      -8.140   2.150 124.029  0.00  0.00    +0.215 C 
ATOM      5  O   LIG A   1      -8.212   3.149 125.090  0.00  0.00    -0.483 OA
ATOM      6  C   LIG A   1      -7.062   2.964 125.817  0.00  0.00    +0.129 A 
ATOM      7  C   LIG A   1      -6.624   3.849 126.785  0.00  0.00    +0.054 A 
ATOM      8  C   LIG A   1      -5.416   3.575 127.441  0.00  0.00    -0.018 A 
ATOM      9  C   LIG A   1      -4.689   2.420 127.092  0.00  0.00    +0.054 A 
ENDROOT
BRANCH   4  10
ATOM     10  C   LIG A   1      -7.791   2.810 122.693  0.00  0.00    -0.006 A 
ATOM     11  C   LIG A   1      -6.446   3.039 122.353  0.00  0.00    +0.011 A 
ATOM     12  C   LIG A   1      -6.104   3.634 121.134  0.00  0.00    +0.046 A 
ATOM     13  C   LIG A   1      -7.109   4.013 120.249  0.00  0.00    +0.117 A 
ATOM     14  C   LIG A   1      -8.443   3.809 120.567  0.00  0.00    +0.046 A 
ATOM     15  C   LIG A   1      -8.783   3.212 121.781  0.00  0.00    +0.011 A 
BRANCH  13  16
ATOM     16  O   LIG A   1      -6.828   4.593 119.047  0.00  0.00    -0.507 OA
ATOM     17  H   LIG A   1      -6.568   3.900 118.418  0.00  0.00    +0.292 HD
ENDBRANCH  13  16
ENDBRANCH   4  10
BRANCH   3  18
ATOM     18  C   LIG A   1      -7.784  -0.208 125.024  0.00  0.00    -0.029 A 
ATOM     19  C   LIG A   1      -7.627  -0.617 126.363  0.00  0.00    +0.050 A 
ATOM     20  C   LIG A   1      -8.242  -1.786 126.818  0.00  0.00    +0.121 A 
ATOM     21  C   LIG A   1      -9.015  -2.569 125.970  0.00  0.00    +0.090 A 
ATOM     22  C   LIG A   1      -9.170  -2.169 124.649  0.00  0.00    +0.121 A 
ATOM     23  C   LIG A   1      -8.567  -1.007 124.175  0.00  0.00    +0.050 A 
BRANCH  20  24
ATOM     24  O   LIG A   1      -8.109  -2.203 128.111  0.00  0.00    -0.507 OA
ATOM     25  H   LIG A   1      -7.773  -1.465 128.647  0.00  0.00    +0.292 HD
ENDBRANCH  20  24
BRANCH  22  26
ATOM     26  O   LIG A   1      -9.916  -2.896 123.769  0.00  0.00    -0.507 OA
ATOM     27  H   LIG A   1     -10.002  -3.802 124.112  0.00  0.00    +0.292 HD
ENDBRANCH  22  26
ENDBRANCH   3  18
BRANCH   1  28
ATOM     28  O   LIG A   1      -4.407   0.446 125.842  0.00  0.00    -0.506 OA
ATOM     29  H   LIG A   1      -4.111   0.041 126.672  0.00  0.00    +0.292 HD
ENDBRANCH   1  28
BRANCH   8  30
ATOM     30  C   LIG A   1      -4.990   4.464 128.531  0.00  0.00    +0.009 C 
ATOM     31  C   LIG A   1      -3.887   5.224 128.515  0.00  0.00    +0.008 C 
BRANCH  31  32
ATOM     32  C   LIG A   1      -3.484   6.102 129.627  0.00  0.00    -0.025 A 
ATOM     33  C   LIG A   1      -2.592   5.673 130.621  0.00  0.00    +0.011 A 
ATOM     34  C   LIG A   1      -2.241   6.514 131.679  0.00  0.00    +0.046 A 
ATOM     35  C   LIG A   1      -2.797   7.784 131.753  0.00  0.00    +0.117 A 
ATOM     36  C   LIG A   1      -3.699   8.224 130.792  0.00  0.00    +0.046 A 
ATOM     37  C   LIG A   1      -4.044   7.382 129.731  0.00  0.00    +0.011 A 
BRANCH  35  38
ATOM     38  O   LIG A   1      -2.485   8.634 132.772  0.00  0.00    -0.507 OA
ATOM     39  H   LIG A   1      -2.421   9.534 132.412  0.00  0.00    +0.292 HD
ENDBRANCH  35  38
ENDBRANCH  31  32
ENDBRANCH   8  30
TORSDOF 9
ENDMDL
MODEL 7
REMARK VINA RESULT:      -8.7      3.454      8.872
REMARK  Name = NuBBE_1966
REMARK  9 active torsions:
REMARK  status: ('A' for Active; 'I' for Inactive)
REMARK    1  A    between atoms: O_1  and  C_2
REMARK    2  A    between atoms: C_4  and  C_29
REMARK    3  A    between atoms: C_6  and  C_22
REMARK    4  A    between atoms: C_11  and  C_13
REMARK    5  A    between atoms: C_14  and  C_15
REMARK    6  A    between atoms: C_18  and  O_21
REMARK    7  A    between atoms: C_25  and  O_28
REMARK    8  A    between atoms: C_31  and  O_32
REMARK    9  A    between atoms: C_34  and  O_36
REMARK                            x       y       z     vdW  Elec       q    Type
REMARK                         _______ _______ _______ _____ _____    ______ ____
ROOT
ATOM      1  C   LIG A   1      -7.780  -0.820 127.149  0.00  0.00    +0.125 A 
ATOM      2  C   LIG A   1      -7.063  -0.157 128.124  0.00  0.00    +0.047 A 
ATOM      3  C   LIG A   1      -6.785  -0.505 129.547  0.00  0.00    +0.101 C 
ATOM      4  C   LIG A   1      -6.242   0.866 130.044  0.00  0.00    +0.215 C 
ATOM      5  O   LIG A   1      -5.800   1.631 128.883  0.00  0.00    -0.483 OA
ATOM      6  C   LIG A   1      -6.438   1.042 127.819  0.00  0.00    +0.129 A 
ATOM      7  C   LIG A   1      -6.471   1.595 126.552  0.00  0.00    +0.054 A 
ATOM      8  C   LIG A   1      -7.183   0.922 125.550  0.00  0.00    -0.018 A 
ATOM      9  C   LIG A   1      -7.842  -0.283 125.863  0.00  0.00    +0.054 A 
ENDROOT
BRANCH   4  10
ATOM     10  C   LIG A   1      -7.257   1.669 130.861  0.00  0.00    -0.006 A 
ATOM     11  C   LIG A   1      -8.327   1.011 131.492  0.00  0.00    +0.011 A 
ATOM     12  C   LIG A   1      -9.263   1.725 132.249  0.00  0.00    +0.046 A 
ATOM     13  C   LIG A   1      -9.139   3.105 132.372  0.00  0.00    +0.117 A 
ATOM     14  C   LIG A   1      -8.098   3.778 131.750  0.00  0.00    +0.046 A 
ATOM     15  C   LIG A   1      -7.163   3.065 130.998  0.00  0.00    +0.011 A 
BRANCH  13  16
ATOM     16  O   LIG A   1     -10.022   3.844 133.102  0.00  0.00    -0.507 OA
ATOM     17  H   LIG A   1      -9.861   4.786 132.928  0.00  0.00    +0.292 HD
ENDBRANCH  13  16
ENDBRANCH   4  10
BRANCH   3  18
ATOM     18  C   LIG A   1      -5.795  -1.655 129.696  0.00  0.00    -0.029 A 
ATOM     19  C   LIG A   1      -4.409  -1.496 129.505  0.00  0.00    +0.050 A 
ATOM     20  C   LIG A   1      -3.550  -2.589 129.644  0.00  0.00    +0.121 A 
ATOM     21  C   LIG A   1      -4.036  -3.849 129.968  0.00  0.00    +0.090 A 
ATOM     22  C   LIG A   1      -5.403  -4.009 130.155  0.00  0.00    +0.121 A 
ATOM     23  C   LIG A   1      -6.277  -2.933 130.023  0.00  0.00    +0.050 A 
BRANCH  20  24
ATOM     24  O   LIG A   1      -2.202  -2.461 129.468  0.00  0.00    -0.507 OA
ATOM     25  H   LIG A   1      -1.946  -2.923 128.651  0.00  0.00    +0.292 HD
ENDBRANCH  20  24
BRANCH  22  26
ATOM     26  O   LIG A   1      -5.939  -5.222 130.474  0.00  0.00    -0.507 OA
ATOM     27  H   LIG A   1      -5.849  -5.357 131.433  0.00  0.00    +0.292 HD
ENDBRANCH  22  26
ENDBRANCH   3  18
BRANCH   1  28
ATOM     28  O   LIG A   1      -8.439  -1.989 127.371  0.00  0.00    -0.506 OA
ATOM     29  H   LIG A   1      -8.189  -2.338 128.242  0.00  0.00    +0.292 HD
ENDBRANCH   1  28
BRANCH   8  30
ATOM     30  C   LIG A   1      -7.148   1.458 124.181  0.00  0.00    +0.009 C 
ATOM     31  C   LIG A   1      -7.460   2.716 123.842  0.00  0.00    +0.008 C 
BRANCH  31  32
ATOM     32  C   LIG A   1      -7.422   3.222 122.460  0.00  0.00    -0.025 A 
ATOM     33  C   LIG A   1      -8.589   3.393 121.702  0.00  0.00    +0.011 A 
ATOM     34  C   LIG A   1      -8.527   3.854 120.385  0.00  0.00    +0.046 A 
ATOM     35  C   LIG A   1      -7.291   4.128 119.817  0.00  0.00    +0.117 A 
ATOM     36  C   LIG A   1      -6.119   3.946 120.540  0.00  0.00    +0.046 A 
ATOM     37  C   LIG A   1      -6.184   3.491 121.861  0.00  0.00    +0.011 A 
BRANCH  35  38
ATOM     38  O   LIG A   1      -7.186   4.574 118.533  0.00  0.00    -0.507 OA
ATOM     39  H   LIG A   1      -7.425   5.515 118.515  0.00  0.00    +0.292 HD
ENDBRANCH  35  38
ENDBRANCH  31  32
ENDBRANCH   8  30
TORSDOF 9
ENDMDL
MODEL 8
REMARK VINA RESULT:      -8.6      4.797      9.237
REMARK  Name = NuBBE_1966
REMARK  9 active torsions:
REMARK  status: ('A' for Active; 'I' for Inactive)
REMARK    1  A    between atoms: O_1  and  C_2
REMARK    2  A    between atoms: C_4  and  C_29
REMARK    3  A    between atoms: C_6  and  C_22
REMARK    4  A    between atoms: C_11  and  C_13
REMARK    5  A    between atoms: C_14  and  C_15
REMARK    6  A    between atoms: C_18  and  O_21
REMARK    7  A    between atoms: C_25  and  O_28
REMARK    8  A    between atoms: C_31  and  O_32
REMARK    9  A    between atoms: C_34  and  O_36
REMARK                            x       y       z     vdW  Elec       q    Type
REMARK                         _______ _______ _______ _____ _____    ______ ____
ROOT
ATOM      1  C   LIG A   1      -7.961   5.559 132.607  0.00  0.00    +0.125 A 
ATOM      2  C   LIG A   1      -8.072   5.322 131.252  0.00  0.00    +0.047 A 
ATOM      3  C   LIG A   1      -9.228   4.872 130.425  0.00  0.00    +0.101 C 
ATOM      4  C   LIG A   1      -8.477   4.513 129.110  0.00  0.00    +0.215 C 
ATOM      5  O   LIG A   1      -7.195   5.210 129.110  0.00  0.00    -0.483 OA
ATOM      6  C   LIG A   1      -6.977   5.528 130.428  0.00  0.00    +0.129 A 
ATOM      7  C   LIG A   1      -5.769   6.002 130.905  0.00  0.00    +0.054 A 
ATOM      8  C   LIG A   1      -5.650   6.261 132.277  0.00  0.00    -0.018 A 
ATOM      9  C   LIG A   1      -6.752   6.027 133.121  0.00  0.00    +0.054 A 
ENDROOT
BRANCH   4  10
ATOM     10  C   LIG A   1      -8.270   3.010 128.912  0.00  0.00    -0.006 A 
ATOM     11  C   LIG A   1      -7.966   2.505 127.635  0.00  0.00    +0.011 A 
ATOM     12  C   LIG A   1      -7.765   1.135 127.433  0.00  0.00    +0.046 A 
ATOM     13  C   LIG A   1      -7.878   0.258 128.507  0.00  0.00    +0.117 A 
ATOM     14  C   LIG A   1      -8.189   0.730 129.774  0.00  0.00    +0.046 A 
ATOM     15  C   LIG A   1      -8.385   2.097 129.975  0.00  0.00    +0.011 A 
BRANCH  13  16
ATOM     16  O   LIG A   1      -7.688  -1.084 128.363  0.00  0.00    -0.507 OA
ATOM     17  H   LIG A   1      -8.308  -1.553 128.946  0.00  0.00    +0.292 HD
ENDBRANCH  13  16
ENDBRANCH   4  10
BRANCH   3  18
ATOM     18  C   LIG A   1     -10.294   5.949 130.256  0.00  0.00    -0.029 A 
ATOM     19  C   LIG A   1     -11.425   6.039 131.090  0.00  0.00    +0.050 A 
ATOM     20  C   LIG A   1     -12.376   7.040 130.881  0.00  0.00    +0.121 A 
ATOM     21  C   LIG A   1     -12.234   7.962 129.852  0.00  0.00    +0.090 A 
ATOM     22  C   LIG A   1     -11.122   7.875 129.026  0.00  0.00    +0.121 A 
ATOM     23  C   LIG A   1     -10.160   6.886 129.218  0.00  0.00    +0.050 A 
BRANCH  20  24
ATOM     24  O   LIG A   1     -13.479   7.152 131.678  0.00  0.00    -0.507 OA
ATOM     25  H   LIG A   1     -14.267   7.241 131.115  0.00  0.00    +0.292 HD
ENDBRANCH  20  24
BRANCH  22  26
ATOM     26  O   LIG A   1     -10.928   8.752 128.000  0.00  0.00    -0.507 OA
ATOM     27  H   LIG A   1     -10.184   9.334 128.228  0.00  0.00    +0.292 HD
ENDBRANCH  22  26
ENDBRANCH   3  18
BRANCH   1  28
ATOM     28  O   LIG A   1      -8.981   5.362 133.486  0.00  0.00    -0.506 OA
ATOM     29  H   LIG A   1      -9.575   6.129 133.466  0.00  0.00    +0.292 HD
ENDBRANCH   1  28
BRANCH   8  30
ATOM     30  C   LIG A   1      -4.397   6.848 132.776  0.00  0.00    +0.009 C 
ATOM     31  C   LIG A   1      -3.504   7.506 132.024  0.00  0.00    +0.008 C 
BRANCH  31  32
ATOM     32  C   LIG A   1      -2.255   8.078 132.552  0.00  0.00    -0.025 A 
ATOM     33  C   LIG A   1      -1.098   7.303 132.714  0.00  0.00    +0.011 A 
ATOM     34  C   LIG A   1       0.070   7.861 133.239  0.00  0.00    +0.046 A 
ATOM     35  C   LIG A   1       0.076   9.197 133.619  0.00  0.00    +0.117 A 
ATOM     36  C   LIG A   1      -1.064   9.979 133.487  0.00  0.00    +0.046 A 
ATOM     37  C   LIG A   1      -2.230   9.420 132.957  0.00  0.00    +0.011 A 
BRANCH  35  38
ATOM     38  O   LIG A   1       1.193   9.778 134.140  0.00  0.00    -0.507 OA
ATOM     39  H   LIG A   1       1.305  10.651 133.728  0.00  0.00    +0.292 HD
ENDBRANCH  35  38
ENDBRANCH  31  32
ENDBRANCH   8  30
TORSDOF 9
ENDMDL
MODEL 9
REMARK VINA RESULT:      -8.5      4.127     10.815
REMARK  Name = NuBBE_1966
REMARK  9 active torsions:
REMARK  status: ('A' for Active; 'I' for Inactive)
REMARK    1  A    between atoms: O_1  and  C_2
REMARK    2  A    between atoms: C_4  and  C_29
REMARK    3  A    between atoms: C_6  and  C_22
REMARK    4  A    between atoms: C_11  and  C_13
REMARK    5  A    between atoms: C_14  and  C_15
REMARK    6  A    between atoms: C_18  and  O_21
REMARK    7  A    between atoms: C_25  and  O_28
REMARK    8  A    between atoms: C_31  and  O_32
REMARK    9  A    between atoms: C_34  and  O_36
REMARK                            x       y       z     vdW  Elec       q    Type
REMARK                         _______ _______ _______ _____ _____    ______ ____
ROOT
ATOM      1  C   LIG A   1      -7.829   4.226 129.473  0.00  0.00    +0.125 A 
ATOM      2  C   LIG A   1      -8.480   4.248 130.690  0.00  0.00    +0.047 A 
ATOM      3  C   LIG A   1      -8.815   5.378 131.605  0.00  0.00    +0.101 C 
ATOM      4  C   LIG A   1      -9.207   4.569 132.876  0.00  0.00    +0.215 C 
ATOM      5  O   LIG A   1      -9.543   3.210 132.467  0.00  0.00    -0.483 OA
ATOM      6  C   LIG A   1      -8.961   3.067 131.232  0.00  0.00    +0.129 A 
ATOM      7  C   LIG A   1      -8.848   1.852 130.581  0.00  0.00    +0.054 A 
ATOM      8  C   LIG A   1      -8.203   1.821 129.337  0.00  0.00    -0.018 A 
ATOM      9  C   LIG A   1      -7.689   3.015 128.796  0.00  0.00    +0.054 A 
ENDROOT
BRANCH   4  10
ATOM     10  C   LIG A   1      -8.119   4.552 133.952  0.00  0.00    -0.006 A 
ATOM     11  C   LIG A   1      -7.975   5.648 134.821  0.00  0.00    +0.011 A 
ATOM     12  C   LIG A   1      -6.992   5.651 135.818  0.00  0.00    +0.046 A 
ATOM     13  C   LIG A   1      -6.138   4.560 135.943  0.00  0.00    +0.117 A 
ATOM     14  C   LIG A   1      -6.252   3.473 135.090  0.00  0.00    +0.046 A 
ATOM     15  C   LIG A   1      -7.235   3.469 134.099  0.00  0.00    +0.011 A 
BRANCH  13  16
ATOM     16  O   LIG A   1      -5.167   4.512 136.899  0.00  0.00    -0.507 OA
ATOM     17  H   LIG A   1      -5.260   5.286 137.479  0.00  0.00    +0.292 HD
ENDBRANCH  13  16
ENDBRANCH   4  10
BRANCH   3  18
ATOM     18  C   LIG A   1      -9.931   6.268 131.068  0.00  0.00    -0.029 A 
ATOM     19  C   LIG A   1     -11.207   6.329 131.660  0.00  0.00    +0.050 A 
ATOM     20  C   LIG A   1     -12.195   7.154 131.118  0.00  0.00    +0.121 A 
ATOM     21  C   LIG A   1     -11.948   7.926 129.990  0.00  0.00    +0.090 A 
ATOM     22  C   LIG A   1     -10.691   7.866 129.402  0.00  0.00    +0.121 A 
ATOM     23  C   LIG A   1      -9.691   7.052 129.927  0.00  0.00    +0.050 A 
BRANCH  20  24
ATOM     24  O   LIG A   1     -13.439   7.235 131.674  0.00  0.00    -0.507 OA
ATOM     25  H   LIG A   1     -13.376   7.019 132.620  0.00  0.00    +0.292 HD
ENDBRANCH  20  24
BRANCH  22  26
ATOM     26  O   LIG A   1     -10.389   8.600 128.294  0.00  0.00    -0.507 OA
ATOM     27  H   LIG A   1      -9.508   8.335 127.978  0.00  0.00    +0.292 HD
ENDBRANCH  22  26
ENDBRANCH   3  18
BRANCH   1  28
ATOM     28  O   LIG A   1      -7.310   5.337 128.883  0.00  0.00    -0.506 OA
ATOM     29  H   LIG A   1      -7.501   6.112 129.435  0.00  0.00    +0.292 HD
ENDBRANCH   1  28
BRANCH   8  30
ATOM     30  C   LIG A   1      -8.158   0.549 128.600  0.00  0.00    +0.009 C 
ATOM     31  C   LIG A   1      -8.152   0.435 127.266  0.00  0.00    +0.008 C 
BRANCH  31  32
ATOM     32  C   LIG A   1      -8.111  -0.855 126.556  0.00  0.00    -0.025 A 
ATOM     33  C   LIG A   1      -8.083  -0.928 125.156  0.00  0.00    +0.011 A 
ATOM     34  C   LIG A   1      -8.068  -2.162 124.504  0.00  0.00    +0.046 A 
ATOM     35  C   LIG A   1      -8.099  -3.330 125.254  0.00  0.00    +0.117 A 
ATOM     36  C   LIG A   1      -8.149  -3.283 126.642  0.00  0.00    +0.046 A 
ATOM     37  C   LIG A   1      -8.158  -2.046 127.293  0.00  0.00    +0.011 A 
BRANCH  35  38
ATOM     38  O   LIG A   1      -8.091  -4.555 124.656  0.00  0.00    -0.507 OA
ATOM     39  H   LIG A   1      -8.390  -4.450 123.738  0.00  0.00    +0.292 HD
ENDBRANCH  35  38
ENDBRANCH  31  32
ENDBRANCH   8  30
TORSDOF 9
ENDMDL
