MODEL 1
REMARK VINA RESULT:      -9.3      0.000      0.000
REMARK  Name = NuBBE_492
REMARK  17 active torsions:
REMARK  status: ('A' for Active; 'I' for Inactive)
REMARK    1  A    between atoms: C_4  and  C_43
REMARK    2  A    between atoms: C_9  and  C_10
REMARK    3  A    between atoms: C_11  and  C_12
REMARK    4  A    between atoms: C_12  and  C_14
REMARK    5  A    between atoms: C_12  and  C_15
REMARK    6  A    between atoms: C_15  and  C_16
REMARK    7  A    between atoms: C_21  and  C_22
REMARK    8  A    between atoms: C_22  and  C_23
REMARK    9  A    between atoms: C_23  and  C_25
REMARK   10  A    between atoms: C_23  and  C_26
REMARK   11  A    between atoms: C_26  and  O_28
REMARK   12  A    between atoms: C_26  and  C_41
REMARK   13  A    between atoms: O_28  and  C_29
REMARK   14  A    between atoms: C_29  and  C_30
REMARK   15  A    between atoms: C_30  and  O_31
REMARK   16  A    between atoms: C_30  and  C_34
REMARK   17  A    between atoms: O_31  and  C_32
REMARK                            x       y       z     vdW  Elec       q    Type
REMARK                         _______ _______ _______ _____ _____    ______ ____
ROOT
ATOM      1  O   LIG A   1      -5.829   3.035 133.434  0.00  0.00    -0.245 OA
ATOM      2  C   LIG A   1      -6.552   2.418 132.696  0.00  0.00    +0.344 C 
ATOM      3  O   LIG A   1      -7.655   1.735 133.143  0.00  0.00    -0.442 OA
ATOM      4  C   LIG A   1      -8.143   0.974 132.076  0.00  0.00    +0.200 C 
ATOM      5  C   LIG A   1      -7.351   1.451 130.904  0.00  0.00    +0.031 C 
ATOM      6  C   LIG A   1      -7.625   0.679 129.708  0.00  0.00    +0.027 C 
ATOM      7  C   LIG A   1      -8.084   1.172 128.543  0.00  0.00    +0.204 C 
ATOM      8  O   LIG A   1      -8.353   0.388 127.425  0.00  0.00    -0.463 OA
ATOM      9  C   LIG A   1      -7.927  -0.944 127.437  0.00  0.00    +0.128 C 
ATOM     10  C   LIG A   1      -7.516  -1.550 128.566  0.00  0.00    +0.056 C 
ATOM     11  C   LIG A   1      -7.584  -0.795 129.808  0.00  0.00    +0.011 C 
ATOM     12  C   LIG A   1      -7.626  -1.373 131.029  0.00  0.00    +0.096 C 
ATOM     13 CL   LIG A   1      -7.524  -3.081 131.288  0.00  0.00    -0.079 Cl
ATOM     14  C   LIG A   1      -6.376   2.281 131.256  0.00  0.00    +0.110 C 
ATOM     15  C   LIG A   1      -9.649   1.232 131.953  0.00  0.00    +0.070 C 
ATOM     16  C   LIG A   1      -7.817  -0.524 132.275  0.00  0.00    +0.222 C 
ATOM     17  O   LIG A   1      -7.704  -1.021 133.390  0.00  0.00    -0.286 OA
ENDROOT
BRANCH   9  18
ATOM     18  C   LIG A   1      -7.889  -1.617 126.157  0.00  0.00    +0.042 C 
ATOM     19  C   LIG A   1      -6.954  -2.501 125.768  0.00  0.00    -0.020 C 
BRANCH  19  20
ATOM     20  C   LIG A   1      -6.904  -3.214 124.426  0.00  0.00    +0.008 C 
ATOM     21  C   LIG A   1      -8.155  -2.962 123.578  0.00  0.00    +0.012 C 
BRANCH  20  22
ATOM     22  C   LIG A   1      -5.603  -2.860 123.677  0.00  0.00    +0.004 C 
ATOM     23  C   LIG A   1      -4.564  -3.977 123.684  0.00  0.00    +0.004 C 
ENDBRANCH  20  22
ENDBRANCH  19  20
ENDBRANCH   9  18
BRANCH  14  24
ATOM     24  C   LIG A   1      -5.250   2.853 130.468  0.00  0.00    +0.177 C 
ATOM     25  O   LIG A   1      -4.177   2.229 130.435  0.00  0.00    -0.291 OA
BRANCH  24  26
ATOM     26  C   LIG A   1      -5.442   4.152 129.670  0.00  0.00    +0.098 C 
ATOM     27  C   LIG A   1      -4.082   4.745 129.266  0.00  0.00    +0.020 C 
BRANCH  26  28
ATOM     28  C   LIG A   1      -6.297   5.202 130.435  0.00  0.00    +0.184 C 
ATOM     29  C   LIG A   1      -5.463   6.395 130.927  0.00  0.00    +0.052 C 
BRANCH  28  30
ATOM     30  O   LIG A   1      -7.486   5.707 129.739  0.00  0.00    -0.459 OA
BRANCH  30  31
ATOM     31  C   LIG A   1      -8.746   5.497 130.208  0.00  0.00    +0.341 C 
ATOM     32  O   LIG A   1      -9.324   4.405 130.154  0.00  0.00    -0.247 OA
BRANCH  31  33
ATOM     33  C   LIG A   1      -9.339   6.765 130.884  0.00  0.00    +0.256 C 
BRANCH  33  34
ATOM     34  C   LIG A   1     -10.525   7.324 130.080  0.00  0.00    -0.008 A 
ATOM     35  C   LIG A   1     -11.850   7.185 130.535  0.00  0.00    +0.007 A 
ATOM     36  C   LIG A   1     -12.928   7.624 129.756  0.00  0.00    +0.000 A 
ATOM     37  C   LIG A   1     -12.701   8.224 128.519  0.00  0.00    +0.000 A 
ATOM     38  C   LIG A   1     -11.397   8.406 128.070  0.00  0.00    +0.000 A 
ATOM     39  C   LIG A   1     -10.317   7.955 128.840  0.00  0.00    +0.007 A 
ENDBRANCH  33  34
BRANCH  33  40
ATOM     40  O   LIG A   1      -9.811   6.497 132.212  0.00  0.00    -0.364 OA
ATOM     41  C   LIG A   1      -8.856   5.874 133.056  0.00  0.00    +0.195 C 
ENDBRANCH  33  40
ENDBRANCH  31  33
ENDBRANCH  30  31
ENDBRANCH  28  30
ENDBRANCH  26  28
ENDBRANCH  24  26
ENDBRANCH  14  24
TORSDOF 11
ENDMDL
MODEL 2
REMARK VINA RESULT:      -9.3      2.497      5.215
REMARK  Name = NuBBE_492
REMARK  17 active torsions:
REMARK  status: ('A' for Active; 'I' for Inactive)
REMARK    1  A    between atoms: C_4  and  C_43
REMARK    2  A    between atoms: C_9  and  C_10
REMARK    3  A    between atoms: C_11  and  C_12
REMARK    4  A    between atoms: C_12  and  C_14
REMARK    5  A    between atoms: C_12  and  C_15
REMARK    6  A    between atoms: C_15  and  C_16
REMARK    7  A    between atoms: C_21  and  C_22
REMARK    8  A    between atoms: C_22  and  C_23
REMARK    9  A    between atoms: C_23  and  C_25
REMARK   10  A    between atoms: C_23  and  C_26
REMARK   11  A    between atoms: C_26  and  O_28
REMARK   12  A    between atoms: C_26  and  C_41
REMARK   13  A    between atoms: O_28  and  C_29
REMARK   14  A    between atoms: C_29  and  C_30
REMARK   15  A    between atoms: C_30  and  O_31
REMARK   16  A    between atoms: C_30  and  C_34
REMARK   17  A    between atoms: O_31  and  C_32
REMARK                            x       y       z     vdW  Elec       q    Type
REMARK                         _______ _______ _______ _____ _____    ______ ____
ROOT
ATOM      1  O   LIG A   1      -9.407   1.928 125.612  0.00  0.00    -0.245 OA
ATOM      2  C   LIG A   1      -8.716   0.973 125.852  0.00  0.00    +0.344 C 
ATOM      3  O   LIG A   1      -8.672  -0.131 125.039  0.00  0.00    -0.442 OA
ATOM      4  C   LIG A   1      -7.940  -1.119 125.707  0.00  0.00    +0.200 C 
ATOM      5  C   LIG A   1      -7.373  -0.407 126.890  0.00  0.00    +0.031 C 
ATOM      6  C   LIG A   1      -6.678  -1.308 127.789  0.00  0.00    +0.027 C 
ATOM      7  C   LIG A   1      -5.387  -1.209 128.156  0.00  0.00    +0.204 C 
ATOM      8  O   LIG A   1      -4.754  -2.111 129.006  0.00  0.00    -0.463 OA
ATOM      9  C   LIG A   1      -5.547  -3.043 129.683  0.00  0.00    +0.128 C 
ATOM     10  C   LIG A   1      -6.830  -3.267 129.345  0.00  0.00    +0.056 C 
ATOM     11  C   LIG A   1      -7.368  -2.549 128.199  0.00  0.00    +0.011 C 
ATOM     12  C   LIG A   1      -8.444  -2.967 127.497  0.00  0.00    +0.096 C 
ATOM     13 CL   LIG A   1      -9.376  -4.366 127.908  0.00  0.00    -0.079 Cl
ATOM     14  C   LIG A   1      -7.850   0.826 127.016  0.00  0.00    +0.110 C 
ATOM     15  C   LIG A   1      -6.879  -1.662 124.743  0.00  0.00    +0.070 C 
ATOM     16  C   LIG A   1      -8.874  -2.230 126.240  0.00  0.00    +0.222 C 
ATOM     17  O   LIG A   1      -9.931  -2.509 125.686  0.00  0.00    -0.286 OA
ENDROOT
BRANCH   9  18
ATOM     18  C   LIG A   1      -4.932  -3.709 130.811  0.00  0.00    +0.042 C 
ATOM     19  C   LIG A   1      -5.542  -4.584 131.628  0.00  0.00    -0.020 C 
BRANCH  19  20
ATOM     20  C   LIG A   1      -4.907  -5.289 132.815  0.00  0.00    +0.008 C 
ATOM     21  C   LIG A   1      -3.514  -4.744 133.148  0.00  0.00    +0.012 C 
BRANCH  20  22
ATOM     22  C   LIG A   1      -5.857  -5.261 134.030  0.00  0.00    +0.004 C 
ATOM     23  C   LIG A   1      -6.906  -4.154 133.967  0.00  0.00    +0.004 C 
ENDBRANCH  20  22
ENDBRANCH  19  20
ENDBRANCH   9  18
BRANCH  14  24
ATOM     24  C   LIG A   1      -7.710   1.818 128.116  0.00  0.00    +0.177 C 
ATOM     25  O   LIG A   1      -8.198   1.542 129.224  0.00  0.00    -0.291 OA
BRANCH  24  26
ATOM     26  C   LIG A   1      -6.928   3.121 127.891  0.00  0.00    +0.098 C 
ATOM     27  C   LIG A   1      -5.493   2.817 127.428  0.00  0.00    +0.020 C 
BRANCH  26  28
ATOM     28  C   LIG A   1      -6.920   4.038 129.147  0.00  0.00    +0.184 C 
ATOM     29  C   LIG A   1      -5.498   4.420 129.588  0.00  0.00    +0.052 C 
BRANCH  28  30
ATOM     30  O   LIG A   1      -7.738   5.254 129.072  0.00  0.00    -0.459 OA
BRANCH  30  31
ATOM     31  C   LIG A   1      -8.963   5.341 129.657  0.00  0.00    +0.341 C 
ATOM     32  O   LIG A   1      -9.776   4.410 129.687  0.00  0.00    -0.247 OA
BRANCH  31  33
ATOM     33  C   LIG A   1      -9.187   6.718 130.346  0.00  0.00    +0.256 C 
BRANCH  33  34
ATOM     34  C   LIG A   1     -10.475   7.391 129.843  0.00  0.00    -0.008 A 
ATOM     35  C   LIG A   1     -11.680   7.297 130.563  0.00  0.00    +0.007 A 
ATOM     36  C   LIG A   1     -12.866   7.843 130.055  0.00  0.00    +0.000 A 
ATOM     37  C   LIG A   1     -12.865   8.506 128.829  0.00  0.00    +0.000 A 
ATOM     38  C   LIG A   1     -11.674   8.644 128.122  0.00  0.00    +0.000 A 
ATOM     39  C   LIG A   1     -10.490   8.086 128.620  0.00  0.00    +0.007 A 
ENDBRANCH  33  34
BRANCH  33  40
ATOM     40  O   LIG A   1      -9.297   6.595 131.771  0.00  0.00    -0.364 OA
ATOM     41  C   LIG A   1      -8.170   6.001 132.394  0.00  0.00    +0.195 C 
ENDBRANCH  33  40
ENDBRANCH  31  33
ENDBRANCH  30  31
ENDBRANCH  28  30
ENDBRANCH  26  28
ENDBRANCH  24  26
ENDBRANCH  14  24
TORSDOF 11
ENDMDL
MODEL 3
REMARK VINA RESULT:      -9.0      3.147      6.741
REMARK  Name = NuBBE_492
REMARK  17 active torsions:
REMARK  status: ('A' for Active; 'I' for Inactive)
REMARK    1  A    between atoms: C_4  and  C_43
REMARK    2  A    between atoms: C_9  and  C_10
REMARK    3  A    between atoms: C_11  and  C_12
REMARK    4  A    between atoms: C_12  and  C_14
REMARK    5  A    between atoms: C_12  and  C_15
REMARK    6  A    between atoms: C_15  and  C_16
REMARK    7  A    between atoms: C_21  and  C_22
REMARK    8  A    between atoms: C_22  and  C_23
REMARK    9  A    between atoms: C_23  and  C_25
REMARK   10  A    between atoms: C_23  and  C_26
REMARK   11  A    between atoms: C_26  and  O_28
REMARK   12  A    between atoms: C_26  and  C_41
REMARK   13  A    between atoms: O_28  and  C_29
REMARK   14  A    between atoms: C_29  and  C_30
REMARK   15  A    between atoms: C_30  and  O_31
REMARK   16  A    between atoms: C_30  and  C_34
REMARK   17  A    between atoms: O_31  and  C_32
REMARK                            x       y       z     vdW  Elec       q    Type
REMARK                         _______ _______ _______ _____ _____    ______ ____
ROOT
ATOM      1  O   LIG A   1      -7.567   5.716 130.897  0.00  0.00    -0.245 OA
ATOM      2  C   LIG A   1      -6.836   4.927 130.358  0.00  0.00    +0.344 C 
ATOM      3  O   LIG A   1      -5.567   5.253 129.951  0.00  0.00    -0.442 OA
ATOM      4  C   LIG A   1      -5.079   4.185 129.193  0.00  0.00    +0.200 C 
ATOM      5  C   LIG A   1      -6.098   3.112 129.384  0.00  0.00    +0.031 C 
ATOM      6  C   LIG A   1      -5.832   1.949 128.560  0.00  0.00    +0.027 C 
ATOM      7  C   LIG A   1      -5.642   0.695 129.010  0.00  0.00    +0.204 C 
ATOM      8  O   LIG A   1      -5.366  -0.389 128.182  0.00  0.00    -0.463 OA
ATOM      9  C   LIG A   1      -5.504  -0.214 126.801  0.00  0.00    +0.128 C 
ATOM     10  C   LIG A   1      -5.629   1.006 126.248  0.00  0.00    +0.056 C 
ATOM     11  C   LIG A   1      -5.555   2.164 127.125  0.00  0.00    +0.011 C 
ATOM     12  C   LIG A   1      -5.235   3.405 126.695  0.00  0.00    +0.096 C 
ATOM     13 CL   LIG A   1      -4.948   3.803 125.035  0.00  0.00    -0.079 Cl
ATOM     14  C   LIG A   1      -7.169   3.543 130.043  0.00  0.00    +0.110 C 
ATOM     15  C   LIG A   1      -3.687   3.818 129.723  0.00  0.00    +0.070 C 
ATOM     16  C   LIG A   1      -5.060   4.540 127.688  0.00  0.00    +0.222 C 
ATOM     17  O   LIG A   1      -4.920   5.694 127.297  0.00  0.00    -0.286 OA
ENDROOT
BRANCH   9  18
ATOM     18  C   LIG A   1      -5.571  -1.420 126.006  0.00  0.00    +0.042 C 
ATOM     19  C   LIG A   1      -6.271  -1.566 124.867  0.00  0.00    -0.020 C 
BRANCH  19  20
ATOM     20  C   LIG A   1      -6.349  -2.828 124.023  0.00  0.00    +0.008 C 
ATOM     21  C   LIG A   1      -5.002  -3.553 123.921  0.00  0.00    +0.012 C 
BRANCH  20  22
ATOM     22  C   LIG A   1      -7.477  -3.748 124.534  0.00  0.00    +0.004 C 
ATOM     23  C   LIG A   1      -8.754  -3.005 124.913  0.00  0.00    +0.004 C 
ENDBRANCH  20  22
ENDBRANCH  19  20
ENDBRANCH   9  18
BRANCH  14  24
ATOM     24  C   LIG A   1      -8.481   2.892 130.302  0.00  0.00    +0.177 C 
ATOM     25  O   LIG A   1      -9.456   3.236 129.614  0.00  0.00    -0.291 OA
BRANCH  24  26
ATOM     26  C   LIG A   1      -8.602   1.780 131.356  0.00  0.00    +0.098 C 
ATOM     27  C   LIG A   1     -10.061   1.626 131.816  0.00  0.00    +0.020 C 
BRANCH  26  28
ATOM     28  C   LIG A   1      -7.660   2.006 132.573  0.00  0.00    +0.184 C 
ATOM     29  C   LIG A   1      -8.164   3.116 133.509  0.00  0.00    +0.052 C 
BRANCH  28  30
ATOM     30  O   LIG A   1      -7.332   0.821 133.373  0.00  0.00    -0.459 OA
BRANCH  30  31
ATOM     31  C   LIG A   1      -6.604  -0.214 132.874  0.00  0.00    +0.341 C 
ATOM     32  O   LIG A   1      -5.407  -0.127 132.573  0.00  0.00    -0.247 OA
BRANCH  31  33
ATOM     33  C   LIG A   1      -7.429  -1.530 132.800  0.00  0.00    +0.256 C 
BRANCH  33  34
ATOM     34  C   LIG A   1      -7.359  -2.154 131.396  0.00  0.00    -0.008 A 
ATOM     35  C   LIG A   1      -8.086  -1.616 130.317  0.00  0.00    +0.007 A 
ATOM     36  C   LIG A   1      -8.081  -2.241 129.063  0.00  0.00    +0.000 A 
ATOM     37  C   LIG A   1      -7.338  -3.402 128.861  0.00  0.00    +0.000 A 
ATOM     38  C   LIG A   1      -6.581  -3.927 129.905  0.00  0.00    +0.000 A 
ATOM     39  C   LIG A   1      -6.596  -3.313 131.164  0.00  0.00    +0.007 A 
ENDBRANCH  33  34
BRANCH  33  40
ATOM     40  O   LIG A   1      -6.958  -2.514 133.730  0.00  0.00    -0.364 OA
ATOM     41  C   LIG A   1      -7.964  -3.043 134.579  0.00  0.00    +0.195 C 
ENDBRANCH  33  40
ENDBRANCH  31  33
ENDBRANCH  30  31
ENDBRANCH  28  30
ENDBRANCH  26  28
ENDBRANCH  24  26
ENDBRANCH  14  24
TORSDOF 11
ENDMDL
MODEL 4
REMARK VINA RESULT:      -8.9      2.713      4.571
REMARK  Name = NuBBE_492
REMARK  17 active torsions:
REMARK  status: ('A' for Active; 'I' for Inactive)
REMARK    1  A    between atoms: C_4  and  C_43
REMARK    2  A    between atoms: C_9  and  C_10
REMARK    3  A    between atoms: C_11  and  C_12
REMARK    4  A    between atoms: C_12  and  C_14
REMARK    5  A    between atoms: C_12  and  C_15
REMARK    6  A    between atoms: C_15  and  C_16
REMARK    7  A    between atoms: C_21  and  C_22
REMARK    8  A    between atoms: C_22  and  C_23
REMARK    9  A    between atoms: C_23  and  C_25
REMARK   10  A    between atoms: C_23  and  C_26
REMARK   11  A    between atoms: C_26  and  O_28
REMARK   12  A    between atoms: C_26  and  C_41
REMARK   13  A    between atoms: O_28  and  C_29
REMARK   14  A    between atoms: C_29  and  C_30
REMARK   15  A    between atoms: C_30  and  O_31
REMARK   16  A    between atoms: C_30  and  C_34
REMARK   17  A    between atoms: O_31  and  C_32
REMARK                            x       y       z     vdW  Elec       q    Type
REMARK                         _______ _______ _______ _____ _____    ______ ____
ROOT
ATOM      1  O   LIG A   1      -3.960   4.334 131.363  0.00  0.00    -0.245 OA
ATOM      2  C   LIG A   1      -3.960   3.938 130.227  0.00  0.00    +0.344 C 
ATOM      3  O   LIG A   1      -3.196   4.514 129.243  0.00  0.00    -0.442 OA
ATOM      4  C   LIG A   1      -3.583   3.952 128.023  0.00  0.00    +0.200 C 
ATOM      5  C   LIG A   1      -4.489   2.832 128.415  0.00  0.00    +0.031 C 
ATOM      6  C   LIG A   1      -5.105   2.198 127.266  0.00  0.00    +0.027 C 
ATOM      7  C   LIG A   1      -5.004   0.897 126.939  0.00  0.00    +0.204 C 
ATOM      8  O   LIG A   1      -5.596   0.335 125.811  0.00  0.00    -0.463 OA
ATOM      9  C   LIG A   1      -6.516   1.109 125.097  0.00  0.00    +0.128 C 
ATOM     10  C   LIG A   1      -6.643   2.432 125.301  0.00  0.00    +0.056 C 
ATOM     11  C   LIG A   1      -5.744   3.066 126.254  0.00  0.00    +0.011 C 
ATOM     12  C   LIG A   1      -5.460   4.387 126.245  0.00  0.00    +0.096 C 
ATOM     13 CL   LIG A   1      -6.185   5.519 125.156  0.00  0.00    -0.079 Cl
ATOM     14  C   LIG A   1      -4.756   2.829 129.716  0.00  0.00    +0.110 C 
ATOM     15  C   LIG A   1      -2.319   3.496 127.284  0.00  0.00    +0.070 C 
ATOM     16  C   LIG A   1      -4.419   4.955 127.195  0.00  0.00    +0.222 C 
ATOM     17  O   LIG A   1      -4.267   6.167 127.299  0.00  0.00    -0.286 OA
ENDROOT
BRANCH   9  18
ATOM     18  C   LIG A   1      -7.371   0.397 124.173  0.00  0.00    +0.042 C 
ATOM     19  C   LIG A   1      -8.366  -0.440 124.516  0.00  0.00    -0.020 C 
BRANCH  19  20
ATOM     20  C   LIG A   1      -9.270  -1.193 123.554  0.00  0.00    +0.008 C 
ATOM     21  C   LIG A   1      -9.837  -0.293 122.451  0.00  0.00    +0.012 C 
BRANCH  20  22
ATOM     22  C   LIG A   1      -8.543  -2.431 122.990  0.00  0.00    +0.004 C 
ATOM     23  C   LIG A   1      -7.903  -3.311 124.059  0.00  0.00    +0.004 C 
ENDBRANCH  20  22
ENDBRANCH  19  20
ENDBRANCH   9  18
BRANCH  14  24
ATOM     24  C   LIG A   1      -5.728   2.030 130.510  0.00  0.00    +0.177 C 
ATOM     25  O   LIG A   1      -5.335   0.974 131.033  0.00  0.00    -0.291 OA
BRANCH  24  26
ATOM     26  C   LIG A   1      -7.163   2.539 130.720  0.00  0.00    +0.098 C 
ATOM     27  C   LIG A   1      -7.938   1.600 131.659  0.00  0.00    +0.020 C 
BRANCH  26  28
ATOM     28  C   LIG A   1      -7.929   2.737 129.382  0.00  0.00    +0.184 C 
ATOM     29  C   LIG A   1      -8.345   1.405 128.739  0.00  0.00    +0.052 C 
BRANCH  28  30
ATOM     30  O   LIG A   1      -9.092   3.631 129.421  0.00  0.00    -0.459 OA
BRANCH  30  31
ATOM     31  C   LIG A   1      -9.040   4.911 128.964  0.00  0.00    +0.341 C 
ATOM     32  O   LIG A   1      -8.641   5.220 127.835  0.00  0.00    -0.247 OA
BRANCH  31  33
ATOM     33  C   LIG A   1      -9.610   5.925 129.996  0.00  0.00    +0.256 C 
BRANCH  33  34
ATOM     34  C   LIG A   1     -10.789   6.718 129.406  0.00  0.00    -0.008 A 
ATOM     35  C   LIG A   1     -10.608   8.004 128.863  0.00  0.00    +0.007 A 
ATOM     36  C   LIG A   1     -11.701   8.751 128.404  0.00  0.00    +0.000 A 
ATOM     37  C   LIG A   1     -12.988   8.222 128.465  0.00  0.00    +0.000 A 
ATOM     38  C   LIG A   1     -13.182   6.937 128.962  0.00  0.00    +0.000 A 
ATOM     39  C   LIG A   1     -12.093   6.193 129.435  0.00  0.00    +0.007 A 
ENDBRANCH  33  34
BRANCH  33  40
ATOM     40  O   LIG A   1     -10.083   5.276 131.184  0.00  0.00    -0.364 OA
ATOM     41  C   LIG A   1      -9.652   5.882 132.391  0.00  0.00    +0.195 C 
ENDBRANCH  33  40
ENDBRANCH  31  33
ENDBRANCH  30  31
ENDBRANCH  28  30
ENDBRANCH  26  28
ENDBRANCH  24  26
ENDBRANCH  14  24
TORSDOF 11
ENDMDL
MODEL 5
REMARK VINA RESULT:      -8.8      1.881      2.704
REMARK  Name = NuBBE_492
REMARK  17 active torsions:
REMARK  status: ('A' for Active; 'I' for Inactive)
REMARK    1  A    between atoms: C_4  and  C_43
REMARK    2  A    between atoms: C_9  and  C_10
REMARK    3  A    between atoms: C_11  and  C_12
REMARK    4  A    between atoms: C_12  and  C_14
REMARK    5  A    between atoms: C_12  and  C_15
REMARK    6  A    between atoms: C_15  and  C_16
REMARK    7  A    between atoms: C_21  and  C_22
REMARK    8  A    between atoms: C_22  and  C_23
REMARK    9  A    between atoms: C_23  and  C_25
REMARK   10  A    between atoms: C_23  and  C_26
REMARK   11  A    between atoms: C_26  and  O_28
REMARK   12  A    between atoms: C_26  and  C_41
REMARK   13  A    between atoms: O_28  and  C_29
REMARK   14  A    between atoms: C_29  and  C_30
REMARK   15  A    between atoms: C_30  and  O_31
REMARK   16  A    between atoms: C_30  and  C_34
REMARK   17  A    between atoms: O_31  and  C_32
REMARK                            x       y       z     vdW  Elec       q    Type
REMARK                         _______ _______ _______ _____ _____    ______ ____
ROOT
ATOM      1  O   LIG A   1      -5.907   1.665 133.970  0.00  0.00    -0.245 OA
ATOM      2  C   LIG A   1      -6.093   0.746 133.216  0.00  0.00    +0.344 C 
ATOM      3  O   LIG A   1      -5.795  -0.552 133.546  0.00  0.00    -0.442 OA
ATOM      4  C   LIG A   1      -5.939  -1.326 132.391  0.00  0.00    +0.200 C 
ATOM      5  C   LIG A   1      -6.567  -0.393 131.410  0.00  0.00    +0.031 C 
ATOM      6  C   LIG A   1      -6.680  -0.982 130.089  0.00  0.00    +0.027 C 
ATOM      7  C   LIG A   1      -7.824  -1.150 129.400  0.00  0.00    +0.204 C 
ATOM      8  O   LIG A   1      -7.888  -1.741 128.142  0.00  0.00    -0.463 OA
ATOM      9  C   LIG A   1      -6.687  -1.979 127.465  0.00  0.00    +0.128 C 
ATOM     10  C   LIG A   1      -5.495  -1.906 128.084  0.00  0.00    +0.056 C 
ATOM     11  C   LIG A   1      -5.483  -1.628 129.512  0.00  0.00    +0.011 C 
ATOM     12  C   LIG A   1      -4.449  -1.944 130.324  0.00  0.00    +0.096 C 
ATOM     13 CL   LIG A   1      -2.969  -2.645 129.766  0.00  0.00    -0.079 Cl
ATOM     14  C   LIG A   1      -6.634   0.852 131.867  0.00  0.00    +0.110 C 
ATOM     15  C   LIG A   1      -6.809  -2.541 132.734  0.00  0.00    +0.070 C 
ATOM     16  C   LIG A   1      -4.559  -1.733 131.824  0.00  0.00    +0.222 C 
ATOM     17  O   LIG A   1      -3.578  -1.872 132.545  0.00  0.00    -0.286 OA
ENDROOT
BRANCH   9  18
ATOM     18  C   LIG A   1      -6.792  -2.244 126.047  0.00  0.00    +0.042 C 
ATOM     19  C   LIG A   1      -5.771  -2.574 125.237  0.00  0.00    -0.020 C 
BRANCH  19  20
ATOM     20  C   LIG A   1      -5.869  -2.855 123.747  0.00  0.00    +0.008 C 
ATOM     21  C   LIG A   1      -6.402  -1.656 122.954  0.00  0.00    +0.012 C 
BRANCH  20  22
ATOM     22  C   LIG A   1      -4.518  -3.366 123.205  0.00  0.00    +0.004 C 
ATOM     23  C   LIG A   1      -4.231  -4.826 123.544  0.00  0.00    +0.004 C 
ENDBRANCH  20  22
ENDBRANCH  19  20
ENDBRANCH   9  18
BRANCH  14  24
ATOM     24  C   LIG A   1      -7.007   2.122 131.187  0.00  0.00    +0.177 C 
ATOM     25  O   LIG A   1      -6.111   2.945 130.941  0.00  0.00    -0.291 OA
BRANCH  24  26
ATOM     26  C   LIG A   1      -8.460   2.370 130.751  0.00  0.00    +0.098 C 
ATOM     27  C   LIG A   1      -8.507   2.917 129.314  0.00  0.00    +0.020 C 
BRANCH  26  28
ATOM     28  C   LIG A   1      -9.224   3.310 131.725  0.00  0.00    +0.184 C 
ATOM     29  C   LIG A   1      -9.651   2.596 133.018  0.00  0.00    +0.052 C 
BRANCH  28  30
ATOM     30  O   LIG A   1      -8.559   4.570 132.074  0.00  0.00    -0.459 OA
BRANCH  30  31
ATOM     31  C   LIG A   1      -9.145   5.781 131.873  0.00  0.00    +0.341 C 
ATOM     32  O   LIG A   1      -9.773   6.392 132.746  0.00  0.00    -0.247 OA
BRANCH  31  33
ATOM     33  C   LIG A   1      -8.869   6.336 130.447  0.00  0.00    +0.256 C 
BRANCH  33  34
ATOM     34  C   LIG A   1     -10.165   6.819 129.775  0.00  0.00    -0.008 A 
ATOM     35  C   LIG A   1     -11.352   6.066 129.844  0.00  0.00    +0.007 A 
ATOM     36  C   LIG A   1     -12.504   6.473 129.159  0.00  0.00    +0.000 A 
ATOM     37  C   LIG A   1     -12.495   7.646 128.408  0.00  0.00    +0.000 A 
ATOM     38  C   LIG A   1     -11.343   8.426 128.360  0.00  0.00    +0.000 A 
ATOM     39  C   LIG A   1     -10.185   8.013 129.031  0.00  0.00    +0.007 A 
ENDBRANCH  33  34
BRANCH  33  40
ATOM     40  O   LIG A   1      -7.958   7.444 130.468  0.00  0.00    -0.364 OA
ATOM     41  C   LIG A   1      -6.664   7.127 130.952  0.00  0.00    +0.195 C 
ENDBRANCH  33  40
ENDBRANCH  31  33
ENDBRANCH  30  31
ENDBRANCH  28  30
ENDBRANCH  26  28
ENDBRANCH  24  26
ENDBRANCH  14  24
TORSDOF 11
ENDMDL
MODEL 6
REMARK VINA RESULT:      -8.8      2.471      4.677
REMARK  Name = NuBBE_492
REMARK  17 active torsions:
REMARK  status: ('A' for Active; 'I' for Inactive)
REMARK    1  A    between atoms: C_4  and  C_43
REMARK    2  A    between atoms: C_9  and  C_10
REMARK    3  A    between atoms: C_11  and  C_12
REMARK    4  A    between atoms: C_12  and  C_14
REMARK    5  A    between atoms: C_12  and  C_15
REMARK    6  A    between atoms: C_15  and  C_16
REMARK    7  A    between atoms: C_21  and  C_22
REMARK    8  A    between atoms: C_22  and  C_23
REMARK    9  A    between atoms: C_23  and  C_25
REMARK   10  A    between atoms: C_23  and  C_26
REMARK   11  A    between atoms: C_26  and  O_28
REMARK   12  A    between atoms: C_26  and  C_41
REMARK   13  A    between atoms: O_28  and  C_29
REMARK   14  A    between atoms: C_29  and  C_30
REMARK   15  A    between atoms: C_30  and  O_31
REMARK   16  A    between atoms: C_30  and  C_34
REMARK   17  A    between atoms: O_31  and  C_32
REMARK                            x       y       z     vdW  Elec       q    Type
REMARK                         _______ _______ _______ _____ _____    ______ ____
ROOT
ATOM      1  O   LIG A   1      -6.785   5.751 131.684  0.00  0.00    -0.245 OA
ATOM      2  C   LIG A   1      -7.361   4.824 131.177  0.00  0.00    +0.344 C 
ATOM      3  O   LIG A   1      -8.550   4.338 131.660  0.00  0.00    -0.442 OA
ATOM      4  C   LIG A   1      -8.832   3.152 130.976  0.00  0.00    +0.200 C 
ATOM      5  C   LIG A   1      -7.807   3.110 129.892  0.00  0.00    +0.031 C 
ATOM      6  C   LIG A   1      -7.854   1.871 129.141  0.00  0.00    +0.027 C 
ATOM      7  C   LIG A   1      -8.054   1.764 127.815  0.00  0.00    +0.204 C 
ATOM      8  O   LIG A   1      -8.113   0.549 127.138  0.00  0.00    -0.463 OA
ATOM      9  C   LIG A   1      -7.734  -0.607 127.829  0.00  0.00    +0.128 C 
ATOM     10  C   LIG A   1      -7.578  -0.620 129.165  0.00  0.00    +0.056 C 
ATOM     11  C   LIG A   1      -7.874   0.602 129.898  0.00  0.00    +0.011 C 
ATOM     12  C   LIG A   1      -8.178   0.624 131.214  0.00  0.00    +0.096 C 
ATOM     13 CL   LIG A   1      -8.178  -0.780 132.226  0.00  0.00    -0.079 Cl
ATOM     14  C   LIG A   1      -6.900   4.074 130.015  0.00  0.00    +0.110 C 
ATOM     15  C   LIG A   1     -10.274   3.227 130.462  0.00  0.00    +0.070 C 
ATOM     16  C   LIG A   1      -8.595   1.923 131.884  0.00  0.00    +0.222 C 
ATOM     17  O   LIG A   1      -8.723   1.982 133.101  0.00  0.00    -0.286 OA
ENDROOT
BRANCH   9  18
ATOM     18  C   LIG A   1      -7.457  -1.775 127.020  0.00  0.00    +0.042 C 
ATOM     19  C   LIG A   1      -6.846  -1.767 125.823  0.00  0.00    -0.020 C 
BRANCH  19  20
ATOM     20  C   LIG A   1      -6.550  -2.987 124.965  0.00  0.00    +0.008 C 
ATOM     21  C   LIG A   1      -7.802  -3.545 124.280  0.00  0.00    +0.012 C 
BRANCH  20  22
ATOM     22  C   LIG A   1      -5.418  -2.677 123.963  0.00  0.00    +0.004 C 
ATOM     23  C   LIG A   1      -4.558  -3.887 123.612  0.00  0.00    +0.004 C 
ENDBRANCH  20  22
ENDBRANCH  19  20
ENDBRANCH   9  18
BRANCH  14  24
ATOM     24  C   LIG A   1      -5.624   4.310 129.289  0.00  0.00    +0.177 C 
ATOM     25  O   LIG A   1      -5.582   5.225 128.450  0.00  0.00    -0.291 OA
BRANCH  24  26
ATOM     26  C   LIG A   1      -4.377   3.475 129.620  0.00  0.00    +0.098 C 
ATOM     27  C   LIG A   1      -4.216   2.321 128.617  0.00  0.00    +0.020 C 
BRANCH  26  28
ATOM     28  C   LIG A   1      -4.386   2.941 131.080  0.00  0.00    +0.184 C 
ATOM     29  C   LIG A   1      -4.478   1.408 131.146  0.00  0.00    +0.052 C 
BRANCH  28  30
ATOM     30  O   LIG A   1      -3.290   3.389 131.947  0.00  0.00    -0.459 OA
BRANCH  30  31
ATOM     31  C   LIG A   1      -3.301   4.601 132.563  0.00  0.00    +0.341 C 
ATOM     32  O   LIG A   1      -4.097   4.908 133.459  0.00  0.00    -0.247 OA
BRANCH  31  33
ATOM     33  C   LIG A   1      -2.151   5.523 132.065  0.00  0.00    +0.256 C 
BRANCH  33  34
ATOM     34  C   LIG A   1      -2.598   6.374 130.864  0.00  0.00    -0.008 A 
ATOM     35  C   LIG A   1      -3.624   7.331 130.986  0.00  0.00    +0.007 A 
ATOM     36  C   LIG A   1      -4.080   8.042 129.869  0.00  0.00    +0.000 A 
ATOM     37  C   LIG A   1      -3.511   7.822 128.616  0.00  0.00    +0.000 A 
ATOM     38  C   LIG A   1      -2.469   6.909 128.484  0.00  0.00    +0.000 A 
ATOM     39  C   LIG A   1      -2.020   6.186 129.596  0.00  0.00    +0.007 A 
ENDBRANCH  33  34
BRANCH  33  40
ATOM     40  O   LIG A   1      -1.703   6.425 133.086  0.00  0.00    -0.364 OA
ATOM     41  C   LIG A   1      -0.392   6.927 132.886  0.00  0.00    +0.195 C 
ENDBRANCH  33  40
ENDBRANCH  31  33
ENDBRANCH  30  31
ENDBRANCH  28  30
ENDBRANCH  26  28
ENDBRANCH  24  26
ENDBRANCH  14  24
TORSDOF 11
ENDMDL
MODEL 7
REMARK VINA RESULT:      -8.8      2.837      6.678
REMARK  Name = NuBBE_492
REMARK  17 active torsions:
REMARK  status: ('A' for Active; 'I' for Inactive)
REMARK    1  A    between atoms: C_4  and  C_43
REMARK    2  A    between atoms: C_9  and  C_10
REMARK    3  A    between atoms: C_11  and  C_12
REMARK    4  A    between atoms: C_12  and  C_14
REMARK    5  A    between atoms: C_12  and  C_15
REMARK    6  A    between atoms: C_15  and  C_16
REMARK    7  A    between atoms: C_21  and  C_22
REMARK    8  A    between atoms: C_22  and  C_23
REMARK    9  A    between atoms: C_23  and  C_25
REMARK   10  A    between atoms: C_23  and  C_26
REMARK   11  A    between atoms: C_26  and  O_28
REMARK   12  A    between atoms: C_26  and  C_41
REMARK   13  A    between atoms: O_28  and  C_29
REMARK   14  A    between atoms: C_29  and  C_30
REMARK   15  A    between atoms: C_30  and  O_31
REMARK   16  A    between atoms: C_30  and  C_34
REMARK   17  A    between atoms: O_31  and  C_32
REMARK                            x       y       z     vdW  Elec       q    Type
REMARK                         _______ _______ _______ _____ _____    ______ ____
ROOT
ATOM      1  O   LIG A   1      -7.068   1.806 123.112  0.00  0.00    -0.245 OA
ATOM      2  C   LIG A   1      -6.900   0.770 123.701  0.00  0.00    +0.344 C 
ATOM      3  O   LIG A   1      -7.092  -0.454 123.112  0.00  0.00    -0.442 OA
ATOM      4  C   LIG A   1      -7.011  -1.424 124.116  0.00  0.00    +0.200 C 
ATOM      5  C   LIG A   1      -6.531  -0.666 125.309  0.00  0.00    +0.031 C 
ATOM      6  C   LIG A   1      -6.507  -1.486 126.505  0.00  0.00    +0.027 C 
ATOM      7  C   LIG A   1      -5.424  -1.735 127.265  0.00  0.00    +0.204 C 
ATOM      8  O   LIG A   1      -5.443  -2.547 128.395  0.00  0.00    -0.463 OA
ATOM      9  C   LIG A   1      -6.686  -2.954 128.891  0.00  0.00    +0.128 C 
ATOM     10  C   LIG A   1      -7.818  -2.813 128.179  0.00  0.00    +0.056 C 
ATOM     11  C   LIG A   1      -7.713  -2.275 126.831  0.00  0.00    +0.011 C 
ATOM     12  C   LIG A   1      -8.647  -2.474 125.875  0.00  0.00    +0.096 C 
ATOM     13 CL   LIG A   1     -10.130  -3.325 126.142  0.00  0.00    -0.079 Cl
ATOM     14  C   LIG A   1      -6.494   0.644 125.095  0.00  0.00    +0.110 C 
ATOM     15  C   LIG A   1      -6.045  -2.519 123.648  0.00  0.00    +0.070 C 
ATOM     16  C   LIG A   1      -8.411  -1.983 124.457  0.00  0.00    +0.222 C 
ATOM     17  O   LIG A   1      -9.312  -2.024 123.626  0.00  0.00    -0.286 OA
ENDROOT
BRANCH   9  18
ATOM     18  C   LIG A   1      -6.697  -3.475 130.241  0.00  0.00    +0.042 C 
ATOM     19  C   LIG A   1      -6.192  -2.855 131.321  0.00  0.00    -0.020 C 
BRANCH  19  20
ATOM     20  C   LIG A   1      -6.198  -3.393 132.743  0.00  0.00    +0.008 C 
ATOM     21  C   LIG A   1      -7.550  -3.202 133.439  0.00  0.00    +0.012 C 
BRANCH  20  22
ATOM     22  C   LIG A   1      -5.726  -4.861 132.765  0.00  0.00    +0.004 C 
ATOM     23  C   LIG A   1      -5.440  -5.396 134.165  0.00  0.00    +0.004 C 
ENDBRANCH  20  22
ENDBRANCH  19  20
ENDBRANCH   9  18
BRANCH  14  24
ATOM     24  C   LIG A   1      -6.258   1.778 126.029  0.00  0.00    +0.177 C 
ATOM     25  O   LIG A   1      -5.149   2.337 126.009  0.00  0.00    -0.291 OA
BRANCH  24  26
ATOM     26  C   LIG A   1      -7.386   2.275 126.947  0.00  0.00    +0.098 C 
ATOM     27  C   LIG A   1      -8.688   1.506 126.669  0.00  0.00    +0.020 C 
BRANCH  26  28
ATOM     28  C   LIG A   1      -7.615   3.809 126.836  0.00  0.00    +0.184 C 
ATOM     29  C   LIG A   1      -8.025   4.241 125.419  0.00  0.00    +0.052 C 
BRANCH  28  30
ATOM     30  O   LIG A   1      -8.546   4.402 127.803  0.00  0.00    -0.459 OA
BRANCH  30  31
ATOM     31  C   LIG A   1      -8.271   4.460 129.134  0.00  0.00    +0.341 C 
ATOM     32  O   LIG A   1      -7.309   5.076 129.609  0.00  0.00    -0.247 OA
BRANCH  31  33
ATOM     33  C   LIG A   1      -9.347   3.729 129.987  0.00  0.00    +0.256 C 
BRANCH  33  34
ATOM     34  C   LIG A   1      -8.729   2.577 130.797  0.00  0.00    -0.008 A 
ATOM     35  C   LIG A   1      -8.593   1.287 130.249  0.00  0.00    +0.007 A 
ATOM     36  C   LIG A   1      -8.106   0.225 131.022  0.00  0.00    +0.000 A 
ATOM     37  C   LIG A   1      -7.732   0.436 132.347  0.00  0.00    +0.000 A 
ATOM     38  C   LIG A   1      -7.822   1.712 132.894  0.00  0.00    +0.000 A 
ATOM     39  C   LIG A   1      -8.322   2.773 132.129  0.00  0.00    +0.007 A 
ENDBRANCH  33  34
BRANCH  33  40
ATOM     40  O   LIG A   1      -9.986   4.613 130.919  0.00  0.00    -0.364 OA
ATOM     41  C   LIG A   1     -11.205   5.168 130.454  0.00  0.00    +0.195 C 
ENDBRANCH  33  40
ENDBRANCH  31  33
ENDBRANCH  30  31
ENDBRANCH  28  30
ENDBRANCH  26  28
ENDBRANCH  24  26
ENDBRANCH  14  24
TORSDOF 11
ENDMDL
MODEL 8
REMARK VINA RESULT:      -8.8      3.396      6.932
REMARK  Name = NuBBE_492
REMARK  17 active torsions:
REMARK  status: ('A' for Active; 'I' for Inactive)
REMARK    1  A    between atoms: C_4  and  C_43
REMARK    2  A    between atoms: C_9  and  C_10
REMARK    3  A    between atoms: C_11  and  C_12
REMARK    4  A    between atoms: C_12  and  C_14
REMARK    5  A    between atoms: C_12  and  C_15
REMARK    6  A    between atoms: C_15  and  C_16
REMARK    7  A    between atoms: C_21  and  C_22
REMARK    8  A    between atoms: C_22  and  C_23
REMARK    9  A    between atoms: C_23  and  C_25
REMARK   10  A    between atoms: C_23  and  C_26
REMARK   11  A    between atoms: C_26  and  O_28
REMARK   12  A    between atoms: C_26  and  C_41
REMARK   13  A    between atoms: O_28  and  C_29
REMARK   14  A    between atoms: C_29  and  C_30
REMARK   15  A    between atoms: C_30  and  O_31
REMARK   16  A    between atoms: C_30  and  C_34
REMARK   17  A    between atoms: O_31  and  C_32
REMARK                            x       y       z     vdW  Elec       q    Type
REMARK                         _______ _______ _______ _____ _____    ______ ____
ROOT
ATOM      1  O   LIG A   1      -9.421   1.810 126.150  0.00  0.00    -0.245 OA
ATOM      2  C   LIG A   1      -8.712   0.859 126.352  0.00  0.00    +0.344 C 
ATOM      3  O   LIG A   1      -8.579  -0.168 125.452  0.00  0.00    -0.442 OA
ATOM      4  C   LIG A   1      -7.856  -1.188 126.078  0.00  0.00    +0.200 C 
ATOM      5  C   LIG A   1      -7.389  -0.567 127.352  0.00  0.00    +0.031 C 
ATOM      6  C   LIG A   1      -6.719  -1.522 128.213  0.00  0.00    +0.027 C 
ATOM      7  C   LIG A   1      -5.458  -1.417 128.671  0.00  0.00    +0.204 C 
ATOM      8  O   LIG A   1      -4.848  -2.372 129.480  0.00  0.00    -0.463 OA
ATOM      9  C   LIG A   1      -5.648  -3.383 130.021  0.00  0.00    +0.128 C 
ATOM     10  C   LIG A   1      -6.898  -3.614 129.582  0.00  0.00    +0.056 C 
ATOM     11  C   LIG A   1      -7.390  -2.814 128.470  0.00  0.00    +0.011 C 
ATOM     12  C   LIG A   1      -8.404  -3.201 127.666  0.00  0.00    +0.096 C 
ATOM     13 CL   LIG A   1      -9.310  -4.657 127.894  0.00  0.00    -0.079 Cl
ATOM     14  C   LIG A   1      -7.916   0.636 127.552  0.00  0.00    +0.110 C 
ATOM     15  C   LIG A   1      -6.718  -1.612 125.142  0.00  0.00    +0.070 C 
ATOM     16  C   LIG A   1      -8.781  -2.369 126.451  0.00  0.00    +0.222 C 
ATOM     17  O   LIG A   1      -9.791  -2.630 125.808  0.00  0.00    -0.286 OA
ENDROOT
BRANCH   9  18
ATOM     18  C   LIG A   1      -5.082  -4.127 131.125  0.00  0.00    +0.042 C 
ATOM     19  C   LIG A   1      -5.764  -4.587 132.188  0.00  0.00    -0.020 C 
BRANCH  19  20
ATOM     20  C   LIG A   1      -5.179  -5.369 133.353  0.00  0.00    +0.008 C 
ATOM     21  C   LIG A   1      -3.723  -4.992 133.645  0.00  0.00    +0.012 C 
BRANCH  20  22
ATOM     22  C   LIG A   1      -6.083  -5.239 134.596  0.00  0.00    +0.004 C 
ATOM     23  C   LIG A   1      -7.248  -4.271 134.413  0.00  0.00    +0.004 C 
ENDBRANCH  20  22
ENDBRANCH  19  20
ENDBRANCH   9  18
BRANCH  14  24
ATOM     24  C   LIG A   1      -7.880   1.531 128.741  0.00  0.00    +0.177 C 
ATOM     25  O   LIG A   1      -8.499   1.183 129.760  0.00  0.00    -0.291 OA
BRANCH  24  26
ATOM     26  C   LIG A   1      -7.045   2.820 128.716  0.00  0.00    +0.098 C 
ATOM     27  C   LIG A   1      -6.396   3.071 130.087  0.00  0.00    +0.020 C 
BRANCH  26  28
ATOM     28  C   LIG A   1      -7.869   4.057 128.260  0.00  0.00    +0.184 C 
ATOM     29  C   LIG A   1      -8.202   5.004 129.424  0.00  0.00    +0.052 C 
BRANCH  28  30
ATOM     30  O   LIG A   1      -7.311   4.842 127.153  0.00  0.00    -0.459 OA
BRANCH  30  31
ATOM     31  C   LIG A   1      -7.809   4.771 125.889  0.00  0.00    +0.341 C 
ATOM     32  O   LIG A   1      -8.972   5.067 125.593  0.00  0.00    -0.247 OA
BRANCH  31  33
ATOM     33  C   LIG A   1      -6.725   4.352 124.855  0.00  0.00    +0.256 C 
BRANCH  33  34
ATOM     34  C   LIG A   1      -5.514   3.704 125.548  0.00  0.00    -0.008 A 
ATOM     35  C   LIG A   1      -5.418   2.308 125.702  0.00  0.00    +0.007 A 
ATOM     36  C   LIG A   1      -4.352   1.733 126.406  0.00  0.00    +0.000 A 
ATOM     37  C   LIG A   1      -3.357   2.540 126.954  0.00  0.00    +0.000 A 
ATOM     38  C   LIG A   1      -3.414   3.920 126.778  0.00  0.00    +0.000 A 
ATOM     39  C   LIG A   1      -4.486   4.498 126.087  0.00  0.00    +0.007 A 
ENDBRANCH  33  34
BRANCH  33  40
ATOM     40  O   LIG A   1      -7.229   3.406 123.901  0.00  0.00    -0.364 OA
ATOM     41  C   LIG A   1      -6.692   3.552 122.596  0.00  0.00    +0.195 C 
ENDBRANCH  33  40
ENDBRANCH  31  33
ENDBRANCH  30  31
ENDBRANCH  28  30
ENDBRANCH  26  28
ENDBRANCH  24  26
ENDBRANCH  14  24
TORSDOF 11
ENDMDL
MODEL 9
REMARK VINA RESULT:      -8.7      2.201      7.873
REMARK  Name = NuBBE_492
REMARK  17 active torsions:
REMARK  status: ('A' for Active; 'I' for Inactive)
REMARK    1  A    between atoms: C_4  and  C_43
REMARK    2  A    between atoms: C_9  and  C_10
REMARK    3  A    between atoms: C_11  and  C_12
REMARK    4  A    between atoms: C_12  and  C_14
REMARK    5  A    between atoms: C_12  and  C_15
REMARK    6  A    between atoms: C_15  and  C_16
REMARK    7  A    between atoms: C_21  and  C_22
REMARK    8  A    between atoms: C_22  and  C_23
REMARK    9  A    between atoms: C_23  and  C_25
REMARK   10  A    between atoms: C_23  and  C_26
REMARK   11  A    between atoms: C_26  and  O_28
REMARK   12  A    between atoms: C_26  and  C_41
REMARK   13  A    between atoms: O_28  and  C_29
REMARK   14  A    between atoms: C_29  and  C_30
REMARK   15  A    between atoms: C_30  and  O_31
REMARK   16  A    between atoms: C_30  and  C_34
REMARK   17  A    between atoms: O_31  and  C_32
REMARK                            x       y       z     vdW  Elec       q    Type
REMARK                         _______ _______ _______ _____ _____    ______ ____
ROOT
ATOM      1  O   LIG A   1      -3.822   2.304 129.850  0.00  0.00    -0.245 OA
ATOM      2  C   LIG A   1      -4.734   2.846 130.417  0.00  0.00    +0.344 C 
ATOM      3  O   LIG A   1      -5.063   2.569 131.720  0.00  0.00    -0.442 OA
ATOM      4  C   LIG A   1      -6.274   3.211 131.996  0.00  0.00    +0.200 C 
ATOM      5  C   LIG A   1      -6.506   4.070 130.798  0.00  0.00    +0.031 C 
ATOM      6  C   LIG A   1      -7.798   4.728 130.838  0.00  0.00    +0.027 C 
ATOM      7  C   LIG A   1      -8.004   6.057 130.799  0.00  0.00    +0.204 C 
ATOM      8  O   LIG A   1      -9.264   6.646 130.861  0.00  0.00    -0.463 OA
ATOM      9  C   LIG A   1     -10.384   5.816 130.743  0.00  0.00    +0.128 C 
ATOM     10  C   LIG A   1     -10.292   4.478 130.839  0.00  0.00    +0.056 C 
ATOM     11  C   LIG A   1      -8.988   3.903 131.134  0.00  0.00    +0.011 C 
ATOM     12  C   LIG A   1      -8.820   2.675 131.672  0.00  0.00    +0.096 C 
ATOM     13 CL   LIG A   1     -10.123   1.587 132.009  0.00  0.00    -0.079 Cl
ATOM     14  C   LIG A   1      -5.623   3.842 129.833  0.00  0.00    +0.110 C 
ATOM     15  C   LIG A   1      -6.113   3.998 133.302  0.00  0.00    +0.070 C 
ATOM     16  C   LIG A   1      -7.434   2.191 132.064  0.00  0.00    +0.222 C 
ATOM     17  O   LIG A   1      -7.256   1.028 132.408  0.00  0.00    -0.286 OA
ENDROOT
BRANCH   9  18
ATOM     18  C   LIG A   1     -11.639   6.472 130.447  0.00  0.00    +0.042 C 
ATOM     19  C   LIG A   1     -11.819   7.431 129.522  0.00  0.00    -0.020 C 
BRANCH  19  20
ATOM     20  C   LIG A   1     -13.132   8.127 129.203  0.00  0.00    +0.008 C 
ATOM     21  C   LIG A   1     -13.004   9.654 129.196  0.00  0.00    +0.012 C 
BRANCH  20  22
ATOM     22  C   LIG A   1     -13.726   7.579 127.889  0.00  0.00    +0.004 C 
ATOM     23  C   LIG A   1     -12.678   7.061 126.907  0.00  0.00    +0.004 C 
ENDBRANCH  20  22
ENDBRANCH  19  20
ENDBRANCH   9  18
BRANCH  14  24
ATOM     24  C   LIG A   1      -5.571   4.323 128.426  0.00  0.00    +0.177 C 
ATOM     25  O   LIG A   1      -5.061   5.432 128.200  0.00  0.00    -0.291 OA
BRANCH  24  26
ATOM     26  C   LIG A   1      -6.084   3.433 127.282  0.00  0.00    +0.098 C 
ATOM     27  C   LIG A   1      -5.108   3.464 126.094  0.00  0.00    +0.020 C 
BRANCH  26  28
ATOM     28  C   LIG A   1      -7.521   3.814 126.827  0.00  0.00    +0.184 C 
ATOM     29  C   LIG A   1      -7.531   4.599 125.506  0.00  0.00    +0.052 C 
BRANCH  28  30
ATOM     30  O   LIG A   1      -8.490   2.716 126.736  0.00  0.00    -0.459 OA
BRANCH  30  31
ATOM     31  C   LIG A   1      -8.263   1.499 127.300  0.00  0.00    +0.341 C 
ATOM     32  O   LIG A   1      -8.517   1.232 128.480  0.00  0.00    -0.247 OA
BRANCH  31  33
ATOM     33  C   LIG A   1      -7.721   0.467 126.269  0.00  0.00    +0.256 C 
BRANCH  33  34
ATOM     34  C   LIG A   1      -8.192  -0.958 126.605  0.00  0.00    -0.008 A 
ATOM     35  C   LIG A   1      -7.689  -1.652 127.722  0.00  0.00    +0.007 A 
ATOM     36  C   LIG A   1      -8.062  -2.979 127.972  0.00  0.00    +0.000 A 
ATOM     37  C   LIG A   1      -8.954  -3.629 127.122  0.00  0.00    +0.000 A 
ATOM     38  C   LIG A   1      -9.493  -2.946 126.036  0.00  0.00    +0.000 A 
ATOM     39  C   LIG A   1      -9.111  -1.624 125.774  0.00  0.00    +0.007 A 
ENDBRANCH  33  34
BRANCH  33  40
ATOM     40  O   LIG A   1      -8.159   0.759 124.935  0.00  0.00    -0.364 OA
ATOM     41  C   LIG A   1      -7.108   1.047 124.026  0.00  0.00    +0.195 C 
ENDBRANCH  33  40
ENDBRANCH  31  33
ENDBRANCH  30  31
ENDBRANCH  28  30
ENDBRANCH  26  28
ENDBRANCH  24  26
ENDBRANCH  14  24
TORSDOF 11
ENDMDL
