MODEL 1
REMARK VINA RESULT:      -8.1      0.000      0.000
REMARK  Name = NuBBE_1677
REMARK  15 active torsions:
REMARK  status: ('A' for Active; 'I' for Inactive)
REMARK    1  A    between atoms: C_1  and  C_2
REMARK    2  A    between atoms: C_2  and  C_3
REMARK    3  A    between atoms: C_3  and  C_4
REMARK    4  A    between atoms: C_4  and  C_5
REMARK    5  A    between atoms: C_5  and  C_6
REMARK    6  A    between atoms: C_6  and  C_7
REMARK    7  A    between atoms: C_8  and  C_9
REMARK    8  A    between atoms: C_9  and  C_10
REMARK    9  A    between atoms: C_10  and  C_11
REMARK   10  A    between atoms: C_11  and  C_12
REMARK   11  A    between atoms: C_12  and  C_13
REMARK   12  A    between atoms: C_13  and  C_14
REMARK   13  A    between atoms: C_14  and  C_15
REMARK   14  A    between atoms: C_15  and  C_16
REMARK   15  A    between atoms: C_18  and  O_19
REMARK                            x       y       z     vdW  Elec       q    Type
REMARK                         _______ _______ _______ _____ _____    ______ ____
ROOT
ATOM      1  C   LIG A   1      -8.474  -1.955 122.765  0.00  0.00    +0.000 C 
ENDROOT
BRANCH   1   2
ATOM      2  C   LIG A   1      -9.341  -3.063 123.570  0.00  0.00    +0.000 C 
BRANCH   2   3
ATOM      3  C   LIG A   1      -8.829  -3.599 124.948  0.00  0.00    +0.004 C 
BRANCH   3   4
ATOM      4  C   LIG A   1      -9.308  -3.190 126.402  0.00  0.00    +0.027 C 
BRANCH   4   6
ATOM      5  C   LIG A   1      -8.287  -3.401 128.757  0.00  0.00    -0.031 C 
ATOM      6  C   LIG A   1      -8.897  -3.912 127.658  0.00  0.00    -0.031 C 
BRANCH   5   7
ATOM      7  C   LIG A   1      -7.844  -1.842 128.936  0.00  0.00    +0.027 C 
BRANCH   7   8
ATOM      8  C   LIG A   1      -6.681  -0.880 128.656  0.00  0.00    +0.004 C 
BRANCH   8   9
ATOM      9  C   LIG A   1      -6.765  -0.884 127.230  0.00  0.00    +0.000 C 
BRANCH   9  10
ATOM     10  C   LIG A   1      -5.705  -2.396 125.894  0.00  0.00    -0.000 C 
BRANCH  10  12
ATOM     11  C   LIG A   1      -4.899  -3.453 123.508  0.00  0.00    +0.004 C 
ATOM     12  C   LIG A   1      -5.206  -2.141 124.309  0.00  0.00    -0.003 C 
ENDBRANCH  10  12
ENDBRANCH   9  10
ENDBRANCH   8   9
ENDBRANCH   7   8
ENDBRANCH   5   7
ENDBRANCH   4   6
ENDBRANCH   3   4
ENDBRANCH   2   3
ENDBRANCH   1   2
BRANCH   1  13
ATOM     13  C   LIG A   1      -9.373  -0.847 122.571  0.00  0.00    +0.000 C 
BRANCH  13  14
ATOM     14  C   LIG A   1      -9.786   0.623 123.454  0.00  0.00    +0.005 C 
BRANCH  14  15
ATOM     15  C   LIG A   1      -8.713   2.066 123.835  0.00  0.00    +0.035 C 
BRANCH  15  16
ATOM     16  C   LIG A   1      -8.114   3.128 122.799  0.00  0.00    -0.044 A 
ATOM     17  C   LIG A   1      -8.764   3.493 121.059  0.00  0.00    +0.049 A 
ATOM     18  C   LIG A   1      -7.512   4.109 119.847  0.00  0.00    +0.117 A 
ATOM     19  C   LIG A   1      -5.819   4.436 120.363  0.00  0.00    +0.045 A 
ATOM     20  C   LIG A   1      -5.270   4.160 122.010  0.00  0.00    +0.004 A 
ATOM     21  C   LIG A   1      -6.401   3.672 123.246  0.00  0.00    +0.004 A 
BRANCH  18  22
ATOM     22  O   LIG A   1      -7.906   4.461 118.634  0.00  0.00    -0.507 OA
ATOM     23  H   LIG A   1      -8.767   4.827 118.896  0.00  0.00    +0.292 HD
ENDBRANCH  18  22
ENDBRANCH  15  16
ENDBRANCH  14  15
ENDBRANCH  13  14
ENDBRANCH   1  13
TORSDOF 14
ENDMDL
MODEL 2
REMARK VINA RESULT:      -7.6      1.598      2.684
REMARK  Name = NuBBE_1677
REMARK  15 active torsions:
REMARK  status: ('A' for Active; 'I' for Inactive)
REMARK    1  A    between atoms: C_1  and  C_2
REMARK    2  A    between atoms: C_2  and  C_3
REMARK    3  A    between atoms: C_3  and  C_4
REMARK    4  A    between atoms: C_4  and  C_5
REMARK    5  A    between atoms: C_5  and  C_6
REMARK    6  A    between atoms: C_6  and  C_7
REMARK    7  A    between atoms: C_8  and  C_9
REMARK    8  A    between atoms: C_9  and  C_10
REMARK    9  A    between atoms: C_10  and  C_11
REMARK   10  A    between atoms: C_11  and  C_12
REMARK   11  A    between atoms: C_12  and  C_13
REMARK   12  A    between atoms: C_13  and  C_14
REMARK   13  A    between atoms: C_14  and  C_15
REMARK   14  A    between atoms: C_15  and  C_16
REMARK   15  A    between atoms: C_18  and  O_19
REMARK                            x       y       z     vdW  Elec       q    Type
REMARK                         _______ _______ _______ _____ _____    ______ ____
ROOT
ATOM      1  C   LIG A   1      -7.982  -3.056 123.840  0.00  0.00    +0.000 C 
ENDROOT
BRANCH   1   2
ATOM      2  C   LIG A   1      -9.176  -3.376 124.889  0.00  0.00    +0.000 C 
BRANCH   2   3
ATOM      3  C   LIG A   1      -9.086  -2.836 126.355  0.00  0.00    +0.004 C 
BRANCH   3   4
ATOM      4  C   LIG A   1      -8.892  -3.656 127.697  0.00  0.00    +0.027 C 
BRANCH   4   6
ATOM      5  C   LIG A   1      -7.009  -2.537 129.051  0.00  0.00    -0.031 C 
ATOM      6  C   LIG A   1      -8.236  -3.104 128.934  0.00  0.00    -0.031 C 
BRANCH   5   7
ATOM      7  C   LIG A   1      -5.949  -2.351 127.825  0.00  0.00    +0.027 C 
BRANCH   7   8
ATOM      8  C   LIG A   1      -5.611  -1.412 126.659  0.00  0.00    +0.004 C 
BRANCH   8   9
ATOM      9  C   LIG A   1      -6.433  -0.312 127.050  0.00  0.00    +0.000 C 
BRANCH   9  10
ATOM     10  C   LIG A   1      -5.716   1.850 127.132  0.00  0.00    -0.000 C 
BRANCH  10  12
ATOM     11  C   LIG A   1      -4.863   3.881 125.518  0.00  0.00    +0.004 C 
ATOM     12  C   LIG A   1      -4.486   2.524 126.205  0.00  0.00    -0.003 C 
ENDBRANCH  10  12
ENDBRANCH   9  10
ENDBRANCH   8   9
ENDBRANCH   7   8
ENDBRANCH   5   7
ENDBRANCH   4   6
ENDBRANCH   3   4
ENDBRANCH   2   3
ENDBRANCH   1   2
BRANCH   1  13
ATOM     13  C   LIG A   1      -8.070  -1.639 123.596  0.00  0.00    +0.000 C 
BRANCH  13  14
ATOM     14  C   LIG A   1      -6.933  -0.339 123.242  0.00  0.00    +0.005 C 
BRANCH  14  15
ATOM     15  C   LIG A   1      -7.087   1.451 123.631  0.00  0.00    +0.035 C 
BRANCH  15  16
ATOM     16  C   LIG A   1      -7.344   2.647 122.601  0.00  0.00    -0.044 A 
ATOM     17  C   LIG A   1      -8.944   2.987 121.648  0.00  0.00    +0.049 A 
ATOM     18  C   LIG A   1      -8.746   3.862 120.031  0.00  0.00    +0.117 A 
ATOM     19  C   LIG A   1      -7.127   4.438 119.493  0.00  0.00    +0.045 A 
ATOM     20  C   LIG A   1      -5.673   4.174 120.444  0.00  0.00    +0.004 A 
ATOM     21  C   LIG A   1      -5.774   3.444 122.026  0.00  0.00    +0.004 A 
BRANCH  18  22
ATOM     22  O   LIG A   1      -9.824   4.204 119.345  0.00  0.00    -0.507 OA
ATOM     23  H   LIG A   1      -9.375   4.353 118.497  0.00  0.00    +0.292 HD
ENDBRANCH  18  22
ENDBRANCH  15  16
ENDBRANCH  14  15
ENDBRANCH  13  14
ENDBRANCH   1  13
TORSDOF 14
ENDMDL
MODEL 3
REMARK VINA RESULT:      -7.5      3.522      6.956
REMARK  Name = NuBBE_1677
REMARK  15 active torsions:
REMARK  status: ('A' for Active; 'I' for Inactive)
REMARK    1  A    between atoms: C_1  and  C_2
REMARK    2  A    between atoms: C_2  and  C_3
REMARK    3  A    between atoms: C_3  and  C_4
REMARK    4  A    between atoms: C_4  and  C_5
REMARK    5  A    between atoms: C_5  and  C_6
REMARK    6  A    between atoms: C_6  and  C_7
REMARK    7  A    between atoms: C_8  and  C_9
REMARK    8  A    between atoms: C_9  and  C_10
REMARK    9  A    between atoms: C_10  and  C_11
REMARK   10  A    between atoms: C_11  and  C_12
REMARK   11  A    between atoms: C_12  and  C_13
REMARK   12  A    between atoms: C_13  and  C_14
REMARK   13  A    between atoms: C_14  and  C_15
REMARK   14  A    between atoms: C_15  and  C_16
REMARK   15  A    between atoms: C_18  and  O_19
REMARK                            x       y       z     vdW  Elec       q    Type
REMARK                         _______ _______ _______ _____ _____    ______ ____
ROOT
ATOM      1  C   LIG A   1      -7.670  -2.927 127.979  0.00  0.00    +0.000 C 
ENDROOT
BRANCH   1   2
ATOM      2  C   LIG A   1      -8.915  -3.606 127.193  0.00  0.00    +0.000 C 
BRANCH   2   3
ATOM      3  C   LIG A   1      -9.457  -2.947 125.883  0.00  0.00    +0.004 C 
BRANCH   3   4
ATOM      4  C   LIG A   1      -9.271  -3.432 124.386  0.00  0.00    +0.027 C 
BRANCH   4   6
ATOM      5  C   LIG A   1      -7.889  -1.998 122.752  0.00  0.00    -0.031 C 
ATOM      6  C   LIG A   1      -9.058  -2.504 123.219  0.00  0.00    -0.031 C 
BRANCH   5   7
ATOM      7  C   LIG A   1      -6.422  -2.294 123.401  0.00  0.00    +0.027 C 
BRANCH   7   8
ATOM      8  C   LIG A   1      -5.748  -2.698 124.719  0.00  0.00    +0.004 C 
BRANCH   8   9
ATOM      9  C   LIG A   1      -5.424  -1.386 125.181  0.00  0.00    +0.000 C 
BRANCH   9  10
ATOM     10  C   LIG A   1      -6.949   0.074 126.039  0.00  0.00    -0.000 C 
BRANCH  10  12
ATOM     11  C   LIG A   1      -9.600   0.647 125.719  0.00  0.00    +0.004 C 
ATOM     12  C   LIG A   1      -8.148   0.878 125.177  0.00  0.00    -0.003 C 
ENDBRANCH  10  12
ENDBRANCH   9  10
ENDBRANCH   8   9
ENDBRANCH   7   8
ENDBRANCH   5   7
ENDBRANCH   4   6
ENDBRANCH   3   4
ENDBRANCH   2   3
ENDBRANCH   1   2
BRANCH   1  13
ATOM     13  C   LIG A   1      -7.994  -3.059 129.376  0.00  0.00    +0.000 C 
BRANCH  13  14
ATOM     14  C   LIG A   1      -7.468  -2.301 130.878  0.00  0.00    +0.005 C 
BRANCH  14  15
ATOM     15  C   LIG A   1      -8.139  -0.796 131.694  0.00  0.00    +0.035 C 
BRANCH  15  16
ATOM     16  C   LIG A   1      -8.714   0.516 130.984  0.00  0.00    -0.044 A 
ATOM     17  C   LIG A   1      -8.293   1.129 129.242  0.00  0.00    +0.049 A 
ATOM     18  C   LIG A   1      -8.428   2.954 128.979  0.00  0.00    +0.117 A 
ATOM     19  C   LIG A   1      -9.035   4.028 130.291  0.00  0.00    +0.045 A 
ATOM     20  C   LIG A   1      -9.492   3.412 131.871  0.00  0.00    +0.004 A 
ATOM     21  C   LIG A   1      -9.491   1.695 132.183  0.00  0.00    +0.004 A 
BRANCH  18  22
ATOM     22  O   LIG A   1      -8.227   3.449 127.769  0.00  0.00    -0.507 OA
ATOM     23  H   LIG A   1      -8.240   4.386 128.026  0.00  0.00    +0.292 HD
ENDBRANCH  18  22
ENDBRANCH  15  16
ENDBRANCH  14  15
ENDBRANCH  13  14
ENDBRANCH   1  13
TORSDOF 14
ENDMDL
MODEL 4
REMARK VINA RESULT:      -7.5      4.148      7.892
REMARK  Name = NuBBE_1677
REMARK  15 active torsions:
REMARK  status: ('A' for Active; 'I' for Inactive)
REMARK    1  A    between atoms: C_1  and  C_2
REMARK    2  A    between atoms: C_2  and  C_3
REMARK    3  A    between atoms: C_3  and  C_4
REMARK    4  A    between atoms: C_4  and  C_5
REMARK    5  A    between atoms: C_5  and  C_6
REMARK    6  A    between atoms: C_6  and  C_7
REMARK    7  A    between atoms: C_8  and  C_9
REMARK    8  A    between atoms: C_9  and  C_10
REMARK    9  A    between atoms: C_10  and  C_11
REMARK   10  A    between atoms: C_11  and  C_12
REMARK   11  A    between atoms: C_12  and  C_13
REMARK   12  A    between atoms: C_13  and  C_14
REMARK   13  A    between atoms: C_14  and  C_15
REMARK   14  A    between atoms: C_15  and  C_16
REMARK   15  A    between atoms: C_18  and  O_19
REMARK                            x       y       z     vdW  Elec       q    Type
REMARK                         _______ _______ _______ _____ _____    ______ ____
ROOT
ATOM      1  C   LIG A   1      -5.432   1.313 127.635  0.00  0.00    +0.000 C 
ENDROOT
BRANCH   1   2
ATOM      2  C   LIG A   1      -5.346   0.878 126.076  0.00  0.00    +0.000 C 
BRANCH   2   3
ATOM      3  C   LIG A   1      -5.881  -0.522 125.630  0.00  0.00    +0.004 C 
BRANCH   3   4
ATOM      4  C   LIG A   1      -5.982  -1.855 126.482  0.00  0.00    +0.027 C 
BRANCH   4   6
ATOM      5  C   LIG A   1      -8.264  -2.994 126.841  0.00  0.00    -0.031 C 
ATOM      6  C   LIG A   1      -7.202  -2.264 127.265  0.00  0.00    -0.031 C 
BRANCH   5   7
ATOM      7  C   LIG A   1      -8.445  -3.584 125.332  0.00  0.00    +0.027 C 
BRANCH   7   8
ATOM      8  C   LIG A   1      -9.211  -3.333 124.025  0.00  0.00    +0.004 C 
BRANCH   8   9
ATOM      9  C   LIG A   1      -8.271  -2.446 123.417  0.00  0.00    +0.000 C 
BRANCH   9  10
ATOM     10  C   LIG A   1      -8.576  -0.194 123.238  0.00  0.00    -0.000 C 
BRANCH  10  12
ATOM     11  C   LIG A   1      -9.561   0.309 125.735  0.00  0.00    +0.004 C 
ATOM     12  C   LIG A   1      -9.537   0.760 124.234  0.00  0.00    -0.003 C 
ENDBRANCH  10  12
ENDBRANCH   9  10
ENDBRANCH   8   9
ENDBRANCH   7   8
ENDBRANCH   5   7
ENDBRANCH   4   6
ENDBRANCH   3   4
ENDBRANCH   2   3
ENDBRANCH   1   2
BRANCH   1  13
ATOM     13  C   LIG A   1      -6.832   1.548 127.880  0.00  0.00    +0.000 C 
BRANCH  13  14
ATOM     14  C   LIG A   1      -8.032   0.973 129.037  0.00  0.00    +0.005 C 
BRANCH  14  15
ATOM     15  C   LIG A   1      -7.805  -0.209 130.426  0.00  0.00    +0.035 C 
BRANCH  15  16
ATOM     16  C   LIG A   1      -6.587  -1.222 130.647  0.00  0.00    -0.044 A 
ATOM     17  C   LIG A   1      -4.757  -0.869 130.318  0.00  0.00    +0.049 A 
ATOM     18  C   LIG A   1      -3.719  -2.340 129.897  0.00  0.00    +0.117 A 
ATOM     19  C   LIG A   1      -4.422  -3.997 129.923  0.00  0.00    +0.045 A 
ATOM     20  C   LIG A   1      -6.109  -4.294 130.312  0.00  0.00    +0.004 A 
ATOM     21  C   LIG A   1      -7.143  -2.981 130.816  0.00  0.00    +0.004 A 
BRANCH  18  22
ATOM     22  O   LIG A   1      -2.415  -2.184 129.731  0.00  0.00    -0.507 OA
ATOM     23  H   LIG A   1      -2.253  -3.039 129.300  0.00  0.00    +0.292 HD
ENDBRANCH  18  22
ENDBRANCH  15  16
ENDBRANCH  14  15
ENDBRANCH  13  14
ENDBRANCH   1  13
TORSDOF 14
ENDMDL
MODEL 5
REMARK VINA RESULT:      -7.5      2.303      4.400
REMARK  Name = NuBBE_1677
REMARK  15 active torsions:
REMARK  status: ('A' for Active; 'I' for Inactive)
REMARK    1  A    between atoms: C_1  and  C_2
REMARK    2  A    between atoms: C_2  and  C_3
REMARK    3  A    between atoms: C_3  and  C_4
REMARK    4  A    between atoms: C_4  and  C_5
REMARK    5  A    between atoms: C_5  and  C_6
REMARK    6  A    between atoms: C_6  and  C_7
REMARK    7  A    between atoms: C_8  and  C_9
REMARK    8  A    between atoms: C_9  and  C_10
REMARK    9  A    between atoms: C_10  and  C_11
REMARK   10  A    between atoms: C_11  and  C_12
REMARK   11  A    between atoms: C_12  and  C_13
REMARK   12  A    between atoms: C_13  and  C_14
REMARK   13  A    between atoms: C_14  and  C_15
REMARK   14  A    between atoms: C_15  and  C_16
REMARK   15  A    between atoms: C_18  and  O_19
REMARK                            x       y       z     vdW  Elec       q    Type
REMARK                         _______ _______ _______ _____ _____    ______ ____
ROOT
ATOM      1  C   LIG A   1      -8.956  -3.363 124.085  0.00  0.00    +0.000 C 
ENDROOT
BRANCH   1   2
ATOM      2  C   LIG A   1      -9.494  -2.828 125.517  0.00  0.00    +0.000 C 
BRANCH   2   3
ATOM      3  C   LIG A   1      -8.969  -3.483 126.837  0.00  0.00    +0.004 C 
BRANCH   3   4
ATOM      4  C   LIG A   1      -8.157  -2.805 128.017  0.00  0.00    +0.027 C 
BRANCH   4   6
ATOM      5  C   LIG A   1      -6.896  -3.603 130.116  0.00  0.00    -0.031 C 
ATOM      6  C   LIG A   1      -8.027  -3.394 129.397  0.00  0.00    -0.031 C 
BRANCH   5   7
ATOM      7  C   LIG A   1      -5.387  -3.258 129.600  0.00  0.00    +0.027 C 
BRANCH   7   8
ATOM      8  C   LIG A   1      -4.556  -2.126 128.981  0.00  0.00    +0.004 C 
BRANCH   8   9
ATOM      9  C   LIG A   1      -4.718  -1.171 130.030  0.00  0.00    +0.000 C 
BRANCH   9  10
ATOM     10  C   LIG A   1      -6.317   0.454 130.038  0.00  0.00    -0.000 C 
BRANCH  10  12
ATOM     11  C   LIG A   1      -8.357  -0.382 131.650  0.00  0.00    +0.004 C 
ATOM     12  C   LIG A   1      -7.967   0.221 130.257  0.00  0.00    -0.003 C 
ENDBRANCH  10  12
ENDBRANCH   9  10
ENDBRANCH   8   9
ENDBRANCH   7   8
ENDBRANCH   5   7
ENDBRANCH   4   6
ENDBRANCH   3   4
ENDBRANCH   2   3
ENDBRANCH   1   2
BRANCH   1  13
ATOM     13  C   LIG A   1      -7.587  -3.746 124.320  0.00  0.00    +0.000 C 
BRANCH  13  14
ATOM     14  C   LIG A   1      -6.081  -2.909 124.695  0.00  0.00    +0.005 C 
BRANCH  14  15
ATOM     15  C   LIG A   1      -5.822  -1.120 125.029  0.00  0.00    +0.035 C 
BRANCH  15  16
ATOM     16  C   LIG A   1      -6.906   0.052 124.930  0.00  0.00    -0.044 A 
ATOM     17  C   LIG A   1      -7.294   1.098 123.401  0.00  0.00    +0.049 A 
ATOM     18  C   LIG A   1      -7.942   2.797 123.734  0.00  0.00    +0.117 A 
ATOM     19  C   LIG A   1      -8.275   3.338 125.419  0.00  0.00    +0.045 A 
ATOM     20  C   LIG A   1      -7.976   2.309 126.811  0.00  0.00    +0.004 A 
ATOM     21  C   LIG A   1      -7.458   0.657 126.591  0.00  0.00    +0.004 A 
BRANCH  18  22
ATOM     22  O   LIG A   1      -8.310   3.559 122.717  0.00  0.00    -0.507 OA
ATOM     23  H   LIG A   1      -7.889   4.377 123.030  0.00  0.00    +0.292 HD
ENDBRANCH  18  22
ENDBRANCH  15  16
ENDBRANCH  14  15
ENDBRANCH  13  14
ENDBRANCH   1  13
TORSDOF 14
ENDMDL
MODEL 6
REMARK VINA RESULT:      -7.4      4.273      7.318
REMARK  Name = NuBBE_1677
REMARK  15 active torsions:
REMARK  status: ('A' for Active; 'I' for Inactive)
REMARK    1  A    between atoms: C_1  and  C_2
REMARK    2  A    between atoms: C_2  and  C_3
REMARK    3  A    between atoms: C_3  and  C_4
REMARK    4  A    between atoms: C_4  and  C_5
REMARK    5  A    between atoms: C_5  and  C_6
REMARK    6  A    between atoms: C_6  and  C_7
REMARK    7  A    between atoms: C_8  and  C_9
REMARK    8  A    between atoms: C_9  and  C_10
REMARK    9  A    between atoms: C_10  and  C_11
REMARK   10  A    between atoms: C_11  and  C_12
REMARK   11  A    between atoms: C_12  and  C_13
REMARK   12  A    between atoms: C_13  and  C_14
REMARK   13  A    between atoms: C_14  and  C_15
REMARK   14  A    between atoms: C_15  and  C_16
REMARK   15  A    between atoms: C_18  and  O_19
REMARK                            x       y       z     vdW  Elec       q    Type
REMARK                         _______ _______ _______ _____ _____    ______ ____
ROOT
ATOM      1  C   LIG A   1      -9.238  -3.328 124.437  0.00  0.00    +0.000 C 
ENDROOT
BRANCH   1   2
ATOM      2  C   LIG A   1      -8.956  -1.900 123.725  0.00  0.00    +0.000 C 
BRANCH   2   3
ATOM      3  C   LIG A   1      -7.876  -1.794 122.598  0.00  0.00    +0.004 C 
BRANCH   3   4
ATOM      4  C   LIG A   1      -6.325  -2.106 122.688  0.00  0.00    +0.027 C 
BRANCH   4   6
ATOM      5  C   LIG A   1      -5.327  -2.800 124.958  0.00  0.00    -0.031 C 
ATOM      6  C   LIG A   1      -5.713  -3.056 123.683  0.00  0.00    -0.031 C 
BRANCH   5   7
ATOM      7  C   LIG A   1      -5.438  -1.348 125.691  0.00  0.00    +0.027 C 
BRANCH   7   8
ATOM      8  C   LIG A   1      -6.065   0.043 125.519  0.00  0.00    +0.004 C 
BRANCH   8   9
ATOM      9  C   LIG A   1      -5.068   0.792 126.216  0.00  0.00    +0.000 C 
BRANCH   9  10
ATOM     10  C   LIG A   1      -5.087   3.062 126.416  0.00  0.00    -0.000 C 
BRANCH  10  12
ATOM     11  C   LIG A   1      -3.827   5.233 127.493  0.00  0.00    +0.004 C 
ATOM     12  C   LIG A   1      -3.739   4.067 126.450  0.00  0.00    -0.003 C 
ENDBRANCH  10  12
ENDBRANCH   9  10
ENDBRANCH   8   9
ENDBRANCH   7   8
ENDBRANCH   5   7
ENDBRANCH   4   6
ENDBRANCH   3   4
ENDBRANCH   2   3
ENDBRANCH   1   2
BRANCH   1  13
ATOM     13  C   LIG A   1      -9.398  -3.023 125.836  0.00  0.00    +0.000 C 
BRANCH  13  14
ATOM     14  C   LIG A   1      -8.979  -3.802 127.361  0.00  0.00    +0.005 C 
BRANCH  14  15
ATOM     15  C   LIG A   1      -8.134  -3.073 128.822  0.00  0.00    +0.035 C 
BRANCH  15  16
ATOM     16  C   LIG A   1      -6.765  -2.246 128.837  0.00  0.00    -0.044 A 
ATOM     17  C   LIG A   1      -5.022  -2.957 129.034  0.00  0.00    +0.049 A 
ATOM     18  C   LIG A   1      -3.773  -1.823 129.790  0.00  0.00    +0.117 A 
ATOM     19  C   LIG A   1      -4.202  -0.121 130.190  0.00  0.00    +0.045 A 
ATOM     20  C   LIG A   1      -5.811   0.529 129.919  0.00  0.00    +0.004 A 
ATOM     21  C   LIG A   1      -7.029  -0.435 129.122  0.00  0.00    +0.004 A 
BRANCH  18  22
ATOM     22  O   LIG A   1      -2.515  -2.222 129.887  0.00  0.00    -0.507 OA
ATOM     23  H   LIG A   1      -2.443  -2.592 128.993  0.00  0.00    +0.292 HD
ENDBRANCH  18  22
ENDBRANCH  15  16
ENDBRANCH  14  15
ENDBRANCH  13  14
ENDBRANCH   1  13
TORSDOF 14
ENDMDL
MODEL 7
REMARK VINA RESULT:      -7.3      4.240      7.838
REMARK  Name = NuBBE_1677
REMARK  15 active torsions:
REMARK  status: ('A' for Active; 'I' for Inactive)
REMARK    1  A    between atoms: C_1  and  C_2
REMARK    2  A    between atoms: C_2  and  C_3
REMARK    3  A    between atoms: C_3  and  C_4
REMARK    4  A    between atoms: C_4  and  C_5
REMARK    5  A    between atoms: C_5  and  C_6
REMARK    6  A    between atoms: C_6  and  C_7
REMARK    7  A    between atoms: C_8  and  C_9
REMARK    8  A    between atoms: C_9  and  C_10
REMARK    9  A    between atoms: C_10  and  C_11
REMARK   10  A    between atoms: C_11  and  C_12
REMARK   11  A    between atoms: C_12  and  C_13
REMARK   12  A    between atoms: C_13  and  C_14
REMARK   13  A    between atoms: C_14  and  C_15
REMARK   14  A    between atoms: C_15  and  C_16
REMARK   15  A    between atoms: C_18  and  O_19
REMARK                            x       y       z     vdW  Elec       q    Type
REMARK                         _______ _______ _______ _____ _____    ______ ____
ROOT
ATOM      1  C   LIG A   1      -8.533  -3.852 124.679  0.00  0.00    +0.000 C 
ENDROOT
BRANCH   1   2
ATOM      2  C   LIG A   1      -9.000  -2.732 123.604  0.00  0.00    +0.000 C 
BRANCH   2   3
ATOM      3  C   LIG A   1      -7.954  -2.127 122.610  0.00  0.00    +0.004 C 
BRANCH   3   4
ATOM      4  C   LIG A   1      -6.481  -1.627 122.914  0.00  0.00    +0.027 C 
BRANCH   4   6
ATOM      5  C   LIG A   1      -5.603  -1.656 125.335  0.00  0.00    -0.031 C 
ATOM      6  C   LIG A   1      -5.643  -2.124 124.062  0.00  0.00    -0.031 C 
BRANCH   5   7
ATOM      7  C   LIG A   1      -6.479  -0.398 125.892  0.00  0.00    +0.027 C 
BRANCH   7   8
ATOM      8  C   LIG A   1      -7.899  -0.024 126.341  0.00  0.00    +0.004 C 
BRANCH   8   9
ATOM      9  C   LIG A   1      -7.539   0.858 127.405  0.00  0.00    +0.000 C 
BRANCH   9  10
ATOM     10  C   LIG A   1      -6.634   2.927 127.095  0.00  0.00    -0.000 C 
BRANCH  10  12
ATOM     11  C   LIG A   1      -4.038   2.374 126.451  0.00  0.00    +0.004 C 
ATOM     12  C   LIG A   1      -5.279   3.289 126.168  0.00  0.00    -0.003 C 
ENDBRANCH  10  12
ENDBRANCH   9  10
ENDBRANCH   8   9
ENDBRANCH   7   8
ENDBRANCH   5   7
ENDBRANCH   4   6
ENDBRANCH   3   4
ENDBRANCH   2   3
ENDBRANCH   1   2
BRANCH   1  13
ATOM     13  C   LIG A   1      -8.988  -3.357 125.953  0.00  0.00    +0.000 C 
BRANCH  13  14
ATOM     14  C   LIG A   1      -8.659  -3.720 127.647  0.00  0.00    +0.005 C 
BRANCH  14  15
ATOM     15  C   LIG A   1      -8.197  -2.560 128.995  0.00  0.00    +0.035 C 
BRANCH  15  16
ATOM     16  C   LIG A   1      -6.808  -2.497 129.787  0.00  0.00    -0.044 A 
ATOM     17  C   LIG A   1      -5.120  -2.036 129.063  0.00  0.00    +0.049 A 
ATOM     18  C   LIG A   1      -3.654  -2.777 129.910  0.00  0.00    +0.117 A 
ATOM     19  C   LIG A   1      -3.859  -3.775 131.394  0.00  0.00    +0.045 A 
ATOM     20  C   LIG A   1      -5.438  -4.117 132.084  0.00  0.00    +0.004 A 
ATOM     21  C   LIG A   1      -6.872  -3.383 131.412  0.00  0.00    +0.004 A 
BRANCH  18  22
ATOM     22  O   LIG A   1      -2.439  -2.439 129.511  0.00  0.00    -0.507 OA
ATOM     23  H   LIG A   1      -2.685  -2.172 128.610  0.00  0.00    +0.292 HD
ENDBRANCH  18  22
ENDBRANCH  15  16
ENDBRANCH  14  15
ENDBRANCH  13  14
ENDBRANCH   1  13
TORSDOF 14
ENDMDL
MODEL 8
REMARK VINA RESULT:      -7.3      1.593      4.595
REMARK  Name = NuBBE_1677
REMARK  15 active torsions:
REMARK  status: ('A' for Active; 'I' for Inactive)
REMARK    1  A    between atoms: C_1  and  C_2
REMARK    2  A    between atoms: C_2  and  C_3
REMARK    3  A    between atoms: C_3  and  C_4
REMARK    4  A    between atoms: C_4  and  C_5
REMARK    5  A    between atoms: C_5  and  C_6
REMARK    6  A    between atoms: C_6  and  C_7
REMARK    7  A    between atoms: C_8  and  C_9
REMARK    8  A    between atoms: C_9  and  C_10
REMARK    9  A    between atoms: C_10  and  C_11
REMARK   10  A    between atoms: C_11  and  C_12
REMARK   11  A    between atoms: C_12  and  C_13
REMARK   12  A    between atoms: C_13  and  C_14
REMARK   13  A    between atoms: C_14  and  C_15
REMARK   14  A    between atoms: C_15  and  C_16
REMARK   15  A    between atoms: C_18  and  O_19
REMARK                            x       y       z     vdW  Elec       q    Type
REMARK                         _______ _______ _______ _____ _____    ______ ____
ROOT
ATOM      1  C   LIG A   1      -6.249   1.254 127.547  0.00  0.00    +0.000 C 
ENDROOT
BRANCH   1   2
ATOM      2  C   LIG A   1      -6.916  -0.137 127.047  0.00  0.00    +0.000 C 
BRANCH   2   3
ATOM      3  C   LIG A   1      -8.046  -0.111 125.966  0.00  0.00    +0.004 C 
BRANCH   3   4
ATOM      4  C   LIG A   1      -7.937   0.287 124.436  0.00  0.00    +0.027 C 
BRANCH   4   6
ATOM      5  C   LIG A   1      -7.151  -1.555 122.817  0.00  0.00    -0.031 C 
ATOM      6  C   LIG A   1      -6.997  -0.370 123.460  0.00  0.00    -0.031 C 
BRANCH   5   7
ATOM      7  C   LIG A   1      -8.429  -2.552 122.994  0.00  0.00    +0.027 C 
BRANCH   7   8
ATOM      8  C   LIG A   1      -9.383  -3.109 124.059  0.00  0.00    +0.004 C 
BRANCH   8   9
ATOM      9  C   LIG A   1      -8.425  -3.865 124.800  0.00  0.00    +0.000 C 
BRANCH   9  10
ATOM     10  C   LIG A   1      -8.494  -4.143 127.062  0.00  0.00    -0.000 C 
BRANCH  10  12
ATOM     11  C   LIG A   1      -7.490  -3.158 129.403  0.00  0.00    +0.004 C 
ATOM     12  C   LIG A   1      -8.481  -2.917 128.213  0.00  0.00    -0.003 C 
ENDBRANCH  10  12
ENDBRANCH   9  10
ENDBRANCH   8   9
ENDBRANCH   7   8
ENDBRANCH   5   7
ENDBRANCH   4   6
ENDBRANCH   3   4
ENDBRANCH   2   3
ENDBRANCH   1   2
BRANCH   1  13
ATOM     13  C   LIG A   1      -5.380   1.658 126.472  0.00  0.00    +0.000 C 
BRANCH  13  14
ATOM     14  C   LIG A   1      -5.215   3.076 125.437  0.00  0.00    +0.005 C 
BRANCH  14  15
ATOM     15  C   LIG A   1      -6.469   3.829 124.324  0.00  0.00    +0.035 C 
BRANCH  15  16
ATOM     16  C   LIG A   1      -6.562   3.690 122.733  0.00  0.00    -0.044 A 
ATOM     17  C   LIG A   1      -5.337   4.387 121.469  0.00  0.00    +0.049 A 
ATOM     18  C   LIG A   1      -6.036   4.778 119.804  0.00  0.00    +0.117 A 
ATOM     19  C   LIG A   1      -7.753   4.397 119.417  0.00  0.00    +0.045 A 
ATOM     20  C   LIG A   1      -8.841   3.675 120.593  0.00  0.00    +0.004 A 
ATOM     21  C   LIG A   1      -8.248   3.182 122.158  0.00  0.00    +0.004 A 
BRANCH  18  22
ATOM     22  O   LIG A   1      -5.226   5.194 118.844  0.00  0.00    -0.507 OA
ATOM     23  H   LIG A   1      -4.610   4.445 118.884  0.00  0.00    +0.292 HD
ENDBRANCH  18  22
ENDBRANCH  15  16
ENDBRANCH  14  15
ENDBRANCH  13  14
ENDBRANCH   1  13
TORSDOF 14
ENDMDL
MODEL 9
REMARK VINA RESULT:      -7.3      4.972      8.224
REMARK  Name = NuBBE_1677
REMARK  15 active torsions:
REMARK  status: ('A' for Active; 'I' for Inactive)
REMARK    1  A    between atoms: C_1  and  C_2
REMARK    2  A    between atoms: C_2  and  C_3
REMARK    3  A    between atoms: C_3  and  C_4
REMARK    4  A    between atoms: C_4  and  C_5
REMARK    5  A    between atoms: C_5  and  C_6
REMARK    6  A    between atoms: C_6  and  C_7
REMARK    7  A    between atoms: C_8  and  C_9
REMARK    8  A    between atoms: C_9  and  C_10
REMARK    9  A    between atoms: C_10  and  C_11
REMARK   10  A    between atoms: C_11  and  C_12
REMARK   11  A    between atoms: C_12  and  C_13
REMARK   12  A    between atoms: C_13  and  C_14
REMARK   13  A    between atoms: C_14  and  C_15
REMARK   14  A    between atoms: C_15  and  C_16
REMARK   15  A    between atoms: C_18  and  O_19
REMARK                            x       y       z     vdW  Elec       q    Type
REMARK                         _______ _______ _______ _____ _____    ______ ____
ROOT
ATOM      1  C   LIG A   1      -8.568  -3.699 124.742  0.00  0.00    +0.000 C 
ENDROOT
BRANCH   1   2
ATOM      2  C   LIG A   1      -9.055  -2.537 123.722  0.00  0.00    +0.000 C 
BRANCH   2   3
ATOM      3  C   LIG A   1      -8.126  -2.099 122.543  0.00  0.00    +0.004 C 
BRANCH   3   4
ATOM      4  C   LIG A   1      -6.558  -1.868 122.557  0.00  0.00    +0.027 C 
BRANCH   4   6
ATOM      5  C   LIG A   1      -5.121  -2.386 124.630  0.00  0.00    -0.031 C 
ATOM      6  C   LIG A   1      -5.596  -2.671 123.392  0.00  0.00    -0.031 C 
BRANCH   5   7
ATOM      7  C   LIG A   1      -5.500  -1.052 125.489  0.00  0.00    +0.027 C 
BRANCH   7   8
ATOM      8  C   LIG A   1      -6.618  -0.455 126.356  0.00  0.00    +0.004 C 
BRANCH   8   9
ATOM      9  C   LIG A   1      -5.794   0.073 127.396  0.00  0.00    +0.000 C 
BRANCH   9  10
ATOM     10  C   LIG A   1      -6.522   0.476 129.518  0.00  0.00    -0.000 C 
BRANCH  10  12
ATOM     11  C   LIG A   1      -8.704   1.993 128.887  0.00  0.00    +0.004 C 
ATOM     12  C   LIG A   1      -8.039   1.056 129.953  0.00  0.00    -0.003 C 
ENDBRANCH  10  12
ENDBRANCH   9  10
ENDBRANCH   8   9
ENDBRANCH   7   8
ENDBRANCH   5   7
ENDBRANCH   4   6
ENDBRANCH   3   4
ENDBRANCH   2   3
ENDBRANCH   1   2
BRANCH   1  13
ATOM     13  C   LIG A   1      -8.991  -3.253 126.045  0.00  0.00    +0.000 C 
BRANCH  13  14
ATOM     14  C   LIG A   1      -8.826  -3.836 127.701  0.00  0.00    +0.005 C 
BRANCH  14  15
ATOM     15  C   LIG A   1      -8.239  -2.918 129.181  0.00  0.00    +0.035 C 
BRANCH  15  16
ATOM     16  C   LIG A   1      -6.882  -3.155 129.993  0.00  0.00    -0.044 A 
ATOM     17  C   LIG A   1      -6.659  -3.047 131.870  0.00  0.00    +0.049 A 
ATOM     18  C   LIG A   1      -4.968  -2.583 132.453  0.00  0.00    +0.117 A 
ATOM     19  C   LIG A   1      -3.620  -2.369 131.279  0.00  0.00    +0.045 A 
ATOM     20  C   LIG A   1      -3.845  -2.555 129.547  0.00  0.00    +0.004 A 
ATOM     21  C   LIG A   1      -5.381  -3.086 128.909  0.00  0.00    +0.004 A 
BRANCH  18  22
ATOM     22  O   LIG A   1      -4.715  -2.564 133.751  0.00  0.00    -0.507 OA
ATOM     23  H   LIG A   1      -5.632  -2.437 134.044  0.00  0.00    +0.292 HD
ENDBRANCH  18  22
ENDBRANCH  15  16
ENDBRANCH  14  15
ENDBRANCH  13  14
ENDBRANCH   1  13
TORSDOF 14
ENDMDL
