MODEL 1
REMARK VINA RESULT:      -7.1      0.000      0.000
REMARK  Name = NuBBE_1834
REMARK  12 active torsions:
REMARK  status: ('A' for Active; 'I' for Inactive)
REMARK    1  A    between atoms: C_1  and  C_2
REMARK    2  A    between atoms: C_6  and  C_26
REMARK    3  A    between atoms: C_6  and  O_29
REMARK    4  A    between atoms: C_12  and  C_14
REMARK    5  A    between atoms: C_16  and  O_17
REMARK    6  A    between atoms: O_17  and  C_18
REMARK    7  A    between atoms: C_19  and  O_24
REMARK    8  A    between atoms: C_20  and  O_22
REMARK    9  A    between atoms: O_22  and  C_23
REMARK   10  A    between atoms: O_24  and  C_25
REMARK   11  A    between atoms: C_26  and  C_27
REMARK   12  A    between atoms: O_29  and  C_30
REMARK                            x       y       z     vdW  Elec       q    Type
REMARK                         _______ _______ _______ _____ _____    ______ ____
ROOT
ATOM      1  C   LIG A   1      -9.969   1.361 122.858  0.00  0.00    +0.016 C 
ATOM      2  C   LIG A   1      -8.997   1.365 124.036  0.00  0.00    +0.065 C 
ATOM      3  C   LIG A   1      -8.470  -0.005 124.322  0.00  0.00    +0.000 C 
ATOM      4  C   LIG A   1      -8.971  -0.998 125.070  0.00  0.00    +0.023 C 
ATOM      5  C   LIG A   1      -8.279  -2.352 125.219  0.00  0.00    +0.153 C 
ATOM      6  C   LIG A   1      -6.970  -2.420 124.346  0.00  0.00    +0.195 C 
ATOM      7  O   LIG A   1      -6.294  -3.451 124.235  0.00  0.00    -0.289 OA
ATOM      8  C   LIG A   1      -6.451  -1.208 123.672  0.00  0.00    +0.095 C 
ATOM      9  C   LIG A   1      -7.186  -0.089 123.707  0.00  0.00    +0.128 C 
ATOM     10  O   LIG A   1      -6.766   1.113 123.178  0.00  0.00    -0.483 OA
ATOM     11  C   LIG A   1      -7.696   2.110 123.677  0.00  0.00    +0.211 C 
ENDROOT
BRANCH  11  12
ATOM     12  C   LIG A   1      -7.040   2.866 124.822  0.00  0.00    +0.000 A 
ATOM     13  C   LIG A   1      -7.812   3.365 125.873  0.00  0.00    +0.057 A 
ATOM     14  C   LIG A   1      -7.229   4.139 126.888  0.00  0.00    +0.166 A 
ATOM     15  C   LIG A   1      -5.838   4.403 126.868  0.00  0.00    +0.203 A 
ATOM     16  C   LIG A   1      -5.041   3.816 125.871  0.00  0.00    +0.166 A 
ATOM     17  C   LIG A   1      -5.662   3.103 124.844  0.00  0.00    +0.057 A 
BRANCH  14  18
ATOM     18  O   LIG A   1      -7.963   4.636 127.941  0.00  0.00    -0.491 OA
ATOM     19  C   LIG A   1      -8.351   3.688 128.933  0.00  0.00    +0.277 C 
ENDBRANCH  14  18
BRANCH  16  20
ATOM     20  O   LIG A   1      -3.676   3.977 125.896  0.00  0.00    -0.491 OA
ATOM     21  C   LIG A   1      -2.932   2.936 126.528  0.00  0.00    +0.277 C 
ENDBRANCH  16  20
BRANCH  15  22
ATOM     22  O   LIG A   1      -5.362   5.220 127.869  0.00  0.00    -0.488 OA
ATOM     23  C   LIG A   1      -4.845   4.571 129.030  0.00  0.00    +0.277 C 
ENDBRANCH  15  22
ENDBRANCH  11  12
BRANCH   5  24
ATOM     24  O   LIG A   1      -9.280  -3.299 124.812  0.00  0.00    -0.364 OA
ATOM     25  C   LIG A   1      -9.600  -3.322 123.426  0.00  0.00    +0.195 C 
ENDBRANCH   5  24
BRANCH   5  26
ATOM     26  C   LIG A   1      -7.834  -2.583 126.697  0.00  0.00    +0.074 C 
BRANCH  26  27
ATOM     27  C   LIG A   1      -8.696  -3.530 127.501  0.00  0.00    -0.031 C 
ATOM     28  C   LIG A   1      -8.683  -3.605 128.837  0.00  0.00    +0.004 C 
ENDBRANCH  26  27
ENDBRANCH   5  26
TORSDOF 7
ENDMDL
MODEL 2
REMARK VINA RESULT:      -7.0      0.212      2.271
REMARK  Name = NuBBE_1834
REMARK  12 active torsions:
REMARK  status: ('A' for Active; 'I' for Inactive)
REMARK    1  A    between atoms: C_1  and  C_2
REMARK    2  A    between atoms: C_6  and  C_26
REMARK    3  A    between atoms: C_6  and  O_29
REMARK    4  A    between atoms: C_12  and  C_14
REMARK    5  A    between atoms: C_16  and  O_17
REMARK    6  A    between atoms: O_17  and  C_18
REMARK    7  A    between atoms: C_19  and  O_24
REMARK    8  A    between atoms: C_20  and  O_22
REMARK    9  A    between atoms: O_22  and  C_23
REMARK   10  A    between atoms: O_24  and  C_25
REMARK   11  A    between atoms: C_26  and  C_27
REMARK   12  A    between atoms: O_29  and  C_30
REMARK                            x       y       z     vdW  Elec       q    Type
REMARK                         _______ _______ _______ _____ _____    ______ ____
ROOT
ATOM      1  C   LIG A   1      -9.962   1.326 122.729  0.00  0.00    +0.016 C 
ATOM      2  C   LIG A   1      -9.049   1.391 123.951  0.00  0.00    +0.065 C 
ATOM      3  C   LIG A   1      -8.517   0.041 124.315  0.00  0.00    +0.000 C 
ATOM      4  C   LIG A   1      -9.039  -0.930 125.076  0.00  0.00    +0.023 C 
ATOM      5  C   LIG A   1      -8.336  -2.266 125.310  0.00  0.00    +0.153 C 
ATOM      6  C   LIG A   1      -6.985  -2.345 124.504  0.00  0.00    +0.195 C 
ATOM      7  O   LIG A   1      -6.290  -3.370 124.466  0.00  0.00    -0.289 OA
ATOM      8  C   LIG A   1      -6.452  -1.152 123.809  0.00  0.00    +0.095 C 
ATOM      9  C   LIG A   1      -7.203  -0.044 123.765  0.00  0.00    +0.128 C 
ATOM     10  O   LIG A   1      -6.776   1.143 123.211  0.00  0.00    -0.483 OA
ATOM     11  C   LIG A   1      -7.743   2.143 123.626  0.00  0.00    +0.211 C 
ENDROOT
BRANCH  11  12
ATOM     12  C   LIG A   1      -7.154   2.953 124.770  0.00  0.00    +0.000 A 
ATOM     13  C   LIG A   1      -5.779   3.189 124.833  0.00  0.00    +0.057 A 
ATOM     14  C   LIG A   1      -5.215   3.859 125.929  0.00  0.00    +0.166 A 
ATOM     15  C   LIG A   1      -6.043   4.325 126.979  0.00  0.00    +0.203 A 
ATOM     16  C   LIG A   1      -7.438   4.182 126.869  0.00  0.00    +0.166 A 
ATOM     17  C   LIG A   1      -7.958   3.458 125.796  0.00  0.00    +0.057 A 
BRANCH  14  18
ATOM     18  O   LIG A   1      -3.865   4.115 126.015  0.00  0.00    -0.491 OA
ATOM     19  C   LIG A   1      -3.038   3.002 126.346  0.00  0.00    +0.277 C 
ENDBRANCH  14  18
BRANCH  16  20
ATOM     20  O   LIG A   1      -8.263   4.719 127.828  0.00  0.00    -0.491 OA
ATOM     21  C   LIG A   1      -8.584   3.870 128.929  0.00  0.00    +0.277 C 
ENDBRANCH  16  20
BRANCH  15  22
ATOM     22  O   LIG A   1      -5.401   4.918 128.042  0.00  0.00    -0.488 OA
ATOM     23  C   LIG A   1      -5.125   4.084 129.167  0.00  0.00    +0.277 C 
ENDBRANCH  15  22
ENDBRANCH  11  12
BRANCH   5  24
ATOM     24  O   LIG A   1      -9.302  -3.244 124.893  0.00  0.00    -0.364 OA
ATOM     25  C   LIG A   1      -9.559  -3.321 123.496  0.00  0.00    +0.195 C 
ENDBRANCH   5  24
BRANCH   5  26
ATOM     26  C   LIG A   1      -7.960  -2.433 126.816  0.00  0.00    +0.074 C 
BRANCH  26  27
ATOM     27  C   LIG A   1      -8.673  -3.545 127.551  0.00  0.00    -0.031 C 
ATOM     28  C   LIG A   1      -8.715  -3.657 128.884  0.00  0.00    +0.004 C 
ENDBRANCH  26  27
ENDBRANCH   5  26
TORSDOF 7
ENDMDL
MODEL 3
REMARK VINA RESULT:      -6.9      2.040      4.069
REMARK  Name = NuBBE_1834
REMARK  12 active torsions:
REMARK  status: ('A' for Active; 'I' for Inactive)
REMARK    1  A    between atoms: C_1  and  C_2
REMARK    2  A    between atoms: C_6  and  C_26
REMARK    3  A    between atoms: C_6  and  O_29
REMARK    4  A    between atoms: C_12  and  C_14
REMARK    5  A    between atoms: C_16  and  O_17
REMARK    6  A    between atoms: O_17  and  C_18
REMARK    7  A    between atoms: C_19  and  O_24
REMARK    8  A    between atoms: C_20  and  O_22
REMARK    9  A    between atoms: O_22  and  C_23
REMARK   10  A    between atoms: O_24  and  C_25
REMARK   11  A    between atoms: C_26  and  C_27
REMARK   12  A    between atoms: O_29  and  C_30
REMARK                            x       y       z     vdW  Elec       q    Type
REMARK                         _______ _______ _______ _____ _____    ______ ____
ROOT
ATOM      1  C   LIG A   1      -4.784  -2.665 128.665  0.00  0.00    +0.016 C 
ATOM      2  C   LIG A   1      -5.386  -1.574 127.782  0.00  0.00    +0.065 C 
ATOM      3  C   LIG A   1      -6.051  -2.147 126.571  0.00  0.00    +0.000 C 
ATOM      4  C   LIG A   1      -5.551  -2.483 125.374  0.00  0.00    +0.023 C 
ATOM      5  C   LIG A   1      -6.407  -3.084 124.260  0.00  0.00    +0.153 C 
ATOM      6  C   LIG A   1      -7.893  -3.296 124.737  0.00  0.00    +0.195 C 
ATOM      7  O   LIG A   1      -8.746  -3.856 124.035  0.00  0.00    -0.289 OA
ATOM      8  C   LIG A   1      -8.351  -2.757 126.038  0.00  0.00    +0.095 C 
ATOM      9  C   LIG A   1      -7.447  -2.207 126.859  0.00  0.00    +0.128 C 
ATOM     10  O   LIG A   1      -7.773  -1.609 128.057  0.00  0.00    -0.483 OA
ATOM     11  C   LIG A   1      -6.582  -0.896 128.480  0.00  0.00    +0.211 C 
ENDROOT
BRANCH  11  12
ATOM     12  C   LIG A   1      -6.761   0.583 128.177  0.00  0.00    +0.000 A 
ATOM     13  C   LIG A   1      -7.862   1.280 128.681  0.00  0.00    +0.057 A 
ATOM     14  C   LIG A   1      -8.084   2.621 128.335  0.00  0.00    +0.166 A 
ATOM     15  C   LIG A   1      -7.173   3.294 127.486  0.00  0.00    +0.203 A 
ATOM     16  C   LIG A   1      -6.009   2.630 127.061  0.00  0.00    +0.166 A 
ATOM     17  C   LIG A   1      -5.852   1.279 127.373  0.00  0.00    +0.057 A 
BRANCH  14  18
ATOM     18  O   LIG A   1      -9.154   3.335 128.824  0.00  0.00    -0.491 OA
ATOM     19  C   LIG A   1      -9.388   3.226 130.227  0.00  0.00    +0.277 C 
ENDBRANCH  14  18
BRANCH  16  20
ATOM     20  O   LIG A   1      -5.065   3.300 126.321  0.00  0.00    -0.491 OA
ATOM     21  C   LIG A   1      -3.704   3.091 126.700  0.00  0.00    +0.277 C 
ENDBRANCH  16  20
BRANCH  15  22
ATOM     22  O   LIG A   1      -7.499   4.589 127.151  0.00  0.00    -0.488 OA
ATOM     23  C   LIG A   1      -8.060   4.791 125.855  0.00  0.00    +0.277 C 
ENDBRANCH  15  22
ENDBRANCH  11  12
BRANCH   5  24
ATOM     24  O   LIG A   1      -5.737  -4.312 123.934  0.00  0.00    -0.364 OA
ATOM     25  C   LIG A   1      -4.358  -4.208 123.597  0.00  0.00    +0.195 C 
ENDBRANCH   5  24
BRANCH   5  26
ATOM     26  C   LIG A   1      -6.471  -2.120 123.034  0.00  0.00    +0.074 C 
BRANCH  26  27
ATOM     27  C   LIG A   1      -7.384  -0.924 123.187  0.00  0.00    -0.031 C 
ATOM     28  C   LIG A   1      -6.985   0.271 123.638  0.00  0.00    +0.004 C 
ENDBRANCH  26  27
ENDBRANCH   5  26
TORSDOF 7
ENDMDL
MODEL 4
REMARK VINA RESULT:      -6.8      2.424      4.826
REMARK  Name = NuBBE_1834
REMARK  12 active torsions:
REMARK  status: ('A' for Active; 'I' for Inactive)
REMARK    1  A    between atoms: C_1  and  C_2
REMARK    2  A    between atoms: C_6  and  C_26
REMARK    3  A    between atoms: C_6  and  O_29
REMARK    4  A    between atoms: C_12  and  C_14
REMARK    5  A    between atoms: C_16  and  O_17
REMARK    6  A    between atoms: O_17  and  C_18
REMARK    7  A    between atoms: C_19  and  O_24
REMARK    8  A    between atoms: C_20  and  O_22
REMARK    9  A    between atoms: O_22  and  C_23
REMARK   10  A    between atoms: O_24  and  C_25
REMARK   11  A    between atoms: C_26  and  C_27
REMARK   12  A    between atoms: O_29  and  C_30
REMARK                            x       y       z     vdW  Elec       q    Type
REMARK                         _______ _______ _______ _____ _____    ______ ____
ROOT
ATOM      1  C   LIG A   1      -4.950  -2.831 128.884  0.00  0.00    +0.016 C 
ATOM      2  C   LIG A   1      -5.897  -1.770 128.329  0.00  0.00    +0.065 C 
ATOM      3  C   LIG A   1      -6.538  -2.214 127.052  0.00  0.00    +0.000 C 
ATOM      4  C   LIG A   1      -6.113  -2.129 125.784  0.00  0.00    +0.023 C 
ATOM      5  C   LIG A   1      -6.918  -2.672 124.604  0.00  0.00    +0.153 C 
ATOM      6  C   LIG A   1      -8.242  -3.370 125.093  0.00  0.00    +0.195 C 
ATOM      7  O   LIG A   1      -9.007  -3.965 124.322  0.00  0.00    -0.289 OA
ATOM      8  C   LIG A   1      -8.664  -3.275 126.509  0.00  0.00    +0.095 C 
ATOM      9  C   LIG A   1      -7.834  -2.703 127.391  0.00  0.00    +0.128 C 
ATOM     10  O   LIG A   1      -8.156  -2.497 128.715  0.00  0.00    -0.483 OA
ATOM     11  C   LIG A   1      -7.135  -1.606 129.235  0.00  0.00    +0.211 C 
ENDROOT
BRANCH  11  12
ATOM     12  C   LIG A   1      -7.703  -0.198 129.314  0.00  0.00    +0.000 A 
ATOM     13  C   LIG A   1      -8.170   0.308 130.530  0.00  0.00    +0.057 A 
ATOM     14  C   LIG A   1      -8.777   1.571 130.597  0.00  0.00    +0.166 A 
ATOM     15  C   LIG A   1      -8.902   2.361 129.428  0.00  0.00    +0.203 A 
ATOM     16  C   LIG A   1      -8.340   1.900 128.224  0.00  0.00    +0.166 A 
ATOM     17  C   LIG A   1      -7.799   0.615 128.181  0.00  0.00    +0.057 A 
BRANCH  14  18
ATOM     18  O   LIG A   1      -9.236   2.100 131.782  0.00  0.00    -0.491 OA
ATOM     19  C   LIG A   1      -8.267   2.244 132.818  0.00  0.00    +0.277 C 
ENDBRANCH  14  18
BRANCH  16  20
ATOM     20  O   LIG A   1      -8.362   2.698 127.105  0.00  0.00    -0.491 OA
ATOM     21  C   LIG A   1      -7.095   2.985 126.513  0.00  0.00    +0.277 C 
ENDBRANCH  16  20
BRANCH  15  22
ATOM     22  O   LIG A   1      -9.562   3.559 129.573  0.00  0.00    -0.488 OA
ATOM     23  C   LIG A   1      -8.750   4.721 129.731  0.00  0.00    +0.277 C 
ENDBRANCH  15  22
ENDBRANCH  11  12
BRANCH   5  24
ATOM     24  O   LIG A   1      -6.010  -3.574 123.951  0.00  0.00    -0.364 OA
ATOM     25  C   LIG A   1      -4.743  -3.038 123.585  0.00  0.00    +0.195 C 
ENDBRANCH   5  24
BRANCH   5  26
ATOM     26  C   LIG A   1      -7.356  -1.510 123.658  0.00  0.00    +0.074 C 
BRANCH  26  27
ATOM     27  C   LIG A   1      -7.693  -0.202 124.337  0.00  0.00    -0.031 C 
ATOM     28  C   LIG A   1      -8.935   0.184 124.646  0.00  0.00    +0.004 C 
ENDBRANCH  26  27
ENDBRANCH   5  26
TORSDOF 7
ENDMDL
MODEL 5
REMARK VINA RESULT:      -6.7      2.201      4.790
REMARK  Name = NuBBE_1834
REMARK  12 active torsions:
REMARK  status: ('A' for Active; 'I' for Inactive)
REMARK    1  A    between atoms: C_1  and  C_2
REMARK    2  A    between atoms: C_6  and  C_26
REMARK    3  A    between atoms: C_6  and  O_29
REMARK    4  A    between atoms: C_12  and  C_14
REMARK    5  A    between atoms: C_16  and  O_17
REMARK    6  A    between atoms: O_17  and  C_18
REMARK    7  A    between atoms: C_19  and  O_24
REMARK    8  A    between atoms: C_20  and  O_22
REMARK    9  A    between atoms: O_22  and  C_23
REMARK   10  A    between atoms: O_24  and  C_25
REMARK   11  A    between atoms: C_26  and  C_27
REMARK   12  A    between atoms: O_29  and  C_30
REMARK                            x       y       z     vdW  Elec       q    Type
REMARK                         _______ _______ _______ _____ _____    ______ ____
ROOT
ATOM      1  C   LIG A   1      -4.778  -2.896 128.805  0.00  0.00    +0.016 C 
ATOM      2  C   LIG A   1      -5.419  -1.716 128.079  0.00  0.00    +0.065 C 
ATOM      3  C   LIG A   1      -6.127  -2.151 126.835  0.00  0.00    +0.000 C 
ATOM      4  C   LIG A   1      -5.672  -2.340 125.589  0.00  0.00    +0.023 C 
ATOM      5  C   LIG A   1      -6.566  -2.816 124.445  0.00  0.00    +0.153 C 
ATOM      6  C   LIG A   1      -8.032  -3.096 124.949  0.00  0.00    +0.195 C 
ATOM      7  O   LIG A   1      -8.908  -3.579 124.219  0.00  0.00    -0.289 OA
ATOM      8  C   LIG A   1      -8.442  -2.716 126.320  0.00  0.00    +0.095 C 
ATOM      9  C   LIG A   1      -7.511  -2.257 127.166  0.00  0.00    +0.128 C 
ATOM     10  O   LIG A   1      -7.794  -1.806 128.437  0.00  0.00    -0.483 OA
ATOM     11  C   LIG A   1      -6.591  -1.135 128.895  0.00  0.00    +0.211 C 
ENDROOT
BRANCH  11  12
ATOM     12  C   LIG A   1      -6.790   0.368 128.774  0.00  0.00    +0.000 A 
ATOM     13  C   LIG A   1      -5.729   1.192 128.390  0.00  0.00    +0.057 A 
ATOM     14  C   LIG A   1      -5.877   2.586 128.361  0.00  0.00    +0.166 A 
ATOM     15  C   LIG A   1      -7.119   3.175 128.699  0.00  0.00    +0.203 A 
ATOM     16  C   LIG A   1      -8.218   2.346 128.984  0.00  0.00    +0.166 A 
ATOM     17  C   LIG A   1      -8.019   0.968 129.063  0.00  0.00    +0.057 A 
BRANCH  14  18
ATOM     18  O   LIG A   1      -4.853   3.423 127.977  0.00  0.00    -0.491 OA
ATOM     19  C   LIG A   1      -3.682   3.388 128.790  0.00  0.00    +0.277 C 
ENDBRANCH  14  18
BRANCH  16  20
ATOM     20  O   LIG A   1      -9.456   2.898 129.213  0.00  0.00    -0.491 OA
ATOM     21  C   LIG A   1      -9.865   2.980 130.578  0.00  0.00    +0.277 C 
ENDBRANCH  16  20
BRANCH  15  22
ATOM     22  O   LIG A   1      -7.158   4.551 128.701  0.00  0.00    -0.488 OA
ATOM     23  C   LIG A   1      -6.964   5.193 129.960  0.00  0.00    +0.277 C 
ENDBRANCH  15  22
ENDBRANCH  11  12
BRANCH   5  24
ATOM     24  O   LIG A   1      -5.902  -3.991 123.953  0.00  0.00    -0.364 OA
ATOM     25  C   LIG A   1      -4.540  -3.833 123.575  0.00  0.00    +0.195 C 
ENDBRANCH   5  24
BRANCH   5  26
ATOM     26  C   LIG A   1      -6.682  -1.716 123.344  0.00  0.00    +0.074 C 
BRANCH  26  27
ATOM     27  C   LIG A   1      -6.854  -0.300 123.846  0.00  0.00    -0.031 C 
ATOM     28  C   LIG A   1      -7.981   0.410 123.716  0.00  0.00    +0.004 C 
ENDBRANCH  26  27
ENDBRANCH   5  26
TORSDOF 7
ENDMDL
MODEL 6
REMARK VINA RESULT:      -6.7      3.358      6.484
REMARK  Name = NuBBE_1834
REMARK  12 active torsions:
REMARK  status: ('A' for Active; 'I' for Inactive)
REMARK    1  A    between atoms: C_1  and  C_2
REMARK    2  A    between atoms: C_6  and  C_26
REMARK    3  A    between atoms: C_6  and  O_29
REMARK    4  A    between atoms: C_12  and  C_14
REMARK    5  A    between atoms: C_16  and  O_17
REMARK    6  A    between atoms: O_17  and  C_18
REMARK    7  A    between atoms: C_19  and  O_24
REMARK    8  A    between atoms: C_20  and  O_22
REMARK    9  A    between atoms: O_22  and  C_23
REMARK   10  A    between atoms: O_24  and  C_25
REMARK   11  A    between atoms: C_26  and  C_27
REMARK   12  A    between atoms: O_29  and  C_30
REMARK                            x       y       z     vdW  Elec       q    Type
REMARK                         _______ _______ _______ _____ _____    ______ ____
ROOT
ATOM      1  C   LIG A   1      -7.259  -3.243 124.321  0.00  0.00    +0.016 C 
ATOM      2  C   LIG A   1      -6.859  -2.326 125.474  0.00  0.00    +0.065 C 
ATOM      3  C   LIG A   1      -7.232  -0.903 125.204  0.00  0.00    +0.000 C 
ATOM      4  C   LIG A   1      -6.577   0.064 124.547  0.00  0.00    +0.023 C 
ATOM      5  C   LIG A   1      -7.148   1.469 124.358  0.00  0.00    +0.153 C 
ATOM      6  C   LIG A   1      -8.591   1.583 124.980  0.00  0.00    +0.195 C 
ATOM      7  O   LIG A   1      -9.289   2.600 124.866  0.00  0.00    -0.289 OA
ATOM      8  C   LIG A   1      -9.147   0.483 125.800  0.00  0.00    +0.095 C 
ATOM      9  C   LIG A   1      -8.459  -0.662 125.891  0.00  0.00    +0.128 C 
ATOM     10  O   LIG A   1      -8.845  -1.721 126.684  0.00  0.00    -0.483 OA
ATOM     11  C   LIG A   1      -7.705  -2.617 126.731  0.00  0.00    +0.211 C 
ENDROOT
BRANCH  11  12
ATOM     12  C   LIG A   1      -6.986  -2.431 128.058  0.00  0.00    +0.000 A 
ATOM     13  C   LIG A   1      -5.593  -2.511 128.125  0.00  0.00    +0.057 A 
ATOM     14  C   LIG A   1      -4.927  -2.430 129.356  0.00  0.00    +0.166 A 
ATOM     15  C   LIG A   1      -5.664  -2.240 130.550  0.00  0.00    +0.203 A 
ATOM     16  C   LIG A   1      -7.056  -2.054 130.477  0.00  0.00    +0.166 A 
ATOM     17  C   LIG A   1      -7.691  -2.202 129.244  0.00  0.00    +0.057 A 
BRANCH  14  18
ATOM     18  O   LIG A   1      -3.555  -2.495 129.452  0.00  0.00    -0.491 OA
ATOM     19  C   LIG A   1      -2.963  -3.739 129.084  0.00  0.00    +0.277 C 
ENDBRANCH  14  18
BRANCH  16  20
ATOM     20  O   LIG A   1      -7.773  -1.767 131.613  0.00  0.00    -0.491 OA
ATOM     21  C   LIG A   1      -8.383  -0.477 131.663  0.00  0.00    +0.277 C 
ENDBRANCH  16  20
BRANCH  15  22
ATOM     22  O   LIG A   1      -4.936  -2.231 131.718  0.00  0.00    -0.488 OA
ATOM     23  C   LIG A   1      -4.898  -3.452 132.456  0.00  0.00    +0.277 C 
ENDBRANCH  15  22
ENDBRANCH  11  12
BRANCH   5  24
ATOM     24  O   LIG A   1      -7.127   1.663 122.935  0.00  0.00    -0.364 OA
ATOM     25  C   LIG A   1      -6.623   2.912 122.477  0.00  0.00    +0.195 C 
ENDBRANCH   5  24
BRANCH   5  26
ATOM     26  C   LIG A   1      -6.267   2.524 125.097  0.00  0.00    +0.074 C 
BRANCH  26  27
ATOM     27  C   LIG A   1      -5.408   1.990 126.221  0.00  0.00    -0.031 C 
ATOM     28  C   LIG A   1      -5.792   1.946 127.502  0.00  0.00    +0.004 C 
ENDBRANCH  26  27
ENDBRANCH   5  26
TORSDOF 7
ENDMDL
MODEL 7
REMARK VINA RESULT:      -6.6      3.650      5.106
REMARK  Name = NuBBE_1834
REMARK  12 active torsions:
REMARK  status: ('A' for Active; 'I' for Inactive)
REMARK    1  A    between atoms: C_1  and  C_2
REMARK    2  A    between atoms: C_6  and  C_26
REMARK    3  A    between atoms: C_6  and  O_29
REMARK    4  A    between atoms: C_12  and  C_14
REMARK    5  A    between atoms: C_16  and  O_17
REMARK    6  A    between atoms: O_17  and  C_18
REMARK    7  A    between atoms: C_19  and  O_24
REMARK    8  A    between atoms: C_20  and  O_22
REMARK    9  A    between atoms: O_22  and  C_23
REMARK   10  A    between atoms: O_24  and  C_25
REMARK   11  A    between atoms: C_26  and  C_27
REMARK   12  A    between atoms: O_29  and  C_30
REMARK                            x       y       z     vdW  Elec       q    Type
REMARK                         _______ _______ _______ _____ _____    ______ ____
ROOT
ATOM      1  C   LIG A   1      -8.233   2.210 125.933  0.00  0.00    +0.016 C 
ATOM      2  C   LIG A   1      -8.101   1.084 126.955  0.00  0.00    +0.065 C 
ATOM      3  C   LIG A   1      -7.761  -0.218 126.303  0.00  0.00    +0.000 C 
ATOM      4  C   LIG A   1      -8.547  -1.155 125.755  0.00  0.00    +0.023 C 
ATOM      5  C   LIG A   1      -7.994  -2.424 125.109  0.00  0.00    +0.153 C 
ATOM      6  C   LIG A   1      -6.419  -2.434 125.133  0.00  0.00    +0.195 C 
ATOM      7  O   LIG A   1      -5.748  -3.318 124.583  0.00  0.00    -0.289 OA
ATOM      8  C   LIG A   1      -5.671  -1.405 125.891  0.00  0.00    +0.095 C 
ATOM      9  C   LIG A   1      -6.352  -0.391 126.441  0.00  0.00    +0.128 C 
ATOM     10  O   LIG A   1      -5.768   0.578 127.228  0.00  0.00    -0.483 OA
ATOM     11  C   LIG A   1      -6.865   1.293 127.853  0.00  0.00    +0.211 C 
ENDROOT
BRANCH  11  12
ATOM     12  C   LIG A   1      -7.011   0.814 129.288  0.00  0.00    +0.000 A 
ATOM     13  C   LIG A   1      -5.906   0.319 129.984  0.00  0.00    +0.057 A 
ATOM     14  C   LIG A   1      -6.047  -0.207 131.277  0.00  0.00    +0.166 A 
ATOM     15  C   LIG A   1      -7.317  -0.220 131.902  0.00  0.00    +0.203 A 
ATOM     16  C   LIG A   1      -8.412   0.372 131.248  0.00  0.00    +0.166 A 
ATOM     17  C   LIG A   1      -8.248   0.830 129.940  0.00  0.00    +0.057 A 
BRANCH  14  18
ATOM     18  O   LIG A   1      -4.974  -0.692 131.991  0.00  0.00    -0.491 OA
ATOM     19  C   LIG A   1      -4.160  -1.651 131.319  0.00  0.00    +0.277 C 
ENDBRANCH  14  18
BRANCH  16  20
ATOM     20  O   LIG A   1      -9.628   0.460 131.882  0.00  0.00    -0.491 OA
ATOM     21  C   LIG A   1     -10.118   1.780 132.122  0.00  0.00    +0.277 C 
ENDBRANCH  16  20
BRANCH  15  22
ATOM     22  O   LIG A   1      -7.376  -0.808 133.145  0.00  0.00    -0.488 OA
ATOM     23  C   LIG A   1      -7.777  -2.177 133.186  0.00  0.00    +0.277 C 
ENDBRANCH  15  22
ENDBRANCH  11  12
BRANCH   5  24
ATOM     24  O   LIG A   1      -8.540  -2.403 123.780  0.00  0.00    -0.364 OA
ATOM     25  C   LIG A   1      -9.555  -3.360 123.500  0.00  0.00    +0.195 C 
ENDBRANCH   5  24
BRANCH   5  26
ATOM     26  C   LIG A   1      -8.454  -3.689 125.900  0.00  0.00    +0.074 C 
BRANCH  26  27
ATOM     27  C   LIG A   1      -9.018  -3.431 127.279  0.00  0.00    -0.031 C 
ATOM     28  C   LIG A   1      -8.342  -3.636 128.415  0.00  0.00    +0.004 C 
ENDBRANCH  26  27
ENDBRANCH   5  26
TORSDOF 7
ENDMDL
MODEL 8
REMARK VINA RESULT:      -6.6      3.370      6.088
REMARK  Name = NuBBE_1834
REMARK  12 active torsions:
REMARK  status: ('A' for Active; 'I' for Inactive)
REMARK    1  A    between atoms: C_1  and  C_2
REMARK    2  A    between atoms: C_6  and  C_26
REMARK    3  A    between atoms: C_6  and  O_29
REMARK    4  A    between atoms: C_12  and  C_14
REMARK    5  A    between atoms: C_16  and  O_17
REMARK    6  A    between atoms: O_17  and  C_18
REMARK    7  A    between atoms: C_19  and  O_24
REMARK    8  A    between atoms: C_20  and  O_22
REMARK    9  A    between atoms: O_22  and  C_23
REMARK   10  A    between atoms: O_24  and  C_25
REMARK   11  A    between atoms: C_26  and  C_27
REMARK   12  A    between atoms: O_29  and  C_30
REMARK                            x       y       z     vdW  Elec       q    Type
REMARK                         _______ _______ _______ _____ _____    ______ ____
ROOT
ATOM      1  C   LIG A   1      -6.938  -3.059 124.250  0.00  0.00    +0.016 C 
ATOM      2  C   LIG A   1      -6.643  -2.164 125.452  0.00  0.00    +0.065 C 
ATOM      3  C   LIG A   1      -7.079  -0.754 125.210  0.00  0.00    +0.000 C 
ATOM      4  C   LIG A   1      -6.447   0.268 124.619  0.00  0.00    +0.023 C 
ATOM      5  C   LIG A   1      -7.083   1.647 124.448  0.00  0.00    +0.153 C 
ATOM      6  C   LIG A   1      -8.558   1.664 124.999  0.00  0.00    +0.195 C 
ATOM      7  O   LIG A   1      -9.303   2.647 124.884  0.00  0.00    -0.289 OA
ATOM      8  C   LIG A   1      -9.093   0.508 125.754  0.00  0.00    +0.095 C 
ATOM      9  C   LIG A   1      -8.349  -0.602 125.842  0.00  0.00    +0.128 C 
ATOM     10  O   LIG A   1      -8.716  -1.707 126.580  0.00  0.00    -0.483 OA
ATOM     11  C   LIG A   1      -7.532  -2.543 126.654  0.00  0.00    +0.211 C 
ENDROOT
BRANCH  11  12
ATOM     12  C   LIG A   1      -6.890  -2.368 128.021  0.00  0.00    +0.000 A 
ATOM     13  C   LIG A   1      -7.678  -2.098 129.142  0.00  0.00    +0.057 A 
ATOM     14  C   LIG A   1      -7.090  -1.847 130.390  0.00  0.00    +0.166 A 
ATOM     15  C   LIG A   1      -5.681  -1.889 130.532  0.00  0.00    +0.203 A 
ATOM     16  C   LIG A   1      -4.890  -2.263 129.431  0.00  0.00    +0.166 A 
ATOM     17  C   LIG A   1      -5.504  -2.446 128.192  0.00  0.00    +0.057 A 
BRANCH  14  18
ATOM     18  O   LIG A   1      -7.841  -1.588 131.515  0.00  0.00    -0.491 OA
ATOM     19  C   LIG A   1      -8.572  -0.363 131.508  0.00  0.00    +0.277 C 
ENDBRANCH  14  18
BRANCH  16  20
ATOM     20  O   LIG A   1      -3.532  -2.410 129.577  0.00  0.00    -0.491 OA
ATOM     21  C   LIG A   1      -2.986  -3.663 129.166  0.00  0.00    +0.277 C 
ENDBRANCH  16  20
BRANCH  15  22
ATOM     22  O   LIG A   1      -5.186  -1.572 131.777  0.00  0.00    -0.488 OA
ATOM     23  C   LIG A   1      -4.864  -2.667 132.633  0.00  0.00    +0.277 C 
ENDBRANCH  15  22
ENDBRANCH  11  12
BRANCH   5  24
ATOM     24  O   LIG A   1      -7.003   1.893 123.035  0.00  0.00    -0.364 OA
ATOM     25  C   LIG A   1      -6.561   3.187 122.644  0.00  0.00    +0.195 C 
ENDBRANCH   5  24
BRANCH   5  26
ATOM     26  C   LIG A   1      -6.296   2.720 125.264  0.00  0.00    +0.074 C 
BRANCH  26  27
ATOM     27  C   LIG A   1      -5.069   2.221 125.993  0.00  0.00    -0.031 C 
ATOM     28  C   LIG A   1      -4.045   3.000 126.359  0.00  0.00    +0.004 C 
ENDBRANCH  26  27
ENDBRANCH   5  26
TORSDOF 7
ENDMDL
MODEL 9
REMARK VINA RESULT:      -6.6      2.874      3.880
REMARK  Name = NuBBE_1834
REMARK  12 active torsions:
REMARK  status: ('A' for Active; 'I' for Inactive)
REMARK    1  A    between atoms: C_1  and  C_2
REMARK    2  A    between atoms: C_6  and  C_26
REMARK    3  A    between atoms: C_6  and  O_29
REMARK    4  A    between atoms: C_12  and  C_14
REMARK    5  A    between atoms: C_16  and  O_17
REMARK    6  A    between atoms: O_17  and  C_18
REMARK    7  A    between atoms: C_19  and  O_24
REMARK    8  A    between atoms: C_20  and  O_22
REMARK    9  A    between atoms: O_22  and  C_23
REMARK   10  A    between atoms: O_24  and  C_25
REMARK   11  A    between atoms: C_26  and  C_27
REMARK   12  A    between atoms: O_29  and  C_30
REMARK                            x       y       z     vdW  Elec       q    Type
REMARK                         _______ _______ _______ _____ _____    ______ ____
ROOT
ATOM      1  C   LIG A   1      -9.315   1.908 124.739  0.00  0.00    +0.016 C 
ATOM      2  C   LIG A   1      -9.075   1.063 125.988  0.00  0.00    +0.065 C 
ATOM      3  C   LIG A   1      -8.429  -0.244 125.654  0.00  0.00    +0.000 C 
ATOM      4  C   LIG A   1      -8.963  -1.414 125.277  0.00  0.00    +0.023 C 
ATOM      5  C   LIG A   1      -8.117  -2.645 124.954  0.00  0.00    +0.153 C 
ATOM      6  C   LIG A   1      -6.579  -2.323 125.071  0.00  0.00    +0.195 C 
ATOM      7  O   LIG A   1      -5.701  -3.141 124.766  0.00  0.00    -0.289 OA
ATOM      8  C   LIG A   1      -6.121  -1.031 125.630  0.00  0.00    +0.095 C 
ATOM      9  C   LIG A   1      -7.034  -0.091 125.907  0.00  0.00    +0.128 C 
ATOM     10  O   LIG A   1      -6.727   1.116 126.497  0.00  0.00    -0.483 OA
ATOM     11  C   LIG A   1      -7.997   1.700 126.888  0.00  0.00    +0.211 C 
ENDROOT
BRANCH  11  12
ATOM     12  C   LIG A   1      -8.192   1.498 128.382  0.00  0.00    +0.000 A 
ATOM     13  C   LIG A   1      -8.882   2.448 129.139  0.00  0.00    +0.057 A 
ATOM     14  C   LIG A   1      -8.992   2.317 130.531  0.00  0.00    +0.166 A 
ATOM     15  C   LIG A   1      -8.421   1.198 131.185  0.00  0.00    +0.203 A 
ATOM     16  C   LIG A   1      -7.817   0.187 130.416  0.00  0.00    +0.166 A 
ATOM     17  C   LIG A   1      -7.672   0.381 129.043  0.00  0.00    +0.057 A 
BRANCH  14  18
ATOM     18  O   LIG A   1      -9.674   3.231 131.301  0.00  0.00    -0.491 OA
ATOM     19  C   LIG A   1     -10.591   4.072 130.605  0.00  0.00    +0.277 C 
ENDBRANCH  14  18
BRANCH  16  20
ATOM     20  O   LIG A   1      -7.349  -0.953 131.024  0.00  0.00    -0.491 OA
ATOM     21  C   LIG A   1      -5.931  -1.106 131.069  0.00  0.00    +0.277 C 
ENDBRANCH  16  20
BRANCH  15  22
ATOM     22  O   LIG A   1      -8.524   1.179 132.557  0.00  0.00    -0.488 OA
ATOM     23  C   LIG A   1      -7.417   1.705 133.288  0.00  0.00    +0.277 C 
ENDBRANCH  15  22
ENDBRANCH  11  12
BRANCH   5  24
ATOM     24  O   LIG A   1      -8.521  -3.003 123.623  0.00  0.00    -0.364 OA
ATOM     25  C   LIG A   1      -8.221  -2.063 122.598  0.00  0.00    +0.195 C 
ENDBRANCH   5  24
BRANCH   5  26
ATOM     26  C   LIG A   1      -8.405  -3.792 125.973  0.00  0.00    +0.074 C 
BRANCH  26  27
ATOM     27  C   LIG A   1      -8.856  -3.351 127.347  0.00  0.00    -0.031 C 
ATOM     28  C   LIG A   1      -8.055  -3.293 128.416  0.00  0.00    +0.004 C 
ENDBRANCH  26  27
ENDBRANCH   5  26
TORSDOF 7
ENDMDL
