MODEL 1
REMARK VINA RESULT:      -8.1      0.000      0.000
REMARK  Name = NuBBE_562
REMARK  5 active torsions:
REMARK  status: ('A' for Active; 'I' for Inactive)
REMARK    1  A    between atoms: O_1  and  C_2
REMARK    2  A    between atoms: C_4  and  O_5
REMARK    3  A    between atoms: C_9  and  C_11
REMARK    4  A    between atoms: C_13  and  O_14
REMARK    5  A    between atoms: C_15  and  O_16
REMARK                            x       y       z     vdW  Elec       q    Type
REMARK                         _______ _______ _______ _____ _____    ______ ____
ROOT
ATOM      1  C   LIG A   1      -6.589  -1.991 123.568  0.00  0.00    +0.124 A 
ATOM      2  C   LIG A   1      -7.871  -2.347 123.164  0.00  0.00    +0.091 A 
ATOM      3  C   LIG A   1      -8.884  -1.382 123.168  0.00  0.00    +0.134 A 
ATOM      4  C   LIG A   1      -8.610  -0.066 123.566  0.00  0.00    +0.101 A 
ATOM      5  C   LIG A   1      -9.647   0.992 123.655  0.00  0.00    +0.174 C 
ATOM      6  C   LIG A   1      -9.235   2.234 124.391  0.00  0.00    +0.129 C 
ATOM      7  C   LIG A   1      -7.815   2.600 123.976  0.00  0.00    +0.211 C 
ATOM      8  O   LIG A   1      -6.916   1.534 124.334  0.00  0.00    -0.483 OA
ATOM      9  O   LIG A   1     -10.788   0.869 123.226  0.00  0.00    -0.292 OA
ATOM     10  C   LIG A   1      -7.308   0.277 123.949  0.00  0.00    +0.139 A 
ATOM     11  C   LIG A   1      -6.302  -0.690 123.962  0.00  0.00    +0.092 A 
ENDROOT
BRANCH   7  12
ATOM     12  C   LIG A   1      -7.625   3.088 122.537  0.00  0.00    -0.003 A 
ATOM     13  C   LIG A   1      -8.735   3.315 121.700  0.00  0.00    +0.056 A 
ATOM     14  C   LIG A   1      -8.550   3.800 120.406  0.00  0.00    +0.159 A 
ATOM     15  C   LIG A   1      -7.273   4.077 119.933  0.00  0.00    +0.158 A 
ATOM     16  C   LIG A   1      -6.166   3.881 120.738  0.00  0.00    +0.049 A 
ATOM     17  C   LIG A   1      -6.343   3.398 122.038  0.00  0.00    +0.011 A 
BRANCH  14  18
ATOM     18  O   LIG A   1      -9.603   4.030 119.564  0.00  0.00    -0.503 OA
ATOM     19  H   LIG A   1     -10.191   3.256 119.593  0.00  0.00    +0.292 HD
ENDBRANCH  14  18
BRANCH  15  20
ATOM     20  O   LIG A   1      -7.104   4.557 118.666  0.00  0.00    -0.503 OA
ATOM     21  H   LIG A   1      -7.406   5.485 118.715  0.00  0.00    +0.292 HD
ENDBRANCH  15  20
ENDBRANCH   7  12
BRANCH   1  22
ATOM     22  O   LIG A   1      -5.571  -2.896 123.595  0.00  0.00    -0.506 OA
ATOM     23  H   LIG A   1      -4.761  -2.465 123.915  0.00  0.00    +0.292 HD
ENDBRANCH   1  22
BRANCH   3  24
ATOM     24  O   LIG A   1     -10.147  -1.754 122.804  0.00  0.00    -0.506 OA
ATOM     25  H   LIG A   1     -10.227  -2.721 122.779  0.00  0.00    +0.292 HD
ENDBRANCH   3  24
TORSDOF 5
ENDMDL
MODEL 2
REMARK VINA RESULT:      -7.6      0.662      1.491
REMARK  Name = NuBBE_562
REMARK  5 active torsions:
REMARK  status: ('A' for Active; 'I' for Inactive)
REMARK    1  A    between atoms: O_1  and  C_2
REMARK    2  A    between atoms: C_4  and  O_5
REMARK    3  A    between atoms: C_9  and  C_11
REMARK    4  A    between atoms: C_13  and  O_14
REMARK    5  A    between atoms: C_15  and  O_16
REMARK                            x       y       z     vdW  Elec       q    Type
REMARK                         _______ _______ _______ _____ _____    ______ ____
ROOT
ATOM      1  C   LIG A   1      -6.550  -2.028 123.637  0.00  0.00    +0.124 A 
ATOM      2  C   LIG A   1      -7.811  -2.396 123.181  0.00  0.00    +0.091 A 
ATOM      3  C   LIG A   1      -8.847  -1.456 123.201  0.00  0.00    +0.134 A 
ATOM      4  C   LIG A   1      -8.616  -0.153 123.665  0.00  0.00    +0.101 A 
ATOM      5  C   LIG A   1      -9.681   0.875 123.773  0.00  0.00    +0.174 C 
ATOM      6  C   LIG A   1      -9.319   2.092 124.574  0.00  0.00    +0.129 C 
ATOM      7  C   LIG A   1      -7.898   2.509 124.216  0.00  0.00    +0.211 C 
ATOM      8  O   LIG A   1      -6.982   1.449 124.551  0.00  0.00    -0.483 OA
ATOM      9  O   LIG A   1     -10.807   0.746 123.306  0.00  0.00    -0.292 OA
ATOM     10  C   LIG A   1      -7.334   0.202 124.099  0.00  0.00    +0.139 A 
ATOM     11  C   LIG A   1      -6.305  -0.741 124.097  0.00  0.00    +0.092 A 
ENDROOT
BRANCH   7  12
ATOM     12  C   LIG A   1      -7.681   3.067 122.807  0.00  0.00    -0.003 A 
ATOM     13  C   LIG A   1      -6.384   3.338 122.331  0.00  0.00    +0.056 A 
ATOM     14  C   LIG A   1      -6.198   3.804 121.030  0.00  0.00    +0.159 A 
ATOM     15  C   LIG A   1      -7.286   3.994 120.186  0.00  0.00    +0.158 A 
ATOM     16  C   LIG A   1      -8.570   3.719 120.620  0.00  0.00    +0.049 A 
ATOM     17  C   LIG A   1      -8.765   3.247 121.922  0.00  0.00    +0.011 A 
BRANCH  14  18
ATOM     18  O   LIG A   1      -4.953   4.082 120.534  0.00  0.00    -0.503 OA
ATOM     19  H   LIG A   1      -5.040   4.282 119.586  0.00  0.00    +0.292 HD
ENDBRANCH  14  18
BRANCH  15  20
ATOM     20  O   LIG A   1      -7.091   4.446 118.913  0.00  0.00    -0.503 OA
ATOM     21  H   LIG A   1      -7.361   3.698 118.345  0.00  0.00    +0.292 HD
ENDBRANCH  15  20
ENDBRANCH   7  12
BRANCH   1  22
ATOM     22  O   LIG A   1      -5.511  -2.911 123.650  0.00  0.00    -0.506 OA
ATOM     23  H   LIG A   1      -4.671  -2.424 123.616  0.00  0.00    +0.292 HD
ENDBRANCH   1  22
BRANCH   3  24
ATOM     24  O   LIG A   1     -10.090  -1.840 122.785  0.00  0.00    -0.506 OA
ATOM     25  H   LIG A   1     -10.692  -1.080 122.752  0.00  0.00    +0.292 HD
ENDBRANCH   3  24
TORSDOF 5
ENDMDL
MODEL 3
REMARK VINA RESULT:      -7.4      2.832      6.744
REMARK  Name = NuBBE_562
REMARK  5 active torsions:
REMARK  status: ('A' for Active; 'I' for Inactive)
REMARK    1  A    between atoms: O_1  and  C_2
REMARK    2  A    between atoms: C_4  and  O_5
REMARK    3  A    between atoms: C_9  and  C_11
REMARK    4  A    between atoms: C_13  and  O_14
REMARK    5  A    between atoms: C_15  and  O_16
REMARK                            x       y       z     vdW  Elec       q    Type
REMARK                         _______ _______ _______ _____ _____    ______ ____
ROOT
ATOM      1  C   LIG A   1      -8.115   2.480 123.688  0.00  0.00    +0.124 A 
ATOM      2  C   LIG A   1      -9.417   2.133 123.342  0.00  0.00    +0.091 A 
ATOM      3  C   LIG A   1      -9.736   0.786 123.142  0.00  0.00    +0.134 A 
ATOM      4  C   LIG A   1      -8.760  -0.207 123.299  0.00  0.00    +0.101 A 
ATOM      5  C   LIG A   1      -9.013  -1.647 123.043  0.00  0.00    +0.174 C 
ATOM      6  C   LIG A   1      -7.785  -2.509 122.959  0.00  0.00    +0.129 C 
ATOM      7  C   LIG A   1      -6.820  -2.095 124.062  0.00  0.00    +0.211 C 
ATOM      8  O   LIG A   1      -6.431  -0.721 123.876  0.00  0.00    -0.483 OA
ATOM      9  O   LIG A   1     -10.125  -2.122 122.847  0.00  0.00    -0.292 OA
ATOM     10  C   LIG A   1      -7.461   0.161 123.670  0.00  0.00    +0.139 A 
ATOM     11  C   LIG A   1      -7.137   1.506 123.850  0.00  0.00    +0.092 A 
ENDROOT
BRANCH   7  12
ATOM     12  C   LIG A   1      -7.246  -2.408 125.499  0.00  0.00    -0.003 A 
ATOM     13  C   LIG A   1      -6.630  -1.764 126.590  0.00  0.00    +0.056 A 
ATOM     14  C   LIG A   1      -7.056  -2.027 127.891  0.00  0.00    +0.159 A 
ATOM     15  C   LIG A   1      -8.099  -2.914 128.126  0.00  0.00    +0.158 A 
ATOM     16  C   LIG A   1      -8.735  -3.548 127.073  0.00  0.00    +0.049 A 
ATOM     17  C   LIG A   1      -8.316  -3.287 125.765  0.00  0.00    +0.011 A 
BRANCH  14  18
ATOM     18  O   LIG A   1      -6.480  -1.423 128.975  0.00  0.00    -0.503 OA
ATOM     19  H   LIG A   1      -6.958  -0.595 129.153  0.00  0.00    +0.292 HD
ENDBRANCH  14  18
BRANCH  15  20
ATOM     20  O   LIG A   1      -8.512  -3.160 129.403  0.00  0.00    -0.503 OA
ATOM     21  H   LIG A   1      -9.090  -2.402 129.622  0.00  0.00    +0.292 HD
ENDBRANCH  15  20
ENDBRANCH   7  12
BRANCH   1  22
ATOM     22  O   LIG A   1      -7.749   3.779 123.881  0.00  0.00    -0.506 OA
ATOM     23  H   LIG A   1      -8.388   4.211 124.471  0.00  0.00    +0.292 HD
ENDBRANCH   1  22
BRANCH   3  24
ATOM     24  O   LIG A   1     -11.009   0.462 122.766  0.00  0.00    -0.506 OA
ATOM     25  H   LIG A   1     -11.031  -0.408 122.338  0.00  0.00    +0.292 HD
ENDBRANCH   3  24
TORSDOF 5
ENDMDL
MODEL 4
REMARK VINA RESULT:      -7.0      1.581      6.097
REMARK  Name = NuBBE_562
REMARK  5 active torsions:
REMARK  status: ('A' for Active; 'I' for Inactive)
REMARK    1  A    between atoms: O_1  and  C_2
REMARK    2  A    between atoms: C_4  and  O_5
REMARK    3  A    between atoms: C_9  and  C_11
REMARK    4  A    between atoms: C_13  and  O_14
REMARK    5  A    between atoms: C_15  and  O_16
REMARK                            x       y       z     vdW  Elec       q    Type
REMARK                         _______ _______ _______ _____ _____    ______ ____
ROOT
ATOM      1  C   LIG A   1      -7.182   4.166 119.750  0.00  0.00    +0.124 A 
ATOM      2  C   LIG A   1      -5.897   4.415 120.222  0.00  0.00    +0.091 A 
ATOM      3  C   LIG A   1      -5.616   4.220 121.577  0.00  0.00    +0.134 A 
ATOM      4  C   LIG A   1      -6.613   3.768 122.453  0.00  0.00    +0.101 A 
ATOM      5  C   LIG A   1      -6.402   3.599 123.913  0.00  0.00    +0.174 C 
ATOM      6  C   LIG A   1      -7.652   3.412 124.724  0.00  0.00    +0.129 C 
ATOM      7  C   LIG A   1      -8.582   2.463 123.980  0.00  0.00    +0.211 C 
ATOM      8  O   LIG A   1      -8.941   3.035 122.707  0.00  0.00    -0.483 OA
ATOM      9  O   LIG A   1      -5.306   3.664 124.457  0.00  0.00    -0.292 OA
ATOM     10  C   LIG A   1      -7.894   3.502 121.954  0.00  0.00    +0.139 A 
ATOM     11  C   LIG A   1      -8.180   3.715 120.605  0.00  0.00    +0.092 A 
ENDROOT
BRANCH   7  12
ATOM     12  C   LIG A   1      -8.133   1.003 123.876  0.00  0.00    -0.003 A 
ATOM     13  C   LIG A   1      -6.953   0.565 124.508  0.00  0.00    +0.056 A 
ATOM     14  C   LIG A   1      -6.578  -0.776 124.442  0.00  0.00    +0.159 A 
ATOM     15  C   LIG A   1      -7.368  -1.696 123.765  0.00  0.00    +0.158 A 
ATOM     16  C   LIG A   1      -8.542  -1.299 123.149  0.00  0.00    +0.049 A 
ATOM     17  C   LIG A   1      -8.926   0.043 123.214  0.00  0.00    +0.011 A 
BRANCH  14  18
ATOM     18  O   LIG A   1      -5.438  -1.237 125.041  0.00  0.00    -0.503 OA
ATOM     19  H   LIG A   1      -5.277  -2.145 124.733  0.00  0.00    +0.292 HD
ENDBRANCH  14  18
BRANCH  15  20
ATOM     20  O   LIG A   1      -6.994  -3.008 123.711  0.00  0.00    -0.503 OA
ATOM     21  H   LIG A   1      -7.683  -3.479 124.221  0.00  0.00    +0.292 HD
ENDBRANCH  15  20
ENDBRANCH   7  12
BRANCH   1  22
ATOM     22  O   LIG A   1      -7.511   4.354 118.441  0.00  0.00    -0.506 OA
ATOM     23  H   LIG A   1      -8.346   4.848 118.384  0.00  0.00    +0.292 HD
ENDBRANCH   1  22
BRANCH   3  24
ATOM     24  O   LIG A   1      -4.360   4.504 122.035  0.00  0.00    -0.506 OA
ATOM     25  H   LIG A   1      -3.773   3.740 121.926  0.00  0.00    +0.292 HD
ENDBRANCH   3  24
TORSDOF 5
ENDMDL
MODEL 5
REMARK VINA RESULT:      -6.7      3.380      3.621
REMARK  Name = NuBBE_562
REMARK  5 active torsions:
REMARK  status: ('A' for Active; 'I' for Inactive)
REMARK    1  A    between atoms: O_1  and  C_2
REMARK    2  A    between atoms: C_4  and  O_5
REMARK    3  A    between atoms: C_9  and  C_11
REMARK    4  A    between atoms: C_13  and  O_14
REMARK    5  A    between atoms: C_15  and  O_16
REMARK                            x       y       z     vdW  Elec       q    Type
REMARK                         _______ _______ _______ _____ _____    ______ ____
ROOT
ATOM      1  C   LIG A   1      -5.929  -2.282 123.673  0.00  0.00    +0.124 A 
ATOM      2  C   LIG A   1      -7.237  -2.245 123.200  0.00  0.00    +0.091 A 
ATOM      3  C   LIG A   1      -8.203  -1.530 123.916  0.00  0.00    +0.134 A 
ATOM      4  C   LIG A   1      -7.859  -0.848 125.091  0.00  0.00    +0.101 A 
ATOM      5  C   LIG A   1      -8.843  -0.124 125.933  0.00  0.00    +0.174 C 
ATOM      6  C   LIG A   1      -8.354   0.271 127.297  0.00  0.00    +0.129 C 
ATOM      7  C   LIG A   1      -6.931   0.800 127.172  0.00  0.00    +0.211 C 
ATOM      8  O   LIG A   1      -6.072  -0.235 126.657  0.00  0.00    -0.483 OA
ATOM      9  O   LIG A   1     -10.000   0.098 125.595  0.00  0.00    -0.292 OA
ATOM     10  C   LIG A   1      -6.532  -0.880 125.538  0.00  0.00    +0.139 A 
ATOM     11  C   LIG A   1      -5.572  -1.609 124.835  0.00  0.00    +0.092 A 
ENDROOT
BRANCH   7  12
ATOM     12  C   LIG A   1      -6.758   2.138 126.449  0.00  0.00    -0.003 A 
ATOM     13  C   LIG A   1      -7.841   3.028 126.309  0.00  0.00    +0.056 A 
ATOM     14  C   LIG A   1      -7.659   4.262 125.687  0.00  0.00    +0.159 A 
ATOM     15  C   LIG A   1      -6.408   4.633 125.210  0.00  0.00    +0.158 A 
ATOM     16  C   LIG A   1      -5.322   3.788 125.348  0.00  0.00    +0.049 A 
ATOM     17  C   LIG A   1      -5.495   2.550 125.975  0.00  0.00    +0.011 A 
BRANCH  14  18
ATOM     18  O   LIG A   1      -8.687   5.150 125.530  0.00  0.00    -0.503 OA
ATOM     19  H   LIG A   1      -8.474   5.735 124.783  0.00  0.00    +0.292 HD
ENDBRANCH  14  18
BRANCH  15  20
ATOM     20  O   LIG A   1      -6.240   5.846 124.606  0.00  0.00    -0.503 OA
ATOM     21  H   LIG A   1      -6.330   5.658 123.651  0.00  0.00    +0.292 HD
ENDBRANCH  15  20
ENDBRANCH   7  12
BRANCH   1  22
ATOM     22  O   LIG A   1      -4.954  -2.974 123.020  0.00  0.00    -0.506 OA
ATOM     23  H   LIG A   1      -4.358  -2.351 122.572  0.00  0.00    +0.292 HD
ENDBRANCH   1  22
BRANCH   3  24
ATOM     24  O   LIG A   1      -9.492  -1.533 123.461  0.00  0.00    -0.506 OA
ATOM     25  H   LIG A   1     -10.041  -0.926 123.981  0.00  0.00    +0.292 HD
ENDBRANCH   3  24
TORSDOF 5
ENDMDL
MODEL 6
REMARK VINA RESULT:      -6.6      2.074      5.906
REMARK  Name = NuBBE_562
REMARK  5 active torsions:
REMARK  status: ('A' for Active; 'I' for Inactive)
REMARK    1  A    between atoms: O_1  and  C_2
REMARK    2  A    between atoms: C_4  and  O_5
REMARK    3  A    between atoms: C_9  and  C_11
REMARK    4  A    between atoms: C_13  and  O_14
REMARK    5  A    between atoms: C_15  and  O_16
REMARK                            x       y       z     vdW  Elec       q    Type
REMARK                         _______ _______ _______ _____ _____    ______ ____
ROOT
ATOM      1  C   LIG A   1      -5.737   4.213 122.933  0.00  0.00    +0.124 A 
ATOM      2  C   LIG A   1      -5.685   4.393 124.312  0.00  0.00    +0.091 A 
ATOM      3  C   LIG A   1      -6.609   3.727 125.124  0.00  0.00    +0.134 A 
ATOM      4  C   LIG A   1      -7.572   2.879 124.559  0.00  0.00    +0.101 A 
ATOM      5  C   LIG A   1      -8.621   2.192 125.353  0.00  0.00    +0.174 C 
ATOM      6  C   LIG A   1      -9.738   1.587 124.553  0.00  0.00    +0.129 C 
ATOM      7  C   LIG A   1      -9.148   0.903 123.327  0.00  0.00    +0.211 C 
ATOM      8  O   LIG A   1      -8.469   1.875 122.508  0.00  0.00    -0.483 OA
ATOM      9  O   LIG A   1      -8.638   2.156 126.578  0.00  0.00    -0.292 OA
ATOM     10  C   LIG A   1      -7.593   2.695 123.172  0.00  0.00    +0.139 A 
ATOM     11  C   LIG A   1      -6.683   3.373 122.359  0.00  0.00    +0.092 A 
ENDROOT
BRANCH   7  12
ATOM     12  C   LIG A   1      -8.313  -0.356 123.580  0.00  0.00    -0.003 A 
ATOM     13  C   LIG A   1      -8.746  -1.336 124.494  0.00  0.00    +0.056 A 
ATOM     14  C   LIG A   1      -7.999  -2.498 124.682  0.00  0.00    +0.159 A 
ATOM     15  C   LIG A   1      -6.828  -2.708 123.963  0.00  0.00    +0.158 A 
ATOM     16  C   LIG A   1      -6.387  -1.771 123.045  0.00  0.00    +0.049 A 
ATOM     17  C   LIG A   1      -7.134  -0.605 122.848  0.00  0.00    +0.011 A 
BRANCH  14  18
ATOM     18  O   LIG A   1      -8.385  -3.471 125.563  0.00  0.00    -0.503 OA
ATOM     19  H   LIG A   1      -9.357  -3.476 125.605  0.00  0.00    +0.292 HD
ENDBRANCH  14  18
BRANCH  15  20
ATOM     20  O   LIG A   1      -6.107  -3.851 124.151  0.00  0.00    -0.503 OA
ATOM     21  H   LIG A   1      -6.782  -4.551 124.253  0.00  0.00    +0.292 HD
ENDBRANCH  15  20
ENDBRANCH   7  12
BRANCH   1  22
ATOM     22  O   LIG A   1      -4.868   4.848 122.097  0.00  0.00    -0.506 OA
ATOM     23  H   LIG A   1      -5.225   5.719 121.858  0.00  0.00    +0.292 HD
ENDBRANCH   1  22
BRANCH   3  24
ATOM     24  O   LIG A   1      -6.571   3.942 126.473  0.00  0.00    -0.506 OA
ATOM     25  H   LIG A   1      -7.298   4.522 126.749  0.00  0.00    +0.292 HD
ENDBRANCH   3  24
TORSDOF 5
ENDMDL
MODEL 7
REMARK VINA RESULT:      -6.5      9.218     11.760
REMARK  Name = NuBBE_562
REMARK  5 active torsions:
REMARK  status: ('A' for Active; 'I' for Inactive)
REMARK    1  A    between atoms: O_1  and  C_2
REMARK    2  A    between atoms: C_4  and  O_5
REMARK    3  A    between atoms: C_9  and  C_11
REMARK    4  A    between atoms: C_13  and  O_14
REMARK    5  A    between atoms: C_15  and  O_16
REMARK                            x       y       z     vdW  Elec       q    Type
REMARK                         _______ _______ _______ _____ _____    ______ ____
ROOT
ATOM      1  C   LIG A   1     -10.388   6.961 130.686  0.00  0.00    +0.124 A 
ATOM      2  C   LIG A   1      -9.100   7.298 130.285  0.00  0.00    +0.091 A 
ATOM      3  C   LIG A   1      -8.008   6.824 131.020  0.00  0.00    +0.134 A 
ATOM      4  C   LIG A   1      -8.206   6.010 132.143  0.00  0.00    +0.101 A 
ATOM      5  C   LIG A   1      -7.100   5.524 133.005  0.00  0.00    +0.174 C 
ATOM      6  C   LIG A   1      -7.522   4.937 134.321  0.00  0.00    +0.129 C 
ATOM      7  C   LIG A   1      -8.745   4.058 134.095  0.00  0.00    +0.211 C 
ATOM      8  O   LIG A   1      -9.828   4.858 133.580  0.00  0.00    -0.483 OA
ATOM      9  O   LIG A   1      -5.913   5.635 132.722  0.00  0.00    -0.292 OA
ATOM     10  C   LIG A   1      -9.511   5.664 132.517  0.00  0.00    +0.139 A 
ATOM     11  C   LIG A   1     -10.601   6.152 131.796  0.00  0.00    +0.092 A 
ENDROOT
BRANCH   7  12
ATOM     12  C   LIG A   1      -8.526   2.765 133.305  0.00  0.00    -0.003 A 
ATOM     13  C   LIG A   1      -7.321   2.045 133.422  0.00  0.00    +0.056 A 
ATOM     14  C   LIG A   1      -7.151   0.847 132.731  0.00  0.00    +0.159 A 
ATOM     15  C   LIG A   1      -8.169   0.343 131.930  0.00  0.00    +0.158 A 
ATOM     16  C   LIG A   1      -9.370   1.020 131.810  0.00  0.00    +0.049 A 
ATOM     17  C   LIG A   1      -9.550   2.220 132.504  0.00  0.00    +0.011 A 
BRANCH  14  18
ATOM     18  O   LIG A   1      -5.994   0.121 132.817  0.00  0.00    -0.503 OA
ATOM     19  H   LIG A   1      -6.093  -0.527 133.534  0.00  0.00    +0.292 HD
ENDBRANCH  14  18
BRANCH  15  20
ATOM     20  O   LIG A   1      -7.994  -0.834 131.262  0.00  0.00    -0.503 OA
ATOM     21  H   LIG A   1      -7.609  -1.437 131.927  0.00  0.00    +0.292 HD
ENDBRANCH  15  20
ENDBRANCH   7  12
BRANCH   1  22
ATOM     22  O   LIG A   1     -11.486   7.407 130.012  0.00  0.00    -0.506 OA
ATOM     23  H   LIG A   1     -12.108   7.813 130.638  0.00  0.00    +0.292 HD
ENDBRANCH   1  22
BRANCH   3  24
ATOM     24  O   LIG A   1      -6.750   7.193 130.637  0.00  0.00    -0.506 OA
ATOM     25  H   LIG A   1      -6.599   6.983 129.703  0.00  0.00    +0.292 HD
ENDBRANCH   3  24
TORSDOF 5
ENDMDL
MODEL 8
REMARK VINA RESULT:      -6.4      8.136     10.383
REMARK  Name = NuBBE_562
REMARK  5 active torsions:
REMARK  status: ('A' for Active; 'I' for Inactive)
REMARK    1  A    between atoms: O_1  and  C_2
REMARK    2  A    between atoms: C_4  and  O_5
REMARK    3  A    between atoms: C_9  and  C_11
REMARK    4  A    between atoms: C_13  and  O_14
REMARK    5  A    between atoms: C_15  and  O_16
REMARK                            x       y       z     vdW  Elec       q    Type
REMARK                         _______ _______ _______ _____ _____    ______ ____
ROOT
ATOM      1  C   LIG A   1      -8.581   5.021 132.593  0.00  0.00    +0.124 A 
ATOM      2  C   LIG A   1      -8.852   6.066 131.716  0.00  0.00    +0.091 A 
ATOM      3  C   LIG A   1      -7.788   6.769 131.140  0.00  0.00    +0.134 A 
ATOM      4  C   LIG A   1      -6.463   6.419 131.432  0.00  0.00    +0.101 A 
ATOM      5  C   LIG A   1      -5.288   7.159 130.907  0.00  0.00    +0.174 C 
ATOM      6  C   LIG A   1      -3.979   6.839 131.571  0.00  0.00    +0.129 C 
ATOM      7  C   LIG A   1      -3.892   5.333 131.781  0.00  0.00    +0.211 C 
ATOM      8  O   LIG A   1      -4.962   4.900 132.643  0.00  0.00    -0.483 OA
ATOM      9  O   LIG A   1      -5.355   8.020 130.039  0.00  0.00    -0.292 OA
ATOM     10  C   LIG A   1      -6.212   5.349 132.301  0.00  0.00    +0.139 A 
ATOM     11  C   LIG A   1      -7.273   4.661 132.891  0.00  0.00    +0.092 A 
ENDROOT
BRANCH   7  12
ATOM     12  C   LIG A   1      -3.750   4.472 130.523  0.00  0.00    -0.003 A 
ATOM     13  C   LIG A   1      -2.977   4.913 129.431  0.00  0.00    +0.056 A 
ATOM     14  C   LIG A   1      -2.821   4.100 128.309  0.00  0.00    +0.159 A 
ATOM     15  C   LIG A   1      -3.412   2.844 128.260  0.00  0.00    +0.158 A 
ATOM     16  C   LIG A   1      -4.162   2.376 129.325  0.00  0.00    +0.049 A 
ATOM     17  C   LIG A   1      -4.320   3.184 130.455  0.00  0.00    +0.011 A 
BRANCH  14  18
ATOM     18  O   LIG A   1      -2.081   4.495 127.229  0.00  0.00    -0.503 OA
ATOM     19  H   LIG A   1      -2.570   4.263 126.422  0.00  0.00    +0.292 HD
ENDBRANCH  14  18
BRANCH  15  20
ATOM     20  O   LIG A   1      -3.248   2.054 127.159  0.00  0.00    -0.503 OA
ATOM     21  H   LIG A   1      -2.584   2.525 126.619  0.00  0.00    +0.292 HD
ENDBRANCH  15  20
ENDBRANCH   7  12
BRANCH   1  22
ATOM     22  O   LIG A   1      -9.581   4.314 133.191  0.00  0.00    -0.506 OA
ATOM     23  H   LIG A   1      -9.200   3.581 133.701  0.00  0.00    +0.292 HD
ENDBRANCH   1  22
BRANCH   3  24
ATOM     24  O   LIG A   1      -8.067   7.817 130.310  0.00  0.00    -0.506 OA
ATOM     25  H   LIG A   1      -8.458   8.554 130.805  0.00  0.00    +0.292 HD
ENDBRANCH   3  24
TORSDOF 5
ENDMDL
MODEL 9
REMARK VINA RESULT:      -6.4      8.067      9.799
REMARK  Name = NuBBE_562
REMARK  5 active torsions:
REMARK  status: ('A' for Active; 'I' for Inactive)
REMARK    1  A    between atoms: O_1  and  C_2
REMARK    2  A    between atoms: C_4  and  O_5
REMARK    3  A    between atoms: C_9  and  C_11
REMARK    4  A    between atoms: C_13  and  O_14
REMARK    5  A    between atoms: C_15  and  O_16
REMARK                            x       y       z     vdW  Elec       q    Type
REMARK                         _______ _______ _______ _____ _____    ______ ____
ROOT
ATOM      1  C   LIG A   1      -8.525   1.344 131.917  0.00  0.00    +0.124 A 
ATOM      2  C   LIG A   1      -8.622   1.354 130.529  0.00  0.00    +0.091 A 
ATOM      3  C   LIG A   1      -8.766   2.575 129.862  0.00  0.00    +0.134 A 
ATOM      4  C   LIG A   1      -8.802   3.778 130.581  0.00  0.00    +0.101 A 
ATOM      5  C   LIG A   1      -9.016   5.103 129.945  0.00  0.00    +0.174 C 
ATOM      6  C   LIG A   1      -9.336   6.224 130.891  0.00  0.00    +0.129 C 
ATOM      7  C   LIG A   1      -8.431   6.108 132.111  0.00  0.00    +0.211 C 
ATOM      8  O   LIG A   1      -8.679   4.857 132.781  0.00  0.00    -0.483 OA
ATOM      9  O   LIG A   1      -9.002   5.290 128.734  0.00  0.00    -0.292 OA
ATOM     10  C   LIG A   1      -8.681   3.747 131.975  0.00  0.00    +0.139 A 
ATOM     11  C   LIG A   1      -8.556   2.528 132.642  0.00  0.00    +0.092 A 
ENDROOT
BRANCH   7  12
ATOM     12  C   LIG A   1      -6.942   6.386 131.890  0.00  0.00    -0.003 A 
ATOM     13  C   LIG A   1      -6.510   7.188 130.816  0.00  0.00    +0.056 A 
ATOM     14  C   LIG A   1      -5.154   7.469 130.652  0.00  0.00    +0.159 A 
ATOM     15  C   LIG A   1      -4.217   6.973 131.551  0.00  0.00    +0.158 A 
ATOM     16  C   LIG A   1      -4.614   6.197 132.625  0.00  0.00    +0.049 A 
ATOM     17  C   LIG A   1      -5.972   5.915 132.799  0.00  0.00    +0.011 A 
BRANCH  14  18
ATOM     18  O   LIG A   1      -4.697   8.241 129.619  0.00  0.00    -0.503 OA
ATOM     19  H   LIG A   1      -3.801   7.941 129.388  0.00  0.00    +0.292 HD
ENDBRANCH  14  18
BRANCH  15  20
ATOM     20  O   LIG A   1      -2.893   7.258 131.383  0.00  0.00    -0.503 OA
ATOM     21  H   LIG A   1      -2.885   8.057 130.819  0.00  0.00    +0.292 HD
ENDBRANCH  15  20
ENDBRANCH   7  12
BRANCH   1  22
ATOM     22  O   LIG A   1      -8.396   0.180 132.615  0.00  0.00    -0.506 OA
ATOM     23  H   LIG A   1      -7.747   0.300 133.328  0.00  0.00    +0.292 HD
ENDBRANCH   1  22
BRANCH   3  24
ATOM     24  O   LIG A   1      -8.898   2.569 128.503  0.00  0.00    -0.506 OA
ATOM     25  H   LIG A   1      -8.220   2.009 128.094  0.00  0.00    +0.292 HD
ENDBRANCH   3  24
TORSDOF 5
ENDMDL
