MODEL 1
REMARK VINA RESULT:      -7.7      0.000      0.000
REMARK  Name = NuBBE_1911
REMARK  2 active torsions:
REMARK  status: ('A' for Active; 'I' for Inactive)
REMARK    1  A    between atoms: C_1  and  O_2
REMARK    2  A    between atoms: O_2  and  C_3
REMARK                            x       y       z     vdW  Elec       q    Type
REMARK                         _______ _______ _______ _____ _____    ______ ____
ROOT
ATOM      1  C   LIG A   1      -7.818   6.227 130.879  0.00  0.00    +0.209 A 
ATOM      2  C   LIG A   1      -7.619   5.948 132.220  0.00  0.00    +0.211 A 
ATOM      3  O   LIG A   1      -6.423   5.703 132.826  0.00  0.00    -0.449 OA
ATOM      4  C   LIG A   1      -6.840   5.481 134.188  0.00  0.00    +0.467 C 
ATOM      5  O   LIG A   1      -8.261   5.627 134.379  0.00  0.00    -0.452 OA
ATOM      6  C   LIG A   1      -8.666   5.906 133.111  0.00  0.00    +0.171 A 
ATOM      7  C   LIG A   1      -9.967   6.129 132.718  0.00  0.00    +0.065 A 
ATOM      8  C   LIG A   1     -10.192   6.390 131.361  0.00  0.00    +0.072 A 
ATOM      9  C   LIG A   1      -9.134   6.434 130.435  0.00  0.00    +0.184 A 
ATOM     10  O   LIG A   1      -9.326   6.649 129.090  0.00  0.00    -0.451 OA
ATOM     11  C   LIG A   1     -10.599   6.867 128.630  0.00  0.00    +0.139 A 
ATOM     12  C   LIG A   1     -10.735   7.099 127.261  0.00  0.00    +0.047 A 
ATOM     13  C   LIG A   1     -11.997   7.333 126.710  0.00  0.00    +0.004 A 
ATOM     14  C   LIG A   1     -13.128   7.333 127.528  0.00  0.00    +0.001 A 
ATOM     15  C   LIG A   1     -12.998   7.099 128.898  0.00  0.00    +0.015 A 
ATOM     16  C   LIG A   1     -11.731   6.867 129.441  0.00  0.00    +0.065 A 
ATOM     17  C   LIG A   1     -11.563   6.619 130.878  0.00  0.00    +0.200 A 
ATOM     18  O   LIG A   1     -12.520   6.606 131.642  0.00  0.00    -0.286 OA
ENDROOT
BRANCH   1  20
ATOM     19  C   LIG A   1      -6.390   4.898 129.619  0.00  0.00    +0.277 C 
ATOM     20  O   LIG A   1      -6.731   6.214 130.051  0.00  0.00    -0.488 OA
ENDBRANCH   1  20
TORSDOF 1
ENDMDL
MODEL 2
REMARK VINA RESULT:      -7.6      6.904      8.981
REMARK  Name = NuBBE_1911
REMARK  2 active torsions:
REMARK  status: ('A' for Active; 'I' for Inactive)
REMARK    1  A    between atoms: C_1  and  O_2
REMARK    2  A    between atoms: O_2  and  C_3
REMARK                            x       y       z     vdW  Elec       q    Type
REMARK                         _______ _______ _______ _____ _____    ______ ____
ROOT
ATOM      1  C   LIG A   1      -8.110   2.947 124.672  0.00  0.00    +0.209 A 
ATOM      2  C   LIG A   1      -7.205   2.927 125.719  0.00  0.00    +0.211 A 
ATOM      3  O   LIG A   1      -7.473   2.600 127.015  0.00  0.00    -0.449 OA
ATOM      4  C   LIG A   1      -6.175   2.762 127.619  0.00  0.00    +0.467 C 
ATOM      5  O   LIG A   1      -5.153   3.149 126.678  0.00  0.00    -0.452 OA
ATOM      6  C   LIG A   1      -5.878   3.238 125.531  0.00  0.00    +0.171 A 
ATOM      7  C   LIG A   1      -5.382   3.595 124.296  0.00  0.00    +0.065 A 
ATOM      8  C   LIG A   1      -6.287   3.644 123.229  0.00  0.00    +0.072 A 
ATOM      9  C   LIG A   1      -7.648   3.332 123.404  0.00  0.00    +0.184 A 
ATOM     10  O   LIG A   1      -8.568   3.408 122.386  0.00  0.00    -0.451 OA
ATOM     11  C   LIG A   1      -8.141   3.769 121.133  0.00  0.00    +0.139 A 
ATOM     12  C   LIG A   1      -9.113   3.810 120.133  0.00  0.00    +0.047 A 
ATOM     13  C   LIG A   1      -8.763   4.166 118.828  0.00  0.00    +0.004 A 
ATOM     14  C   LIG A   1      -7.439   4.482 118.521  0.00  0.00    +0.001 A 
ATOM     15  C   LIG A   1      -6.463   4.443 119.519  0.00  0.00    +0.015 A 
ATOM     16  C   LIG A   1      -6.822   4.086 120.821  0.00  0.00    +0.065 A 
ATOM     17  C   LIG A   1      -5.818   4.035 121.891  0.00  0.00    +0.200 A 
ATOM     18  O   LIG A   1      -4.643   4.304 121.679  0.00  0.00    -0.286 OA
ENDROOT
BRANCH   1  20
ATOM     19  C   LIG A   1      -9.717   1.274 124.794  0.00  0.00    +0.277 C 
ATOM     20  O   LIG A   1      -9.419   2.661 124.948  0.00  0.00    -0.488 OA
ENDBRANCH   1  20
TORSDOF 1
ENDMDL
MODEL 3
REMARK VINA RESULT:      -7.3      7.441      9.393
REMARK  Name = NuBBE_1911
REMARK  2 active torsions:
REMARK  status: ('A' for Active; 'I' for Inactive)
REMARK    1  A    between atoms: C_1  and  O_2
REMARK    2  A    between atoms: O_2  and  C_3
REMARK                            x       y       z     vdW  Elec       q    Type
REMARK                         _______ _______ _______ _____ _____    ______ ____
ROOT
ATOM      1  C   LIG A   1      -6.988   2.267 124.563  0.00  0.00    +0.209 A 
ATOM      2  C   LIG A   1      -8.070   1.573 125.077  0.00  0.00    +0.211 A 
ATOM      3  O   LIG A   1      -8.133   0.957 126.292  0.00  0.00    -0.449 OA
ATOM      4  C   LIG A   1      -9.469   0.417 126.262  0.00  0.00    +0.467 C 
ATOM      5  O   LIG A   1     -10.188   0.742 125.056  0.00  0.00    -0.452 OA
ATOM      6  C   LIG A   1      -9.246   1.449 124.375  0.00  0.00    +0.171 A 
ATOM      7  C   LIG A   1      -9.409   1.999 123.123  0.00  0.00    +0.065 A 
ATOM      8  C   LIG A   1      -8.318   2.685 122.576  0.00  0.00    +0.072 A 
ATOM      9  C   LIG A   1      -7.106   2.819 123.278  0.00  0.00    +0.184 A 
ATOM     10  O   LIG A   1      -6.005   3.453 122.753  0.00  0.00    -0.451 OA
ATOM     11  C   LIG A   1      -6.096   4.013 121.505  0.00  0.00    +0.139 A 
ATOM     12  C   LIG A   1      -4.955   4.661 121.029  0.00  0.00    +0.047 A 
ATOM     13  C   LIG A   1      -4.964   5.260 119.767  0.00  0.00    +0.004 A 
ATOM     14  C   LIG A   1      -6.113   5.212 118.977  0.00  0.00    +0.001 A 
ATOM     15  C   LIG A   1      -7.256   4.564 119.449  0.00  0.00    +0.015 A 
ATOM     16  C   LIG A   1      -7.240   3.967 120.712  0.00  0.00    +0.065 A 
ATOM     17  C   LIG A   1      -8.427   3.279 121.235  0.00  0.00    +0.200 A 
ATOM     18  O   LIG A   1      -9.461   3.205 120.585  0.00  0.00    -0.286 OA
ENDROOT
BRANCH   1  20
ATOM     19  C   LIG A   1      -5.783   3.466 126.147  0.00  0.00    +0.277 C 
ATOM     20  O   LIG A   1      -5.841   2.314 125.307  0.00  0.00    -0.488 OA
ENDBRANCH   1  20
TORSDOF 1
ENDMDL
MODEL 4
REMARK VINA RESULT:      -7.0      1.432      1.453
REMARK  Name = NuBBE_1911
REMARK  2 active torsions:
REMARK  status: ('A' for Active; 'I' for Inactive)
REMARK    1  A    between atoms: C_1  and  O_2
REMARK    2  A    between atoms: O_2  and  C_3
REMARK                            x       y       z     vdW  Elec       q    Type
REMARK                         _______ _______ _______ _____ _____    ______ ____
ROOT
ATOM      1  C   LIG A   1      -7.762   5.170 130.456  0.00  0.00    +0.209 A 
ATOM      2  C   LIG A   1      -7.476   4.418 131.582  0.00  0.00    +0.211 A 
ATOM      3  O   LIG A   1      -6.345   3.690 131.803  0.00  0.00    -0.449 OA
ATOM      4  C   LIG A   1      -6.618   3.139 133.107  0.00  0.00    +0.467 C 
ATOM      5  O   LIG A   1      -7.882   3.567 133.653  0.00  0.00    -0.452 OA
ATOM      6  C   LIG A   1      -8.350   4.347 132.642  0.00  0.00    +0.171 A 
ATOM      7  C   LIG A   1      -9.557   5.010 132.637  0.00  0.00    +0.065 A 
ATOM      8  C   LIG A   1      -9.874   5.758 131.496  0.00  0.00    +0.072 A 
ATOM      9  C   LIG A   1      -8.994   5.840 130.402  0.00  0.00    +0.184 A 
ATOM     10  O   LIG A   1      -9.293   6.534 129.253  0.00  0.00    -0.451 OA
ATOM     11  C   LIG A   1     -10.485   7.207 129.178  0.00  0.00    +0.139 A 
ATOM     12  C   LIG A   1     -10.729   7.911 127.998  0.00  0.00    +0.047 A 
ATOM     13  C   LIG A   1     -11.918   8.627 127.840  0.00  0.00    +0.004 A 
ATOM     14  C   LIG A   1     -12.868   8.639 128.863  0.00  0.00    +0.001 A 
ATOM     15  C   LIG A   1     -12.629   7.936 130.045  0.00  0.00    +0.015 A 
ATOM     16  C   LIG A   1     -11.436   7.223 130.195  0.00  0.00    +0.065 A 
ATOM     17  C   LIG A   1     -11.157   6.475 131.426  0.00  0.00    +0.200 A 
ATOM     18  O   LIG A   1     -11.955   6.450 132.355  0.00  0.00    -0.286 OA
ENDROOT
BRANCH   1  20
ATOM     19  C   LIG A   1      -7.090   4.096 128.509  0.00  0.00    +0.277 C 
ATOM     20  O   LIG A   1      -6.858   5.161 129.429  0.00  0.00    -0.488 OA
ENDBRANCH   1  20
TORSDOF 1
ENDMDL
MODEL 5
REMARK VINA RESULT:      -6.8      7.823      9.766
REMARK  Name = NuBBE_1911
REMARK  2 active torsions:
REMARK  status: ('A' for Active; 'I' for Inactive)
REMARK    1  A    between atoms: C_1  and  O_2
REMARK    2  A    between atoms: O_2  and  C_3
REMARK                            x       y       z     vdW  Elec       q    Type
REMARK                         _______ _______ _______ _____ _____    ______ ____
ROOT
ATOM      1  C   LIG A   1      -6.545   1.540 125.765  0.00  0.00    +0.209 A 
ATOM      2  C   LIG A   1      -6.660   2.193 124.549  0.00  0.00    +0.211 A 
ATOM      3  O   LIG A   1      -6.092   3.386 124.215  0.00  0.00    -0.449 OA
ATOM      4  C   LIG A   1      -6.559   3.548 122.861  0.00  0.00    +0.467 C 
ATOM      5  O   LIG A   1      -7.364   2.445 122.400  0.00  0.00    -0.452 OA
ATOM      6  C   LIG A   1      -7.384   1.658 123.509  0.00  0.00    +0.171 A 
ATOM      7  C   LIG A   1      -8.041   0.452 123.623  0.00  0.00    +0.065 A 
ATOM      8  C   LIG A   1      -7.956  -0.212 124.852  0.00  0.00    +0.072 A 
ATOM      9  C   LIG A   1      -7.223   0.321 125.928  0.00  0.00    +0.184 A 
ATOM     10  O   LIG A   1      -7.152  -0.287 127.159  0.00  0.00    -0.451 OA
ATOM     11  C   LIG A   1      -7.794  -1.485 127.342  0.00  0.00    +0.139 A 
ATOM     12  C   LIG A   1      -7.673  -2.068 128.604  0.00  0.00    +0.047 A 
ATOM     13  C   LIG A   1      -8.294  -3.290 128.875  0.00  0.00    +0.004 A 
ATOM     14  C   LIG A   1      -9.039  -3.931 127.884  0.00  0.00    +0.001 A 
ATOM     15  C   LIG A   1      -9.163  -3.351 126.621  0.00  0.00    +0.015 A 
ATOM     16  C   LIG A   1      -8.539  -2.129 126.358  0.00  0.00    +0.065 A 
ATOM     17  C   LIG A   1      -8.651  -1.495 125.038  0.00  0.00    +0.200 A 
ATOM     18  O   LIG A   1      -9.293  -2.012 124.133  0.00  0.00    -0.286 OA
ENDROOT
BRANCH   1  20
ATOM     19  C   LIG A   1      -4.437   1.902 126.669  0.00  0.00    +0.277 C 
ATOM     20  O   LIG A   1      -5.838   2.154 126.761  0.00  0.00    -0.488 OA
ENDBRANCH   1  20
TORSDOF 1
ENDMDL
MODEL 6
REMARK VINA RESULT:      -6.8      7.835      9.595
REMARK  Name = NuBBE_1911
REMARK  2 active torsions:
REMARK  status: ('A' for Active; 'I' for Inactive)
REMARK    1  A    between atoms: C_1  and  O_2
REMARK    2  A    between atoms: O_2  and  C_3
REMARK                            x       y       z     vdW  Elec       q    Type
REMARK                         _______ _______ _______ _____ _____    ______ ____
ROOT
ATOM      1  C   LIG A   1      -6.589   2.235 124.521  0.00  0.00    +0.209 A 
ATOM      2  C   LIG A   1      -5.584   2.818 125.273  0.00  0.00    +0.211 A 
ATOM      3  O   LIG A   1      -5.209   4.128 125.245  0.00  0.00    -0.449 OA
ATOM      4  C   LIG A   1      -4.140   4.133 126.212  0.00  0.00    +0.467 C 
ATOM      5  O   LIG A   1      -3.916   2.845 126.820  0.00  0.00    -0.452 OA
ATOM      6  C   LIG A   1      -4.844   2.089 126.175  0.00  0.00    +0.171 A 
ATOM      7  C   LIG A   1      -5.055   0.742 126.372  0.00  0.00    +0.065 A 
ATOM      8  C   LIG A   1      -6.053   0.130 125.604  0.00  0.00    +0.072 A 
ATOM      9  C   LIG A   1      -6.817   0.858 124.674  0.00  0.00    +0.184 A 
ATOM     10  O   LIG A   1      -7.776   0.278 123.878  0.00  0.00    -0.451 OA
ATOM     11  C   LIG A   1      -8.029  -1.063 124.015  0.00  0.00    +0.139 A 
ATOM     12  C   LIG A   1      -9.025  -1.595 123.197  0.00  0.00    +0.047 A 
ATOM     13  C   LIG A   1      -9.347  -2.953 123.275  0.00  0.00    +0.004 A 
ATOM     14  C   LIG A   1      -8.671  -3.781 124.172  0.00  0.00    +0.001 A 
ATOM     15  C   LIG A   1      -7.673  -3.253 124.992  0.00  0.00    +0.015 A 
ATOM     16  C   LIG A   1      -7.358  -1.894 124.908  0.00  0.00    +0.065 A 
ATOM     17  C   LIG A   1      -6.313  -1.310 125.758  0.00  0.00    +0.200 A 
ATOM     18  O   LIG A   1      -5.688  -1.990 126.562  0.00  0.00    -0.286 OA
ENDROOT
BRANCH   1  20
ATOM     19  C   LIG A   1      -6.594   3.078 122.356  0.00  0.00    +0.277 C 
ATOM     20  O   LIG A   1      -7.255   3.018 123.619  0.00  0.00    -0.488 OA
ENDBRANCH   1  20
TORSDOF 1
ENDMDL
MODEL 7
REMARK VINA RESULT:      -6.8      2.373      3.824
REMARK  Name = NuBBE_1911
REMARK  2 active torsions:
REMARK  status: ('A' for Active; 'I' for Inactive)
REMARK    1  A    between atoms: C_1  and  O_2
REMARK    2  A    between atoms: O_2  and  C_3
REMARK                            x       y       z     vdW  Elec       q    Type
REMARK                         _______ _______ _______ _____ _____    ______ ____
ROOT
ATOM      1  C   LIG A   1      -5.105   6.827 130.917  0.00  0.00    +0.209 A 
ATOM      2  C   LIG A   1      -4.110   6.364 131.760  0.00  0.00    +0.211 A 
ATOM      3  O   LIG A   1      -2.766   6.444 131.548  0.00  0.00    -0.449 OA
ATOM      4  C   LIG A   1      -2.256   5.807 132.736  0.00  0.00    +0.467 C 
ATOM      5  O   LIG A   1      -3.292   5.388 133.647  0.00  0.00    -0.452 OA
ATOM      6  C   LIG A   1      -4.406   5.762 132.962  0.00  0.00    +0.171 A 
ATOM      7  C   LIG A   1      -5.704   5.578 133.384  0.00  0.00    +0.065 A 
ATOM      8  C   LIG A   1      -6.725   6.020 132.534  0.00  0.00    +0.072 A 
ATOM      9  C   LIG A   1      -6.441   6.635 131.300  0.00  0.00    +0.184 A 
ATOM     10  O   LIG A   1      -7.421   7.043 130.426  0.00  0.00    -0.451 OA
ATOM     11  C   LIG A   1      -8.735   6.879 130.781  0.00  0.00    +0.139 A 
ATOM     12  C   LIG A   1      -9.687   7.330 129.866  0.00  0.00    +0.047 A 
ATOM     13  C   LIG A   1     -11.049   7.202 130.151  0.00  0.00    +0.004 A 
ATOM     14  C   LIG A   1     -11.462   6.624 131.352  0.00  0.00    +0.001 A 
ATOM     15  C   LIG A   1     -10.513   6.171 132.270  0.00  0.00    +0.015 A 
ATOM     16  C   LIG A   1      -9.152   6.302 131.977  0.00  0.00    +0.065 A 
ATOM     17  C   LIG A   1      -8.132   5.836 132.924  0.00  0.00    +0.200 A 
ATOM     18  O   LIG A   1      -8.437   5.319 133.991  0.00  0.00    -0.286 OA
ENDROOT
BRANCH   1  20
ATOM     19  C   LIG A   1      -4.187   8.691 129.878  0.00  0.00    +0.277 C 
ATOM     20  O   LIG A   1      -4.730   7.381 129.724  0.00  0.00    -0.488 OA
ENDBRANCH   1  20
TORSDOF 1
ENDMDL
MODEL 8
REMARK VINA RESULT:      -6.5      8.364      9.622
REMARK  Name = NuBBE_1911
REMARK  2 active torsions:
REMARK  status: ('A' for Active; 'I' for Inactive)
REMARK    1  A    between atoms: C_1  and  O_2
REMARK    2  A    between atoms: O_2  and  C_3
REMARK                            x       y       z     vdW  Elec       q    Type
REMARK                         _______ _______ _______ _____ _____    ______ ____
ROOT
ATOM      1  C   LIG A   1      -6.022  -1.486 128.708  0.00  0.00    +0.209 A 
ATOM      2  C   LIG A   1      -6.253  -1.886 130.013  0.00  0.00    +0.211 A 
ATOM      3  O   LIG A   1      -5.531  -1.523 131.110  0.00  0.00    -0.449 OA
ATOM      4  C   LIG A   1      -6.226  -2.238 132.151  0.00  0.00    +0.467 C 
ATOM      5  O   LIG A   1      -7.361  -2.984 131.669  0.00  0.00    -0.452 OA
ATOM      6  C   LIG A   1      -7.299  -2.719 130.337  0.00  0.00    +0.171 A 
ATOM      7  C   LIG A   1      -8.164  -3.207 129.383  0.00  0.00    +0.065 A 
ATOM      8  C   LIG A   1      -7.933  -2.832 128.054  0.00  0.00    +0.072 A 
ATOM      9  C   LIG A   1      -6.867  -1.984 127.703  0.00  0.00    +0.184 A 
ATOM     10  O   LIG A   1      -6.590  -1.629 126.404  0.00  0.00    -0.451 OA
ATOM     11  C   LIG A   1      -7.407  -2.090 125.404  0.00  0.00    +0.139 A 
ATOM     12  C   LIG A   1      -7.093  -1.683 124.107  0.00  0.00    +0.047 A 
ATOM     13  C   LIG A   1      -7.875  -2.106 123.030  0.00  0.00    +0.004 A 
ATOM     14  C   LIG A   1      -8.974  -2.938 123.248  0.00  0.00    +0.001 A 
ATOM     15  C   LIG A   1      -9.292  -3.349 124.543  0.00  0.00    +0.015 A 
ATOM     16  C   LIG A   1      -8.504  -2.921 125.615  0.00  0.00    +0.065 A 
ATOM     17  C   LIG A   1      -8.814  -3.335 126.989  0.00  0.00    +0.200 A 
ATOM     18  O   LIG A   1      -9.765  -4.065 127.238  0.00  0.00    -0.286 OA
ENDROOT
BRANCH   1  20
ATOM     19  C   LIG A   1      -5.262   0.702 128.530  0.00  0.00    +0.277 C 
ATOM     20  O   LIG A   1      -4.940  -0.686 128.462  0.00  0.00    -0.488 OA
ENDBRANCH   1  20
TORSDOF 1
ENDMDL
MODEL 9
REMARK VINA RESULT:      -6.3      7.049      9.692
REMARK  Name = NuBBE_1911
REMARK  2 active torsions:
REMARK  status: ('A' for Active; 'I' for Inactive)
REMARK    1  A    between atoms: C_1  and  O_2
REMARK    2  A    between atoms: O_2  and  C_3
REMARK                            x       y       z     vdW  Elec       q    Type
REMARK                         _______ _______ _______ _____ _____    ______ ____
ROOT
ATOM      1  C   LIG A   1      -8.483   1.450 126.288  0.00  0.00    +0.209 A 
ATOM      2  C   LIG A   1      -8.868   1.444 124.959  0.00  0.00    +0.211 A 
ATOM      3  O   LIG A   1      -9.112   2.538 124.183  0.00  0.00    -0.449 OA
ATOM      4  C   LIG A   1      -9.468   1.918 122.931  0.00  0.00    +0.467 C 
ATOM      5  O   LIG A   1      -9.401   0.479 122.968  0.00  0.00    -0.452 OA
ATOM      6  C   LIG A   1      -9.032   0.270 124.260  0.00  0.00    +0.171 A 
ATOM      7  C   LIG A   1      -8.833  -0.960 124.847  0.00  0.00    +0.065 A 
ATOM      8  C   LIG A   1      -8.465  -0.976 126.198  0.00  0.00    +0.072 A 
ATOM      9  C   LIG A   1      -8.296   0.214 126.929  0.00  0.00    +0.184 A 
ATOM     10  O   LIG A   1      -7.974   0.231 128.265  0.00  0.00    -0.451 OA
ATOM     11  C   LIG A   1      -7.773  -0.961 128.912  0.00  0.00    +0.139 A 
ATOM     12  C   LIG A   1      -7.429  -0.885 130.263  0.00  0.00    +0.047 A 
ATOM     13  C   LIG A   1      -7.204  -2.053 130.996  0.00  0.00    +0.004 A 
ATOM     14  C   LIG A   1      -7.324  -3.300 130.381  0.00  0.00    +0.001 A 
ATOM     15  C   LIG A   1      -7.669  -3.380 129.031  0.00  0.00    +0.015 A 
ATOM     16  C   LIG A   1      -7.892  -2.207 128.304  0.00  0.00    +0.065 A 
ATOM     17  C   LIG A   1      -8.255  -2.261 126.882  0.00  0.00    +0.200 A 
ATOM     18  O   LIG A   1      -8.375  -3.327 126.292  0.00  0.00    -0.286 OA
ENDROOT
BRANCH   1  20
ATOM     19  C   LIG A   1      -7.062   3.203 126.837  0.00  0.00    +0.277 C 
ATOM     20  O   LIG A   1      -8.377   2.656 126.923  0.00  0.00    -0.488 OA
ENDBRANCH   1  20
TORSDOF 1
ENDMDL
