MODEL 1
REMARK VINA RESULT:      -8.7      0.000      0.000
REMARK  Name = NuBBE_59
REMARK  16 active torsions:
REMARK  status: ('A' for Active; 'I' for Inactive)
REMARK    1  A    between atoms: C_2  and  O_3
REMARK    2  A    between atoms: C_2  and  C_40
REMARK    3  A    between atoms: O_3  and  C_4
REMARK    4  A    between atoms: C_8  and  O_17
REMARK    5  A    between atoms: C_11  and  O_13
REMARK    6  A    between atoms: O_13  and  C_14
REMARK    7  A    between atoms: C_14  and  C_15
REMARK    8  A    between atoms: O_17  and  C_18
REMARK    9  A    between atoms: C_18  and  C_19
REMARK   10  A    between atoms: C_22  and  O_24
REMARK   11  A    between atoms: C_26  and  C_28
REMARK   12  A    between atoms: C_29  and  C_30
REMARK   13  A    between atoms: C_29  and  C_31
REMARK   14  A    between atoms: C_31  and  C_32
REMARK   15  A    between atoms: C_33  and  C_34
REMARK   16  A    between atoms: C_33  and  C_35
REMARK                            x       y       z     vdW  Elec       q    Type
REMARK                         _______ _______ _______ _____ _____    ______ ____
ROOT
ATOM      1  C   LIG A   1      -7.993   1.639 124.389  0.00  0.00    +0.200 C 
ATOM      2  C   LIG A   1      -7.686   3.030 123.916  0.00  0.00    +0.023 C 
ATOM      3  C   LIG A   1      -6.761   3.753 124.572  0.00  0.00    +0.012 C 
ATOM      4  C   LIG A   1      -5.567   4.353 123.883  0.00  0.00    +0.343 C 
ATOM      5  O   LIG A   1      -4.496   3.940 124.742  0.00  0.00    -0.297 OA
ATOM      6  C   LIG A   1      -4.977   4.145 126.083  0.00  0.00    +0.327 C 
ATOM      7  C   LIG A   1      -6.489   3.632 126.073  0.00  0.00    +0.089 C 
ATOM      8  C   LIG A   1      -7.434   4.614 126.872  0.00  0.00    +0.131 C 
ATOM      9  C   LIG A   1      -8.370   3.971 127.886  0.00  0.00    +0.036 C 
ATOM     10  C   LIG A   1      -7.651   2.935 128.743  0.00  0.00    -0.005 C 
ATOM     11  C   LIG A   1      -6.468   3.599 129.462  0.00  0.00    +0.008 C 
ATOM     12  C   LIG A   1      -7.328   1.684 127.864  0.00  0.00    -0.022 C 
ATOM     13  C   LIG A   1      -8.688   0.983 127.550  0.00  0.00    +0.012 C 
ATOM     14  C   LIG A   1      -6.543   2.095 126.524  0.00  0.00    +0.018 C 
ATOM     15  C   LIG A   1      -6.850   1.159 125.313  0.00  0.00    +0.054 C 
ENDROOT
BRANCH   8  16
ATOM     16  O   LIG A   1      -8.290   5.410 126.037  0.00  0.00    -0.391 OA
ATOM     17  H   LIG A   1      -8.172   6.344 126.269  0.00  0.00    +0.210 HD
ENDBRANCH   8  16
BRANCH   1  18
ATOM     18  O   LIG A   1      -7.970   0.763 123.232  0.00  0.00    -0.454 OA
BRANCH  18  20
ATOM     19  O   LIG A   1      -9.889  -0.490 123.215  0.00  0.00    -0.245 OA
ATOM     20  C   LIG A   1      -8.654  -0.387 123.327  0.00  0.00    +0.340 C 
BRANCH  20  21
ATOM     21  C   LIG A   1      -7.783  -1.564 123.577  0.00  0.00    +0.059 A 
ATOM     22  C   LIG A   1      -6.462  -1.532 123.094  0.00  0.00    +0.015 A 
ATOM     23  C   LIG A   1      -5.609  -2.610 123.303  0.00  0.00    +0.001 A 
ATOM     24  C   LIG A   1      -6.058  -3.732 123.997  0.00  0.00    +0.000 A 
ATOM     25  C   LIG A   1      -7.363  -3.767 124.488  0.00  0.00    +0.001 A 
ATOM     26  C   LIG A   1      -8.227  -2.682 124.284  0.00  0.00    +0.015 A 
ENDBRANCH  20  21
ENDBRANCH  18  20
ENDBRANCH   1  18
BRANCH   6  27
ATOM     27  O   LIG A   1      -4.845   5.544 126.374  0.00  0.00    -0.434 OA
BRANCH  27  28
ATOM     28  C   LIG A   1      -4.069   5.848 127.449  0.00  0.00    +0.306 C 
ATOM     29  C   LIG A   1      -3.229   4.658 127.811  0.00  0.00    +0.136 C 
ATOM     30  O   LIG A   1      -4.106   6.889 128.105  0.00  0.00    -0.251 OA
ENDBRANCH  27  28
ENDBRANCH   6  27
BRANCH   4  31
ATOM     31  O   LIG A   1      -5.424   3.754 122.592  0.00  0.00    -0.431 OA
BRANCH  31  32
ATOM     32  C   LIG A   1      -5.084   4.604 121.597  0.00  0.00    +0.306 C 
ATOM     33  C   LIG A   1      -5.876   4.317 120.354  0.00  0.00    +0.136 C 
ATOM     34  O   LIG A   1      -4.320   5.553 121.701  0.00  0.00    -0.251 OA
ENDBRANCH  31  32
ENDBRANCH   4  31
BRANCH  12  35
ATOM     35  C   LIG A   1      -6.449   0.616 128.653  0.00  0.00    +0.034 C 
BRANCH  35  36
ATOM     36  C   LIG A   1      -7.075  -0.748 128.854  0.00  0.00    -0.023 C 
ATOM     37  C   LIG A   1      -6.730  -1.919 128.279  0.00  0.00    -0.055 C 
ATOM     38  C   LIG A   1      -5.618  -2.134 127.292  0.00  0.00    +0.043 C 
BRANCH  37  39
ATOM     39  C   LIG A   1      -7.443  -3.140 128.630  0.00  0.00    -0.005 C 
ATOM     40  C   LIG A   1      -8.583  -3.540 128.051  0.00  0.00    +0.008 C 
ENDBRANCH  37  39
ENDBRANCH  35  36
ENDBRANCH  12  35
TORSDOF 11
ENDMDL
MODEL 2
REMARK VINA RESULT:      -8.1      2.320      5.896
REMARK  Name = NuBBE_59
REMARK  16 active torsions:
REMARK  status: ('A' for Active; 'I' for Inactive)
REMARK    1  A    between atoms: C_2  and  O_3
REMARK    2  A    between atoms: C_2  and  C_40
REMARK    3  A    between atoms: O_3  and  C_4
REMARK    4  A    between atoms: C_8  and  O_17
REMARK    5  A    between atoms: C_11  and  O_13
REMARK    6  A    between atoms: O_13  and  C_14
REMARK    7  A    between atoms: C_14  and  C_15
REMARK    8  A    between atoms: O_17  and  C_18
REMARK    9  A    between atoms: C_18  and  C_19
REMARK   10  A    between atoms: C_22  and  O_24
REMARK   11  A    between atoms: C_26  and  C_28
REMARK   12  A    between atoms: C_29  and  C_30
REMARK   13  A    between atoms: C_29  and  C_31
REMARK   14  A    between atoms: C_31  and  C_32
REMARK   15  A    between atoms: C_33  and  C_34
REMARK   16  A    between atoms: C_33  and  C_35
REMARK                            x       y       z     vdW  Elec       q    Type
REMARK                         _______ _______ _______ _____ _____    ______ ____
ROOT
ATOM      1  C   LIG A   1      -7.179   0.237 126.862  0.00  0.00    +0.200 C 
ATOM      2  C   LIG A   1      -8.203   0.280 125.766  0.00  0.00    +0.023 C 
ATOM      3  C   LIG A   1      -7.948   1.007 124.664  0.00  0.00    +0.012 C 
ATOM      4  C   LIG A   1      -7.984   0.417 123.282  0.00  0.00    +0.343 C 
ATOM      5  O   LIG A   1      -6.742   0.881 122.734  0.00  0.00    -0.297 OA
ATOM      6  C   LIG A   1      -6.634   2.259 123.140  0.00  0.00    +0.327 C 
ATOM      7  C   LIG A   1      -7.116   2.291 124.661  0.00  0.00    +0.089 C 
ATOM      8  C   LIG A   1      -8.048   3.536 124.942  0.00  0.00    +0.131 C 
ATOM      9  C   LIG A   1      -7.708   4.366 126.172  0.00  0.00    +0.036 C 
ATOM     10  C   LIG A   1      -6.212   4.650 126.269  0.00  0.00    -0.005 C 
ATOM     11  C   LIG A   1      -5.745   5.372 124.997  0.00  0.00    +0.008 C 
ATOM     12  C   LIG A   1      -5.468   3.327 126.640  0.00  0.00    -0.022 C 
ATOM     13  C   LIG A   1      -5.848   2.988 128.117  0.00  0.00    +0.012 C 
ATOM     14  C   LIG A   1      -5.853   2.135 125.634  0.00  0.00    +0.018 C 
ATOM     15  C   LIG A   1      -5.822   0.724 126.303  0.00  0.00    +0.054 C 
ENDROOT
BRANCH   8  16
ATOM     16  O   LIG A   1      -9.436   3.204 125.096  0.00  0.00    -0.391 OA
ATOM     17  H   LIG A   1      -9.510   2.427 125.672  0.00  0.00    +0.210 HD
ENDBRANCH   8  16
BRANCH   1  18
ATOM     18  O   LIG A   1      -6.985  -1.152 127.234  0.00  0.00    -0.454 OA
BRANCH  18  20
ATOM     19  O   LIG A   1      -8.087  -1.032 129.240  0.00  0.00    -0.245 OA
ATOM     20  C   LIG A   1      -7.166  -1.467 128.525  0.00  0.00    +0.340 C 
BRANCH  20  21
ATOM     21  C   LIG A   1      -6.146  -2.416 129.042  0.00  0.00    +0.059 A 
ATOM     22  C   LIG A   1      -4.809  -2.244 128.639  0.00  0.00    +0.015 A 
ATOM     23  C   LIG A   1      -3.819  -3.108 129.095  0.00  0.00    +0.001 A 
ATOM     24  C   LIG A   1      -4.146  -4.150 129.961  0.00  0.00    +0.000 A 
ATOM     25  C   LIG A   1      -5.468  -4.320 130.373  0.00  0.00    +0.001 A 
ATOM     26  C   LIG A   1      -6.470  -3.451 129.919  0.00  0.00    +0.015 A 
ENDBRANCH  20  21
ENDBRANCH  18  20
ENDBRANCH   1  18
BRANCH   6  27
ATOM     27  O   LIG A   1      -7.461   3.029 122.255  0.00  0.00    -0.434 OA
BRANCH  27  28
ATOM     28  C   LIG A   1      -6.810   3.638 121.227  0.00  0.00    +0.306 C 
ATOM     29  C   LIG A   1      -5.409   3.967 121.648  0.00  0.00    +0.136 C 
ATOM     30  O   LIG A   1      -7.302   3.971 120.149  0.00  0.00    -0.251 OA
ENDBRANCH  27  28
ENDBRANCH   6  27
BRANCH   4  31
ATOM     31  O   LIG A   1      -7.976  -1.009 123.383  0.00  0.00    -0.431 OA
BRANCH  31  32
ATOM     32  C   LIG A   1      -9.138  -1.617 123.049  0.00  0.00    +0.306 C 
ATOM     33  C   LIG A   1      -9.098  -3.076 123.398  0.00  0.00    +0.136 C 
ATOM     34  O   LIG A   1     -10.137  -1.056 122.622  0.00  0.00    -0.251 OA
ENDBRANCH  31  32
ENDBRANCH   4  31
BRANCH  12  35
ATOM     35  C   LIG A   1      -3.887   3.511 126.619  0.00  0.00    +0.034 C 
BRANCH  35  36
ATOM     36  C   LIG A   1      -3.238   3.877 127.938  0.00  0.00    -0.023 C 
ATOM     37  C   LIG A   1      -3.059   5.104 128.470  0.00  0.00    -0.055 C 
ATOM     38  C   LIG A   1      -3.477   6.410 127.856  0.00  0.00    +0.043 C 
BRANCH  37  39
ATOM     39  C   LIG A   1      -2.435   5.246 129.778  0.00  0.00    -0.005 C 
ATOM     40  C   LIG A   1      -2.227   6.419 130.390  0.00  0.00    +0.008 C 
ENDBRANCH  37  39
ENDBRANCH  35  36
ENDBRANCH  12  35
TORSDOF 11
ENDMDL
MODEL 3
REMARK VINA RESULT:      -8.1      3.304      4.949
REMARK  Name = NuBBE_59
REMARK  16 active torsions:
REMARK  status: ('A' for Active; 'I' for Inactive)
REMARK    1  A    between atoms: C_2  and  O_3
REMARK    2  A    between atoms: C_2  and  C_40
REMARK    3  A    between atoms: O_3  and  C_4
REMARK    4  A    between atoms: C_8  and  O_17
REMARK    5  A    between atoms: C_11  and  O_13
REMARK    6  A    between atoms: O_13  and  C_14
REMARK    7  A    between atoms: C_14  and  C_15
REMARK    8  A    between atoms: O_17  and  C_18
REMARK    9  A    between atoms: C_18  and  C_19
REMARK   10  A    between atoms: C_22  and  O_24
REMARK   11  A    between atoms: C_26  and  C_28
REMARK   12  A    between atoms: C_29  and  C_30
REMARK   13  A    between atoms: C_29  and  C_31
REMARK   14  A    between atoms: C_31  and  C_32
REMARK   15  A    between atoms: C_33  and  C_34
REMARK   16  A    between atoms: C_33  and  C_35
REMARK                            x       y       z     vdW  Elec       q    Type
REMARK                         _______ _______ _______ _____ _____    ______ ____
ROOT
ATOM      1  C   LIG A   1      -7.897   0.495 128.727  0.00  0.00    +0.200 C 
ATOM      2  C   LIG A   1      -8.505   1.690 128.053  0.00  0.00    +0.023 C 
ATOM      3  C   LIG A   1      -8.315   2.909 128.589  0.00  0.00    +0.012 C 
ATOM      4  C   LIG A   1      -7.721   4.049 127.811  0.00  0.00    +0.343 C 
ATOM      5  O   LIG A   1      -6.714   4.526 128.714  0.00  0.00    -0.297 OA
ATOM      6  C   LIG A   1      -7.334   4.529 130.014  0.00  0.00    +0.327 C 
ATOM      7  C   LIG A   1      -8.164   3.167 130.090  0.00  0.00    +0.089 C 
ATOM      8  C   LIG A   1      -9.585   3.397 130.741  0.00  0.00    +0.131 C 
ATOM      9  C   LIG A   1      -9.983   2.427 131.846  0.00  0.00    +0.036 C 
ATOM     10  C   LIG A   1      -8.850   2.206 132.842  0.00  0.00    -0.005 C 
ATOM     11  C   LIG A   1      -8.430   3.553 133.447  0.00  0.00    +0.008 C 
ATOM     12  C   LIG A   1      -7.728   1.364 132.154  0.00  0.00    -0.022 C 
ATOM     13  C   LIG A   1      -8.295  -0.078 131.956  0.00  0.00    +0.012 C 
ATOM     14  C   LIG A   1      -7.268   2.022 130.762  0.00  0.00    +0.018 C 
ATOM     15  C   LIG A   1      -6.799   0.974 129.705  0.00  0.00    +0.054 C 
ENDROOT
BRANCH   8  16
ATOM     16  O   LIG A   1     -10.672   3.352 129.804  0.00  0.00    -0.391 OA
ATOM     17  H   LIG A   1     -10.325   3.517 128.914  0.00  0.00    +0.210 HD
ENDBRANCH   8  16
BRANCH   1  18
ATOM     18  O   LIG A   1      -7.218  -0.289 127.713  0.00  0.00    -0.454 OA
BRANCH  18  20
ATOM     19  O   LIG A   1      -8.421  -2.091 126.965  0.00  0.00    -0.245 OA
ATOM     20  C   LIG A   1      -7.513  -1.596 127.657  0.00  0.00    +0.340 C 
BRANCH  20  21
ATOM     21  C   LIG A   1      -6.628  -2.430 128.512  0.00  0.00    +0.059 A 
ATOM     22  C   LIG A   1      -5.239  -2.363 128.299  0.00  0.00    +0.015 A 
ATOM     23  C   LIG A   1      -4.371  -3.125 129.073  0.00  0.00    +0.001 A 
ATOM     24  C   LIG A   1      -4.872  -3.959 130.070  0.00  0.00    +0.000 A 
ATOM     25  C   LIG A   1      -6.248  -4.022 130.294  0.00  0.00    +0.001 A 
ATOM     26  C   LIG A   1      -7.128  -3.254 129.520  0.00  0.00    +0.015 A 
ENDBRANCH  20  21
ENDBRANCH  18  20
ENDBRANCH   1  18
BRANCH   6  27
ATOM     27  O   LIG A   1      -8.149   5.707 130.095  0.00  0.00    -0.434 OA
BRANCH  27  28
ATOM     28  C   LIG A   1      -8.015   6.434 131.237  0.00  0.00    +0.306 C 
ATOM     29  C   LIG A   1      -6.561   6.694 131.498  0.00  0.00    +0.136 C 
ATOM     30  O   LIG A   1      -8.920   6.752 132.008  0.00  0.00    -0.251 OA
ENDBRANCH  27  28
ENDBRANCH   6  27
BRANCH   4  31
ATOM     31  O   LIG A   1      -7.114   3.537 126.622  0.00  0.00    -0.431 OA
BRANCH  31  32
ATOM     32  C   LIG A   1      -7.562   4.079 125.467  0.00  0.00    +0.306 C 
ATOM     33  C   LIG A   1      -6.433   4.288 124.501  0.00  0.00    +0.136 C 
ATOM     34  O   LIG A   1      -8.734   4.279 125.182  0.00  0.00    -0.251 OA
ENDBRANCH  31  32
ENDBRANCH   4  31
BRANCH  12  35
ATOM     35  C   LIG A   1      -6.445   1.212 133.085  0.00  0.00    +0.034 C 
BRANCH  35  36
ATOM     36  C   LIG A   1      -5.994  -0.204 133.377  0.00  0.00    -0.023 C 
ATOM     37  C   LIG A   1      -4.982  -0.893 132.808  0.00  0.00    -0.055 C 
ATOM     38  C   LIG A   1      -4.056  -0.393 131.736  0.00  0.00    +0.043 C 
BRANCH  37  39
ATOM     39  C   LIG A   1      -4.685  -2.247 133.252  0.00  0.00    -0.005 C 
ATOM     40  C   LIG A   1      -5.567  -3.053 133.856  0.00  0.00    +0.008 C 
ENDBRANCH  37  39
ENDBRANCH  35  36
ENDBRANCH  12  35
TORSDOF 11
ENDMDL
MODEL 4
REMARK VINA RESULT:      -8.0      2.513      6.613
REMARK  Name = NuBBE_59
REMARK  16 active torsions:
REMARK  status: ('A' for Active; 'I' for Inactive)
REMARK    1  A    between atoms: C_2  and  O_3
REMARK    2  A    between atoms: C_2  and  C_40
REMARK    3  A    between atoms: O_3  and  C_4
REMARK    4  A    between atoms: C_8  and  O_17
REMARK    5  A    between atoms: C_11  and  O_13
REMARK    6  A    between atoms: O_13  and  C_14
REMARK    7  A    between atoms: C_14  and  C_15
REMARK    8  A    between atoms: O_17  and  C_18
REMARK    9  A    between atoms: C_18  and  C_19
REMARK   10  A    between atoms: C_22  and  O_24
REMARK   11  A    between atoms: C_26  and  C_28
REMARK   12  A    between atoms: C_29  and  C_30
REMARK   13  A    between atoms: C_29  and  C_31
REMARK   14  A    between atoms: C_31  and  C_32
REMARK   15  A    between atoms: C_33  and  C_34
REMARK   16  A    between atoms: C_33  and  C_35
REMARK                            x       y       z     vdW  Elec       q    Type
REMARK                         _______ _______ _______ _____ _____    ______ ____
ROOT
ATOM      1  C   LIG A   1      -6.890   2.085 125.275  0.00  0.00    +0.200 C 
ATOM      2  C   LIG A   1      -6.379   0.716 124.934  0.00  0.00    +0.023 C 
ATOM      3  C   LIG A   1      -6.849  -0.343 125.616  0.00  0.00    +0.012 C 
ATOM      4  C   LIG A   1      -7.483  -1.525 124.936  0.00  0.00    +0.343 C 
ATOM      5  O   LIG A   1      -8.687  -1.688 125.696  0.00  0.00    -0.297 OA
ATOM      6  C   LIG A   1      -8.299  -1.523 127.073  0.00  0.00    +0.327 C 
ATOM      7  C   LIG A   1      -7.284  -0.291 127.082  0.00  0.00    +0.089 C 
ATOM      8  C   LIG A   1      -6.046  -0.573 128.021  0.00  0.00    +0.131 C 
ATOM      9  C   LIG A   1      -5.684   0.529 129.007  0.00  0.00    +0.036 C 
ATOM     10  C   LIG A   1      -6.915   1.080 129.719  0.00  0.00    -0.005 C 
ATOM     11  C   LIG A   1      -7.640  -0.063 130.445  0.00  0.00    +0.008 C 
ATOM     12  C   LIG A   1      -7.759   1.913 128.701  0.00  0.00    -0.022 C 
ATOM     13  C   LIG A   1      -6.942   3.206 128.382  0.00  0.00    +0.012 C 
ATOM     14  C   LIG A   1      -8.082   1.067 127.374  0.00  0.00    +0.018 C 
ATOM     15  C   LIG A   1      -8.196   1.947 126.090  0.00  0.00    +0.054 C 
ENDROOT
BRANCH   8  16
ATOM     16  O   LIG A   1      -4.826  -0.848 127.314  0.00  0.00    -0.391 OA
ATOM     17  H   LIG A   1      -4.244  -0.075 127.384  0.00  0.00    +0.210 HD
ENDBRANCH   8  16
BRANCH   1  18
ATOM     18  O   LIG A   1      -7.257   2.744 124.035  0.00  0.00    -0.454 OA
BRANCH  18  20
ATOM     19  O   LIG A   1      -5.294   3.927 124.012  0.00  0.00    -0.245 OA
ATOM     20  C   LIG A   1      -6.320   3.503 123.449  0.00  0.00    +0.340 C 
BRANCH  20  21
ATOM     21  C   LIG A   1      -6.616   3.797 122.023  0.00  0.00    +0.059 A 
ATOM     22  C   LIG A   1      -5.567   4.254 121.204  0.00  0.00    +0.015 A 
ATOM     23  C   LIG A   1      -5.795   4.543 119.863  0.00  0.00    +0.001 A 
ATOM     24  C   LIG A   1      -7.067   4.377 119.319  0.00  0.00    +0.000 A 
ATOM     25  C   LIG A   1      -8.110   3.914 120.122  0.00  0.00    +0.001 A 
ATOM     26  C   LIG A   1      -7.885   3.618 121.474  0.00  0.00    +0.015 A 
ENDBRANCH  20  21
ENDBRANCH  18  20
ENDBRANCH   1  18
BRANCH   6  27
ATOM     27  O   LIG A   1      -7.709  -2.760 127.499  0.00  0.00    -0.434 OA
BRANCH  27  28
ATOM     28  C   LIG A   1      -8.438  -3.477 128.397  0.00  0.00    +0.306 C 
ATOM     29  C   LIG A   1      -7.741  -3.471 129.725  0.00  0.00    +0.136 C 
ATOM     30  O   LIG A   1      -9.456  -4.125 128.157  0.00  0.00    -0.251 OA
ENDBRANCH  27  28
ENDBRANCH   6  27
BRANCH   4  31
ATOM     31  O   LIG A   1      -7.794  -1.174 123.585  0.00  0.00    -0.431 OA
BRANCH  31  32
ATOM     32  C   LIG A   1      -9.113  -1.147 123.287  0.00  0.00    +0.306 C 
ATOM     33  C   LIG A   1      -9.577   0.260 123.042  0.00  0.00    +0.136 C 
ATOM     34  O   LIG A   1      -9.826  -2.126 123.124  0.00  0.00    -0.251 OA
ENDBRANCH  31  32
ENDBRANCH   4  31
BRANCH  12  35
ATOM     35  C   LIG A   1      -9.135   2.403 129.333  0.00  0.00    +0.034 C 
BRANCH  35  36
ATOM     36  C   LIG A   1      -9.050   3.557 130.310  0.00  0.00    -0.023 C 
ATOM     37  C   LIG A   1      -9.269   3.543 131.642  0.00  0.00    -0.055 C 
ATOM     38  C   LIG A   1      -9.650   2.349 132.469  0.00  0.00    +0.043 C 
BRANCH  37  39
ATOM     39  C   LIG A   1      -9.104   4.764 132.418  0.00  0.00    -0.005 C 
ATOM     40  C   LIG A   1     -10.045   5.708 132.547  0.00  0.00    +0.008 C 
ENDBRANCH  37  39
ENDBRANCH  35  36
ENDBRANCH  12  35
TORSDOF 11
ENDMDL
MODEL 5
REMARK VINA RESULT:      -7.9      3.522      7.699
REMARK  Name = NuBBE_59
REMARK  16 active torsions:
REMARK  status: ('A' for Active; 'I' for Inactive)
REMARK    1  A    between atoms: C_2  and  O_3
REMARK    2  A    between atoms: C_2  and  C_40
REMARK    3  A    between atoms: O_3  and  C_4
REMARK    4  A    between atoms: C_8  and  O_17
REMARK    5  A    between atoms: C_11  and  O_13
REMARK    6  A    between atoms: O_13  and  C_14
REMARK    7  A    between atoms: C_14  and  C_15
REMARK    8  A    between atoms: O_17  and  C_18
REMARK    9  A    between atoms: C_18  and  C_19
REMARK   10  A    between atoms: C_22  and  O_24
REMARK   11  A    between atoms: C_26  and  C_28
REMARK   12  A    between atoms: C_29  and  C_30
REMARK   13  A    between atoms: C_29  and  C_31
REMARK   14  A    between atoms: C_31  and  C_32
REMARK   15  A    between atoms: C_33  and  C_34
REMARK   16  A    between atoms: C_33  and  C_35
REMARK                            x       y       z     vdW  Elec       q    Type
REMARK                         _______ _______ _______ _____ _____    ______ ____
ROOT
ATOM      1  C   LIG A   1      -7.808   5.313 130.916  0.00  0.00    +0.200 C 
ATOM      2  C   LIG A   1      -6.366   5.667 131.133  0.00  0.00    +0.023 C 
ATOM      3  C   LIG A   1      -5.443   5.192 130.279  0.00  0.00    +0.012 C 
ATOM      4  C   LIG A   1      -4.493   6.089 129.535  0.00  0.00    +0.343 C 
ATOM      5  O   LIG A   1      -4.623   5.605 128.193  0.00  0.00    -0.297 OA
ATOM      6  C   LIG A   1      -4.632   4.169 128.301  0.00  0.00    +0.327 C 
ATOM      7  C   LIG A   1      -5.555   3.845 129.562  0.00  0.00    +0.089 C 
ATOM      8  C   LIG A   1      -4.925   2.705 130.457  0.00  0.00    +0.131 C 
ATOM      9  C   LIG A   1      -5.858   1.571 130.858  0.00  0.00    +0.036 C 
ATOM     10  C   LIG A   1      -6.686   1.075 129.677  0.00  0.00    -0.005 C 
ATOM     11  C   LIG A   1      -5.748   0.615 128.552  0.00  0.00    +0.008 C 
ATOM     12  C   LIG A   1      -7.747   2.161 129.308  0.00  0.00    -0.022 C 
ATOM     13  C   LIG A   1      -8.792   2.192 130.470  0.00  0.00    +0.012 C 
ATOM     14  C   LIG A   1      -7.063   3.597 129.082  0.00  0.00    +0.018 C 
ATOM     15  C   LIG A   1      -7.987   4.793 129.471  0.00  0.00    +0.054 C 
ENDROOT
BRANCH   8  16
ATOM     16  O   LIG A   1      -4.367   3.175 131.694  0.00  0.00    -0.391 OA
ATOM     17  H   LIG A   1      -4.292   4.141 131.657  0.00  0.00    +0.210 HD
ENDBRANCH   8  16
BRANCH   1  18
ATOM     18  O   LIG A   1      -8.583   6.537 131.002  0.00  0.00    -0.454 OA
BRANCH  18  20
ATOM     19  O   LIG A   1     -10.400   5.721 132.137  0.00  0.00    -0.245 OA
ATOM     20  C   LIG A   1      -9.899   6.409 131.229  0.00  0.00    +0.340 C 
BRANCH  20  21
ATOM     21  C   LIG A   1     -10.732   7.190 130.279  0.00  0.00    +0.059 A 
ATOM     22  C   LIG A   1     -10.103   7.775 129.164  0.00  0.00    +0.015 A 
ATOM     23  C   LIG A   1     -10.841   8.517 128.248  0.00  0.00    +0.001 A 
ATOM     24  C   LIG A   1     -12.213   8.681 128.425  0.00  0.00    +0.000 A 
ATOM     25  C   LIG A   1     -12.846   8.095 129.522  0.00  0.00    +0.001 A 
ATOM     26  C   LIG A   1     -12.108   7.344 130.448  0.00  0.00    +0.015 A 
ENDBRANCH  20  21
ENDBRANCH  18  20
ENDBRANCH   1  18
BRANCH   6  27
ATOM     27  O   LIG A   1      -3.269   3.746 128.458  0.00  0.00    -0.434 OA
BRANCH  27  28
ATOM     28  C   LIG A   1      -2.697   3.191 127.356  0.00  0.00    +0.306 C 
ATOM     29  C   LIG A   1      -3.768   2.643 126.460  0.00  0.00    +0.136 C 
ATOM     30  O   LIG A   1      -1.491   3.055 127.151  0.00  0.00    -0.251 OA
ENDBRANCH  27  28
ENDBRANCH   6  27
BRANCH   4  31
ATOM     31  O   LIG A   1      -4.961   7.438 129.622  0.00  0.00    -0.431 OA
BRANCH  31  32
ATOM     32  C   LIG A   1      -4.052   8.336 130.064  0.00  0.00    +0.306 C 
ATOM     33  C   LIG A   1      -3.163   7.728 131.109  0.00  0.00    +0.136 C 
ATOM     34  O   LIG A   1      -3.885   9.460 129.613  0.00  0.00    -0.251 OA
ENDBRANCH  31  32
ENDBRANCH   4  31
BRANCH  12  35
ATOM     35  C   LIG A   1      -8.557   1.777 127.993  0.00  0.00    +0.034 C 
BRANCH  35  36
ATOM     36  C   LIG A   1      -8.174   2.522 126.731  0.00  0.00    -0.023 C 
ATOM     37  C   LIG A   1      -7.647   2.024 125.592  0.00  0.00    -0.055 C 
ATOM     38  C   LIG A   1      -7.319   0.584 125.318  0.00  0.00    +0.043 C 
BRANCH  37  39
ATOM     39  C   LIG A   1      -7.376   2.909 124.468  0.00  0.00    -0.005 C 
ATOM     40  C   LIG A   1      -6.652   4.033 124.552  0.00  0.00    +0.008 C 
ENDBRANCH  37  39
ENDBRANCH  35  36
ENDBRANCH  12  35
TORSDOF 11
ENDMDL
MODEL 6
REMARK VINA RESULT:      -7.8      3.561      6.461
REMARK  Name = NuBBE_59
REMARK  16 active torsions:
REMARK  status: ('A' for Active; 'I' for Inactive)
REMARK    1  A    between atoms: C_2  and  O_3
REMARK    2  A    between atoms: C_2  and  C_40
REMARK    3  A    between atoms: O_3  and  C_4
REMARK    4  A    between atoms: C_8  and  O_17
REMARK    5  A    between atoms: C_11  and  O_13
REMARK    6  A    between atoms: O_13  and  C_14
REMARK    7  A    between atoms: C_14  and  C_15
REMARK    8  A    between atoms: O_17  and  C_18
REMARK    9  A    between atoms: C_18  and  C_19
REMARK   10  A    between atoms: C_22  and  O_24
REMARK   11  A    between atoms: C_26  and  C_28
REMARK   12  A    between atoms: C_29  and  C_30
REMARK   13  A    between atoms: C_29  and  C_31
REMARK   14  A    between atoms: C_31  and  C_32
REMARK   15  A    between atoms: C_33  and  C_34
REMARK   16  A    between atoms: C_33  and  C_35
REMARK                            x       y       z     vdW  Elec       q    Type
REMARK                         _______ _______ _______ _____ _____    ______ ____
ROOT
ATOM      1  C   LIG A   1      -7.031   0.349 131.091  0.00  0.00    +0.200 C 
ATOM      2  C   LIG A   1      -8.288   0.568 130.301  0.00  0.00    +0.023 C 
ATOM      3  C   LIG A   1      -8.662   1.825 130.006  0.00  0.00    +0.012 C 
ATOM      4  C   LIG A   1      -8.911   2.284 128.597  0.00  0.00    +0.343 C 
ATOM      5  O   LIG A   1      -8.151   3.498 128.546  0.00  0.00    -0.297 OA
ATOM      6  C   LIG A   1      -8.419   4.173 129.790  0.00  0.00    +0.327 C 
ATOM      7  C   LIG A   1      -8.386   3.032 130.906  0.00  0.00    +0.089 C 
ATOM      8  C   LIG A   1      -9.564   3.210 131.944  0.00  0.00    +0.131 C 
ATOM      9  C   LIG A   1      -9.179   3.140 133.415  0.00  0.00    +0.036 C 
ATOM     10  C   LIG A   1      -7.931   3.964 133.715  0.00  0.00    -0.005 C 
ATOM     11  C   LIG A   1      -8.169   5.423 133.298  0.00  0.00    +0.008 C 
ATOM     12  C   LIG A   1      -6.689   3.249 133.092  0.00  0.00    -0.022 C 
ATOM     13  C   LIG A   1      -6.447   1.948 133.922  0.00  0.00    +0.012 C 
ATOM     14  C   LIG A   1      -6.916   2.930 131.533  0.00  0.00    +0.018 C 
ATOM     15  C   LIG A   1      -6.180   1.640 131.050  0.00  0.00    +0.054 C 
ENDROOT
BRANCH   8  16
ATOM     16  O   LIG A   1     -10.623   2.252 131.796  0.00  0.00    -0.391 OA
ATOM     17  H   LIG A   1     -10.301   1.383 132.084  0.00  0.00    +0.210 HD
ENDBRANCH   8  16
BRANCH   1  18
ATOM     18  O   LIG A   1      -6.250  -0.668 130.411  0.00  0.00    -0.454 OA
BRANCH  18  20
ATOM     19  O   LIG A   1      -6.677  -2.656 131.467  0.00  0.00    -0.245 OA
ATOM     20  C   LIG A   1      -6.715  -1.925 130.461  0.00  0.00    +0.340 C 
BRANCH  20  21
ATOM     21  C   LIG A   1      -7.305  -2.380 129.176  0.00  0.00    +0.059 A 
ATOM     22  C   LIG A   1      -8.335  -3.338 129.216  0.00  0.00    +0.015 A 
ATOM     23  C   LIG A   1      -8.918  -3.795 128.039  0.00  0.00    +0.001 A 
ATOM     24  C   LIG A   1      -8.487  -3.303 126.809  0.00  0.00    +0.000 A 
ATOM     25  C   LIG A   1      -7.473  -2.345 126.761  0.00  0.00    +0.001 A 
ATOM     26  C   LIG A   1      -6.884  -1.878 127.944  0.00  0.00    +0.015 A 
ENDBRANCH  20  21
ENDBRANCH  18  20
ENDBRANCH   1  18
BRANCH   6  27
ATOM     27  O   LIG A   1      -9.696   4.815 129.658  0.00  0.00    -0.434 OA
BRANCH  27  28
ATOM     28  C   LIG A   1      -9.668   6.075 129.146  0.00  0.00    +0.306 C 
ATOM     29  C   LIG A   1      -9.585   7.068 130.267  0.00  0.00    +0.136 C 
ATOM     30  O   LIG A   1      -9.794   6.384 127.961  0.00  0.00    -0.251 OA
ENDBRANCH  27  28
ENDBRANCH   6  27
BRANCH   4  31
ATOM     31  O   LIG A   1      -8.366   1.322 127.690  0.00  0.00    -0.431 OA
BRANCH  31  32
ATOM     32  C   LIG A   1      -8.108   1.784 126.446  0.00  0.00    +0.306 C 
ATOM     33  C   LIG A   1      -6.673   1.545 126.074  0.00  0.00    +0.136 C 
ATOM     34  O   LIG A   1      -8.935   2.238 125.669  0.00  0.00    -0.251 OA
ENDBRANCH  31  32
ENDBRANCH   4  31
BRANCH  12  35
ATOM     35  C   LIG A   1      -5.366   4.122 133.238  0.00  0.00    +0.034 C 
BRANCH  35  36
ATOM     36  C   LIG A   1      -4.536   4.294 131.984  0.00  0.00    -0.023 C 
ATOM     37  C   LIG A   1      -4.503   5.347 131.140  0.00  0.00    -0.055 C 
ATOM     38  C   LIG A   1      -5.300   6.614 131.266  0.00  0.00    +0.043 C 
BRANCH  37  39
ATOM     39  C   LIG A   1      -3.605   5.333 129.994  0.00  0.00    -0.005 C 
ATOM     40  C   LIG A   1      -3.287   4.234 129.299  0.00  0.00    +0.008 C 
ENDBRANCH  37  39
ENDBRANCH  35  36
ENDBRANCH  12  35
TORSDOF 11
ENDMDL
MODEL 7
REMARK VINA RESULT:      -7.8      2.733      7.770
REMARK  Name = NuBBE_59
REMARK  16 active torsions:
REMARK  status: ('A' for Active; 'I' for Inactive)
REMARK    1  A    between atoms: C_2  and  O_3
REMARK    2  A    between atoms: C_2  and  C_40
REMARK    3  A    between atoms: O_3  and  C_4
REMARK    4  A    between atoms: C_8  and  O_17
REMARK    5  A    between atoms: C_11  and  O_13
REMARK    6  A    between atoms: O_13  and  C_14
REMARK    7  A    between atoms: C_14  and  C_15
REMARK    8  A    between atoms: O_17  and  C_18
REMARK    9  A    between atoms: C_18  and  C_19
REMARK   10  A    between atoms: C_22  and  O_24
REMARK   11  A    between atoms: C_26  and  C_28
REMARK   12  A    between atoms: C_29  and  C_30
REMARK   13  A    between atoms: C_29  and  C_31
REMARK   14  A    between atoms: C_31  and  C_32
REMARK   15  A    between atoms: C_33  and  C_34
REMARK   16  A    between atoms: C_33  and  C_35
REMARK                            x       y       z     vdW  Elec       q    Type
REMARK                         _______ _______ _______ _____ _____    ______ ____
ROOT
ATOM      1  C   LIG A   1      -8.453   2.415 127.935  0.00  0.00    +0.200 C 
ATOM      2  C   LIG A   1      -8.920   1.019 127.646  0.00  0.00    +0.023 C 
ATOM      3  C   LIG A   1      -8.270   0.293 126.719  0.00  0.00    +0.012 C 
ATOM      4  C   LIG A   1      -7.682  -1.058 127.018  0.00  0.00    +0.343 C 
ATOM      5  O   LIG A   1      -6.357  -0.924 126.486  0.00  0.00    -0.297 OA
ATOM      6  C   LIG A   1      -6.516  -0.253 125.221  0.00  0.00    +0.327 C 
ATOM      7  C   LIG A   1      -7.596   0.893 125.483  0.00  0.00    +0.089 C 
ATOM      8  C   LIG A   1      -8.634   0.985 124.296  0.00  0.00    +0.131 C 
ATOM      9  C   LIG A   1      -8.897   2.377 123.739  0.00  0.00    +0.036 C 
ATOM     10  C   LIG A   1      -7.603   3.154 123.520  0.00  0.00    -0.005 C 
ATOM     11  C   LIG A   1      -6.689   2.368 122.569  0.00  0.00    +0.008 C 
ATOM     12  C   LIG A   1      -7.004   3.543 124.910  0.00  0.00    -0.022 C 
ATOM     13  C   LIG A   1      -7.949   4.622 125.529  0.00  0.00    +0.012 C 
ATOM     14  C   LIG A   1      -6.854   2.260 125.865  0.00  0.00    +0.018 C 
ATOM     15  C   LIG A   1      -7.020   2.592 127.381  0.00  0.00    +0.054 C 
ENDROOT
BRANCH   8  16
ATOM     16  O   LIG A   1      -9.935   0.466 124.615  0.00  0.00    -0.391 OA
ATOM     17  H   LIG A   1     -10.598   1.148 124.427  0.00  0.00    +0.210 HD
ENDBRANCH   8  16
BRANCH   1  18
ATOM     18  O   LIG A   1      -8.348   2.559 129.376  0.00  0.00    -0.454 OA
BRANCH  18  20
ATOM     19  O   LIG A   1     -10.271   3.553 130.128  0.00  0.00    -0.245 OA
ATOM     20  C   LIG A   1      -9.041   3.559 129.939  0.00  0.00    +0.340 C 
BRANCH  20  21
ATOM     21  C   LIG A   1      -8.186   4.707 130.339  0.00  0.00    +0.059 A 
ATOM     22  C   LIG A   1      -8.809   5.936 130.624  0.00  0.00    +0.015 A 
ATOM     23  C   LIG A   1      -8.051   7.039 131.002  0.00  0.00    +0.001 A 
ATOM     24  C   LIG A   1      -6.666   6.933 131.104  0.00  0.00    +0.000 A 
ATOM     25  C   LIG A   1      -6.041   5.715 130.833  0.00  0.00    +0.001 A 
ATOM     26  C   LIG A   1      -6.800   4.598 130.455  0.00  0.00    +0.015 A 
ENDBRANCH  20  21
ENDBRANCH  18  20
ENDBRANCH   1  18
BRANCH   6  27
ATOM     27  O   LIG A   1      -6.939  -1.239 124.268  0.00  0.00    -0.434 OA
BRANCH  27  28
ATOM     28  C   LIG A   1      -5.945  -1.990 123.722  0.00  0.00    +0.306 C 
ATOM     29  C   LIG A   1      -6.066  -1.968 122.227  0.00  0.00    +0.136 C 
ATOM     30  O   LIG A   1      -5.125  -2.673 124.336  0.00  0.00    -0.251 OA
ENDBRANCH  27  28
ENDBRANCH   6  27
BRANCH   4  31
ATOM     31  O   LIG A   1      -7.629  -1.241 128.435  0.00  0.00    -0.431 OA
BRANCH  31  32
ATOM     32  C   LIG A   1      -7.805  -2.513 128.859  0.00  0.00    +0.306 C 
ATOM     33  C   LIG A   1      -8.593  -3.306 127.858  0.00  0.00    +0.136 C 
ATOM     34  O   LIG A   1      -7.308  -3.004 129.862  0.00  0.00    -0.251 OA
ENDBRANCH  31  32
ENDBRANCH   4  31
BRANCH  12  35
ATOM     35  C   LIG A   1      -5.576   4.233 124.768  0.00  0.00    +0.034 C 
BRANCH  35  36
ATOM     36  C   LIG A   1      -4.427   3.546 125.476  0.00  0.00    -0.023 C 
ATOM     37  C   LIG A   1      -3.751   3.959 126.568  0.00  0.00    -0.055 C 
ATOM     38  C   LIG A   1      -3.998   5.221 127.344  0.00  0.00    +0.043 C 
BRANCH  37  39
ATOM     39  C   LIG A   1      -2.688   3.132 127.121  0.00  0.00    -0.005 C 
ATOM     40  C   LIG A   1      -1.465   3.021 126.588  0.00  0.00    +0.008 C 
ENDBRANCH  37  39
ENDBRANCH  35  36
ENDBRANCH  12  35
TORSDOF 11
ENDMDL
MODEL 8
REMARK VINA RESULT:      -7.7      3.078      6.212
REMARK  Name = NuBBE_59
REMARK  16 active torsions:
REMARK  status: ('A' for Active; 'I' for Inactive)
REMARK    1  A    between atoms: C_2  and  O_3
REMARK    2  A    between atoms: C_2  and  C_40
REMARK    3  A    between atoms: O_3  and  C_4
REMARK    4  A    between atoms: C_8  and  O_17
REMARK    5  A    between atoms: C_11  and  O_13
REMARK    6  A    between atoms: O_13  and  C_14
REMARK    7  A    between atoms: C_14  and  C_15
REMARK    8  A    between atoms: O_17  and  C_18
REMARK    9  A    between atoms: C_18  and  C_19
REMARK   10  A    between atoms: C_22  and  O_24
REMARK   11  A    between atoms: C_26  and  C_28
REMARK   12  A    between atoms: C_29  and  C_30
REMARK   13  A    between atoms: C_29  and  C_31
REMARK   14  A    between atoms: C_31  and  C_32
REMARK   15  A    between atoms: C_33  and  C_34
REMARK   16  A    between atoms: C_33  and  C_35
REMARK                            x       y       z     vdW  Elec       q    Type
REMARK                         _______ _______ _______ _____ _____    ______ ____
ROOT
ATOM      1  C   LIG A   1      -5.956   0.531 129.241  0.00  0.00    +0.200 C 
ATOM      2  C   LIG A   1      -6.076   1.600 130.287  0.00  0.00    +0.023 C 
ATOM      3  C   LIG A   1      -6.786   2.708 130.008  0.00  0.00    +0.012 C 
ATOM      4  C   LIG A   1      -7.932   3.169 130.864  0.00  0.00    +0.343 C 
ATOM      5  O   LIG A   1      -8.953   3.403 129.884  0.00  0.00    -0.297 OA
ATOM      6  C   LIG A   1      -8.294   4.077 128.795  0.00  0.00    +0.327 C 
ATOM      7  C   LIG A   1      -6.901   3.319 128.609  0.00  0.00    +0.089 C 
ATOM      8  C   LIG A   1      -5.719   4.340 128.370  0.00  0.00    +0.131 C 
ATOM      9  C   LIG A   1      -4.796   4.036 127.198  0.00  0.00    +0.036 C 
ATOM     10  C   LIG A   1      -5.576   3.654 125.945  0.00  0.00    -0.005 C 
ATOM     11  C   LIG A   1      -6.541   4.790 125.577  0.00  0.00    +0.008 C 
ATOM     12  C   LIG A   1      -6.203   2.238 126.150  0.00  0.00    -0.022 C 
ATOM     13  C   LIG A   1      -5.025   1.211 126.145  0.00  0.00    +0.012 C 
ATOM     14  C   LIG A   1      -7.055   2.163 127.511  0.00  0.00    +0.018 C 
ATOM     15  C   LIG A   1      -7.050   0.748 128.170  0.00  0.00    +0.054 C 
ENDROOT
BRANCH   8  16
ATOM     16  O   LIG A   1      -4.843   4.495 129.497  0.00  0.00    -0.391 OA
ATOM     17  H   LIG A   1      -4.942   3.725 130.078  0.00  0.00    +0.210 HD
ENDBRANCH   8  16
BRANCH   1  18
ATOM     18  O   LIG A   1      -6.257  -0.741 129.871  0.00  0.00    -0.454 OA
BRANCH  18  20
ATOM     19  O   LIG A   1      -4.707  -2.311 129.250  0.00  0.00    -0.245 OA
ATOM     20  C   LIG A   1      -5.862  -1.848 129.225  0.00  0.00    +0.340 C 
BRANCH  20  21
ATOM     21  C   LIG A   1      -6.957  -2.499 128.461  0.00  0.00    +0.059 A 
ATOM     22  C   LIG A   1      -6.989  -2.330 127.064  0.00  0.00    +0.015 A 
ATOM     23  C   LIG A   1      -7.995  -2.919 126.306  0.00  0.00    +0.001 A 
ATOM     24  C   LIG A   1      -8.979  -3.686 126.926  0.00  0.00    +0.000 A 
ATOM     25  C   LIG A   1      -8.949  -3.867 128.309  0.00  0.00    +0.001 A 
ATOM     26  C   LIG A   1      -7.935  -3.279 129.079  0.00  0.00    +0.015 A 
ENDBRANCH  20  21
ENDBRANCH  18  20
ENDBRANCH   1  18
BRANCH   6  27
ATOM     27  O   LIG A   1      -8.156   5.456 129.170  0.00  0.00    -0.434 OA
BRANCH  27  28
ATOM     28  C   LIG A   1      -9.321   6.118 129.403  0.00  0.00    +0.306 C 
ATOM     29  C   LIG A   1      -9.230   6.841 130.714  0.00  0.00    +0.136 C 
ATOM     30  O   LIG A   1     -10.340   6.066 128.715  0.00  0.00    -0.251 OA
ENDBRANCH  27  28
ENDBRANCH   6  27
BRANCH   4  31
ATOM     31  O   LIG A   1      -8.320   2.105 131.736  0.00  0.00    -0.431 OA
BRANCH  31  32
ATOM     32  C   LIG A   1      -8.156   2.353 133.056  0.00  0.00    +0.306 C 
ATOM     33  C   LIG A   1      -9.164   3.353 133.542  0.00  0.00    +0.136 C 
ATOM     34  O   LIG A   1      -7.375   1.774 133.797  0.00  0.00    -0.251 OA
ENDBRANCH  31  32
ENDBRANCH   4  31
BRANCH  12  35
ATOM     35  C   LIG A   1      -7.153   1.828 124.940  0.00  0.00    +0.034 C 
BRANCH  35  36
ATOM     36  C   LIG A   1      -6.789   0.556 124.204  0.00  0.00    -0.023 C 
ATOM     37  C   LIG A   1      -7.614  -0.344 123.630  0.00  0.00    -0.055 C 
ATOM     38  C   LIG A   1      -9.115  -0.279 123.592  0.00  0.00    +0.043 C 
BRANCH  37  39
ATOM     39  C   LIG A   1      -7.062  -1.499 122.936  0.00  0.00    -0.005 C 
ATOM     40  C   LIG A   1      -5.939  -2.131 123.300  0.00  0.00    +0.008 C 
ENDBRANCH  37  39
ENDBRANCH  35  36
ENDBRANCH  12  35
TORSDOF 11
ENDMDL
MODEL 9
REMARK VINA RESULT:      -7.7      3.367      5.517
REMARK  Name = NuBBE_59
REMARK  16 active torsions:
REMARK  status: ('A' for Active; 'I' for Inactive)
REMARK    1  A    between atoms: C_2  and  O_3
REMARK    2  A    between atoms: C_2  and  C_40
REMARK    3  A    between atoms: O_3  and  C_4
REMARK    4  A    between atoms: C_8  and  O_17
REMARK    5  A    between atoms: C_11  and  O_13
REMARK    6  A    between atoms: O_13  and  C_14
REMARK    7  A    between atoms: C_14  and  C_15
REMARK    8  A    between atoms: O_17  and  C_18
REMARK    9  A    between atoms: C_18  and  C_19
REMARK   10  A    between atoms: C_22  and  O_24
REMARK   11  A    between atoms: C_26  and  C_28
REMARK   12  A    between atoms: C_29  and  C_30
REMARK   13  A    between atoms: C_29  and  C_31
REMARK   14  A    between atoms: C_31  and  C_32
REMARK   15  A    between atoms: C_33  and  C_34
REMARK   16  A    between atoms: C_33  and  C_35
REMARK                            x       y       z     vdW  Elec       q    Type
REMARK                         _______ _______ _______ _____ _____    ______ ____
ROOT
ATOM      1  C   LIG A   1      -6.753   0.536 129.195  0.00  0.00    +0.200 C 
ATOM      2  C   LIG A   1      -7.460   1.519 128.309  0.00  0.00    +0.023 C 
ATOM      3  C   LIG A   1      -7.586   2.793 128.719  0.00  0.00    +0.012 C 
ATOM      4  C   LIG A   1      -7.100   3.957 127.900  0.00  0.00    +0.343 C 
ATOM      5  O   LIG A   1      -6.354   4.705 128.869  0.00  0.00    -0.297 OA
ATOM      6  C   LIG A   1      -7.158   4.698 130.064  0.00  0.00    +0.327 C 
ATOM      7  C   LIG A   1      -7.722   3.209 130.185  0.00  0.00    +0.089 C 
ATOM      8  C   LIG A   1      -9.245   3.205 130.606  0.00  0.00    +0.131 C 
ATOM      9  C   LIG A   1      -9.623   2.277 131.752  0.00  0.00    +0.036 C 
ATOM     10  C   LIG A   1      -8.638   2.377 132.912  0.00  0.00    -0.005 C 
ATOM     11  C   LIG A   1      -8.577   3.830 133.406  0.00  0.00    +0.008 C 
ATOM     12  C   LIG A   1      -7.285   1.721 132.487  0.00  0.00    -0.022 C 
ATOM     13  C   LIG A   1      -7.536   0.183 132.385  0.00  0.00    +0.012 C 
ATOM     14  C   LIG A   1      -6.745   2.332 131.103  0.00  0.00    +0.018 C 
ATOM     15  C   LIG A   1      -5.929   1.311 130.250  0.00  0.00    +0.054 C 
ENDROOT
BRANCH   8  16
ATOM     16  O   LIG A   1     -10.145   2.859 129.542  0.00  0.00    -0.391 OA
ATOM     17  H   LIG A   1     -10.782   2.205 129.871  0.00  0.00    +0.210 HD
ENDBRANCH   8  16
BRANCH   1  18
ATOM     18  O   LIG A   1      -5.789  -0.183 128.382  0.00  0.00    -0.454 OA
BRANCH  18  20
ATOM     19  O   LIG A   1      -4.709  -2.056 129.140  0.00  0.00    -0.245 OA
ATOM     20  C   LIG A   1      -5.680  -1.502 128.593  0.00  0.00    +0.340 C 
BRANCH  20  21
ATOM     21  C   LIG A   1      -6.858  -2.269 128.110  0.00  0.00    +0.059 A 
ATOM     22  C   LIG A   1      -7.606  -3.003 129.048  0.00  0.00    +0.015 A 
ATOM     23  C   LIG A   1      -8.716  -3.737 128.645  0.00  0.00    +0.001 A 
ATOM     24  C   LIG A   1      -9.098  -3.746 127.305  0.00  0.00    +0.000 A 
ATOM     25  C   LIG A   1      -8.367  -3.012 126.370  0.00  0.00    +0.001 A 
ATOM     26  C   LIG A   1      -7.249  -2.268 126.771  0.00  0.00    +0.015 A 
ENDBRANCH  20  21
ENDBRANCH  18  20
ENDBRANCH   1  18
BRANCH   6  27
ATOM     27  O   LIG A   1      -8.181   5.691 129.894  0.00  0.00    -0.434 OA
BRANCH  27  28
ATOM     28  C   LIG A   1      -8.288   6.599 130.900  0.00  0.00    +0.306 C 
ATOM     29  C   LIG A   1      -6.925   6.894 131.454  0.00  0.00    +0.136 C 
ATOM     30  O   LIG A   1      -9.334   7.046 131.371  0.00  0.00    -0.251 OA
ENDBRANCH  27  28
ENDBRANCH   6  27
BRANCH   4  31
ATOM     31  O   LIG A   1      -6.231   3.474 126.873  0.00  0.00    -0.431 OA
BRANCH  31  32
ATOM     32  C   LIG A   1      -5.481   4.418 126.261  0.00  0.00    +0.306 C 
ATOM     33  C   LIG A   1      -4.041   4.001 126.200  0.00  0.00    +0.136 C 
ATOM     34  O   LIG A   1      -5.910   5.430 125.724  0.00  0.00    -0.251 OA
ENDBRANCH  31  32
ENDBRANCH   4  31
BRANCH  12  35
ATOM     35  C   LIG A   1      -6.159   1.915 133.596  0.00  0.00    +0.034 C 
BRANCH  35  36
ATOM     36  C   LIG A   1      -5.005   2.823 133.225  0.00  0.00    -0.023 C 
ATOM     37  C   LIG A   1      -3.696   2.512 133.118  0.00  0.00    -0.055 C 
ATOM     38  C   LIG A   1      -3.081   1.160 133.346  0.00  0.00    +0.043 C 
BRANCH  37  39
ATOM     39  C   LIG A   1      -2.737   3.530 132.716  0.00  0.00    -0.005 C 
ATOM     40  C   LIG A   1      -2.951   4.424 131.742  0.00  0.00    +0.008 C 
ENDBRANCH  37  39
ENDBRANCH  35  36
ENDBRANCH  12  35
TORSDOF 11
ENDMDL
