MODEL 1
REMARK VINA RESULT:      -6.3      0.000      0.000
REMARK  Name = NuBBE_1679
REMARK  18 active torsions:
REMARK  status: ('A' for Active; 'I' for Inactive)
REMARK    1  A    between atoms: C_1  and  O_3
REMARK    2  A    between atoms: C_1  and  C_4
REMARK    3  A    between atoms: C_5  and  C_6
REMARK    4  A    between atoms: C_6  and  C_7
REMARK    5  A    between atoms: C_7  and  C_8
REMARK    6  A    between atoms: C_8  and  C_9
REMARK    7  A    between atoms: C_9  and  C_10
REMARK    8  A    between atoms: C_10  and  C_11
REMARK    9  A    between atoms: C_11  and  C_12
REMARK   10  A    between atoms: C_12  and  C_13
REMARK   11  A    between atoms: C_13  and  C_14
REMARK   12  A    between atoms: C_14  and  C_15
REMARK   13  A    between atoms: C_15  and  C_16
REMARK   14  A    between atoms: C_16  and  C_17
REMARK   15  A    between atoms: C_17  and  C_18
REMARK   16  A    between atoms: C_18  and  C_19
REMARK   17  A    between atoms: C_19  and  C_20
REMARK   18  A    between atoms: C_24  and  O_25
REMARK                            x       y       z     vdW  Elec       q    Type
REMARK                         _______ _______ _______ _____ _____    ______ ____
ROOT
ATOM      1  C   LIG A   1      -4.494   2.927 126.064  0.00  0.00    +0.005 C 
ENDROOT
BRANCH   1   2
ATOM      2  C   LIG A   1      -5.302   1.796 126.844  0.00  0.00    +0.000 C 
BRANCH   2   3
ATOM      3  C   LIG A   1      -6.107   0.511 126.180  0.00  0.00    +0.000 C 
BRANCH   3   4
ATOM      4  C   LIG A   1      -6.806  -0.657 127.088  0.00  0.00    -0.000 C 
BRANCH   4   5
ATOM      5  C   LIG A   1      -8.165  -1.445 126.657  0.00  0.00    -0.000 C 
BRANCH   5   6
ATOM      6  C   LIG A   1      -8.132  -2.888 125.956  0.00  0.00    -0.000 C 
BRANCH   6   7
ATOM      7  C   LIG A   1      -9.377  -3.114 125.027  0.00  0.00    -0.000 C 
BRANCH   7   8
ATOM      8  C   LIG A   1      -9.160  -2.803 123.523  0.00  0.00    -0.000 C 
BRANCH   8   9
ATOM      9  C   LIG A   1      -8.994  -1.296 123.235  0.00  0.00    -0.000 C 
BRANCH   9  10
ATOM     10  C   LIG A   1      -7.548  -0.759 123.026  0.00  0.00    -0.000 C 
BRANCH  10  11
ATOM     11  C   LIG A   1      -6.506  -1.759 122.471  0.00  0.00    -0.000 C 
BRANCH  11  12
ATOM     12  C   LIG A   1      -5.696  -2.631 123.544  0.00  0.00    -0.000 C 
BRANCH  12  13
ATOM     13  C   LIG A   1      -4.348  -3.430 123.348  0.00  0.00    -0.003 C 
ATOM     14  C   LIG A   1      -4.171  -4.970 123.674  0.00  0.00    +0.004 C 
ENDBRANCH  12  13
ENDBRANCH  11  12
ENDBRANCH  10  11
ENDBRANCH   9  10
ENDBRANCH   8   9
ENDBRANCH   7   8
ENDBRANCH   6   7
ENDBRANCH   5   6
ENDBRANCH   4   5
ENDBRANCH   3   4
ENDBRANCH   2   3
ENDBRANCH   1   2
BRANCH   1  15
ATOM     15  C   LIG A   1      -5.298   4.191 125.311  0.00  0.00    +0.036 C 
BRANCH  15  17
ATOM     16  C   LIG A   1      -7.349   3.575 123.660  0.00  0.00    +0.103 A 
ATOM     17  C   LIG A   1      -6.014   4.013 123.942  0.00  0.00    -0.030 A 
ATOM     18  C   LIG A   1      -5.222   4.309 122.812  0.00  0.00    +0.005 A 
ATOM     19  C   LIG A   1      -5.590   4.005 121.505  0.00  0.00    +0.004 A 
ATOM     20  C   LIG A   1      -6.842   3.492 121.240  0.00  0.00    +0.046 A 
ATOM     21  C   LIG A   1      -7.730   3.307 122.296  0.00  0.00    +0.131 A 
BRANCH  21  22
ATOM     22  O   LIG A   1      -8.970   2.808 121.960  0.00  0.00    -0.506 OA
ATOM     23  H   LIG A   1      -9.665   3.419 122.254  0.00  0.00    +0.292 HD
ENDBRANCH  21  22
BRANCH  16  24
ATOM     24  C   LIG A   1      -8.419   3.339 124.696  0.00  0.00    +0.341 C 
ATOM     25  O   LIG A   1      -8.863   4.118 125.431  0.00  0.00    -0.245 OA
BRANCH  24  26
ATOM     26  O   LIG A   1      -8.868   2.016 124.711  0.00  0.00    -0.477 OA
ATOM     27  H   LIG A   1      -9.761   2.056 124.336  0.00  0.00    +0.295 HD
ENDBRANCH  24  26
ENDBRANCH  16  24
ENDBRANCH  15  17
ENDBRANCH   1  15
TORSDOF 17
ENDMDL
MODEL 2
REMARK VINA RESULT:      -6.3      2.490      4.569
REMARK  Name = NuBBE_1679
REMARK  18 active torsions:
REMARK  status: ('A' for Active; 'I' for Inactive)
REMARK    1  A    between atoms: C_1  and  O_3
REMARK    2  A    between atoms: C_1  and  C_4
REMARK    3  A    between atoms: C_5  and  C_6
REMARK    4  A    between atoms: C_6  and  C_7
REMARK    5  A    between atoms: C_7  and  C_8
REMARK    6  A    between atoms: C_8  and  C_9
REMARK    7  A    between atoms: C_9  and  C_10
REMARK    8  A    between atoms: C_10  and  C_11
REMARK    9  A    between atoms: C_11  and  C_12
REMARK   10  A    between atoms: C_12  and  C_13
REMARK   11  A    between atoms: C_13  and  C_14
REMARK   12  A    between atoms: C_14  and  C_15
REMARK   13  A    between atoms: C_15  and  C_16
REMARK   14  A    between atoms: C_16  and  C_17
REMARK   15  A    between atoms: C_17  and  C_18
REMARK   16  A    between atoms: C_18  and  C_19
REMARK   17  A    between atoms: C_19  and  C_20
REMARK   18  A    between atoms: C_24  and  O_25
REMARK                            x       y       z     vdW  Elec       q    Type
REMARK                         _______ _______ _______ _____ _____    ______ ____
ROOT
ATOM      1  C   LIG A   1      -8.859   0.178 124.842  0.00  0.00    +0.005 C 
ENDROOT
BRANCH   1   2
ATOM      2  C   LIG A   1      -8.549  -0.220 123.330  0.00  0.00    +0.000 C 
BRANCH   2   3
ATOM      3  C   LIG A   1      -8.278  -1.742 122.738  0.00  0.00    +0.000 C 
BRANCH   3   4
ATOM      4  C   LIG A   1      -9.095  -3.054 123.273  0.00  0.00    -0.000 C 
BRANCH   4   5
ATOM      5  C   LIG A   1      -8.834  -3.754 124.721  0.00  0.00    -0.000 C 
BRANCH   5   6
ATOM      6  C   LIG A   1      -9.430  -3.151 126.083  0.00  0.00    -0.000 C 
BRANCH   6   7
ATOM      7  C   LIG A   1      -8.459  -3.378 127.296  0.00  0.00    -0.000 C 
BRANCH   7   8
ATOM      8  C   LIG A   1      -7.814  -2.099 127.890  0.00  0.00    -0.000 C 
BRANCH   8   9
ATOM      9  C   LIG A   1      -6.299  -2.003 127.615  0.00  0.00    -0.000 C 
BRANCH   9  10
ATOM     10  C   LIG A   1      -5.807  -0.846 126.696  0.00  0.00    -0.000 C 
BRANCH  10  11
ATOM     11  C   LIG A   1      -5.516  -1.205 125.219  0.00  0.00    -0.000 C 
BRANCH  11  12
ATOM     12  C   LIG A   1      -5.352  -2.761 124.871  0.00  0.00    -0.000 C 
BRANCH  12  13
ATOM     13  C   LIG A   1      -4.839  -3.422 123.532  0.00  0.00    -0.003 C 
ATOM     14  C   LIG A   1      -4.292  -4.905 123.425  0.00  0.00    +0.004 C 
ENDBRANCH  12  13
ENDBRANCH  11  12
ENDBRANCH  10  11
ENDBRANCH   9  10
ENDBRANCH   8   9
ENDBRANCH   7   8
ENDBRANCH   6   7
ENDBRANCH   5   6
ENDBRANCH   4   5
ENDBRANCH   3   4
ENDBRANCH   2   3
ENDBRANCH   1   2
BRANCH   1  15
ATOM     15  C   LIG A   1      -8.969   1.788 125.299  0.00  0.00    +0.036 C 
BRANCH  15  17
ATOM     16  C   LIG A   1      -7.668   3.540 126.894  0.00  0.00    +0.103 A 
ATOM     17  C   LIG A   1      -8.353   2.311 126.628  0.00  0.00    -0.030 A 
ATOM     18  C   LIG A   1      -8.471   1.432 127.726  0.00  0.00    +0.005 A 
ATOM     19  C   LIG A   1      -7.800   1.605 128.933  0.00  0.00    +0.004 A 
ATOM     20  C   LIG A   1      -7.060   2.745 129.157  0.00  0.00    +0.046 A 
ATOM     21  C   LIG A   1      -7.016   3.723 128.167  0.00  0.00    +0.131 A 
BRANCH  21  22
ATOM     22  O   LIG A   1      -6.273   4.846 128.461  0.00  0.00    -0.506 OA
ATOM     23  H   LIG A   1      -6.478   5.155 129.358  0.00  0.00    +0.292 HD
ENDBRANCH  21  22
BRANCH  16  24
ATOM     24  C   LIG A   1      -7.543   4.689 125.925  0.00  0.00    +0.341 C 
ATOM     25  O   LIG A   1      -6.583   5.285 125.669  0.00  0.00    -0.245 OA
BRANCH  24  26
ATOM     26  O   LIG A   1      -8.759   5.010 125.315  0.00  0.00    -0.477 OA
ATOM     27  H   LIG A   1      -8.555   5.768 124.747  0.00  0.00    +0.295 HD
ENDBRANCH  24  26
ENDBRANCH  16  24
ENDBRANCH  15  17
ENDBRANCH   1  15
TORSDOF 17
ENDMDL
MODEL 3
REMARK VINA RESULT:      -6.1      2.189      3.965
REMARK  Name = NuBBE_1679
REMARK  18 active torsions:
REMARK  status: ('A' for Active; 'I' for Inactive)
REMARK    1  A    between atoms: C_1  and  O_3
REMARK    2  A    between atoms: C_1  and  C_4
REMARK    3  A    between atoms: C_5  and  C_6
REMARK    4  A    between atoms: C_6  and  C_7
REMARK    5  A    between atoms: C_7  and  C_8
REMARK    6  A    between atoms: C_8  and  C_9
REMARK    7  A    between atoms: C_9  and  C_10
REMARK    8  A    between atoms: C_10  and  C_11
REMARK    9  A    between atoms: C_11  and  C_12
REMARK   10  A    between atoms: C_12  and  C_13
REMARK   11  A    between atoms: C_13  and  C_14
REMARK   12  A    between atoms: C_14  and  C_15
REMARK   13  A    between atoms: C_15  and  C_16
REMARK   14  A    between atoms: C_16  and  C_17
REMARK   15  A    between atoms: C_17  and  C_18
REMARK   16  A    between atoms: C_18  and  C_19
REMARK   17  A    between atoms: C_19  and  C_20
REMARK   18  A    between atoms: C_24  and  O_25
REMARK                            x       y       z     vdW  Elec       q    Type
REMARK                         _______ _______ _______ _____ _____    ______ ____
ROOT
ATOM      1  C   LIG A   1      -8.063   0.403 127.850  0.00  0.00    +0.005 C 
ENDROOT
BRANCH   1   2
ATOM      2  C   LIG A   1      -7.305  -0.920 128.317  0.00  0.00    +0.000 C 
BRANCH   2   3
ATOM      3  C   LIG A   1      -7.946  -2.440 128.450  0.00  0.00    +0.000 C 
BRANCH   3   4
ATOM      4  C   LIG A   1      -8.521  -3.270 127.162  0.00  0.00    -0.000 C 
BRANCH   4   5
ATOM      5  C   LIG A   1      -9.364  -2.585 125.948  0.00  0.00    -0.000 C 
BRANCH   5   6
ATOM      6  C   LIG A   1      -9.256  -3.101 124.432  0.00  0.00    -0.000 C 
BRANCH   6   7
ATOM      7  C   LIG A   1      -7.786  -3.510 124.059  0.00  0.00    -0.000 C 
BRANCH   7   8
ATOM      8  C   LIG A   1      -6.952  -2.427 123.326  0.00  0.00    -0.000 C 
BRANCH   8   9
ATOM      9  C   LIG A   1      -5.903  -1.754 124.235  0.00  0.00    -0.000 C 
BRANCH   9  10
ATOM     10  C   LIG A   1      -6.297  -0.411 124.917  0.00  0.00    -0.000 C 
BRANCH  10  11
ATOM     11  C   LIG A   1      -6.706   0.751 123.981  0.00  0.00    -0.000 C 
BRANCH  11  12
ATOM     12  C   LIG A   1      -8.182   1.347 124.168  0.00  0.00    -0.000 C 
BRANCH  12  13
ATOM     13  C   LIG A   1      -9.570   0.628 123.943  0.00  0.00    -0.003 C 
ATOM     14  C   LIG A   1     -10.060   0.057 122.549  0.00  0.00    +0.004 C 
ENDBRANCH  12  13
ENDBRANCH  11  12
ENDBRANCH  10  11
ENDBRANCH   9  10
ENDBRANCH   8   9
ENDBRANCH   7   8
ENDBRANCH   6   7
ENDBRANCH   5   6
ENDBRANCH   4   5
ENDBRANCH   3   4
ENDBRANCH   2   3
ENDBRANCH   1   2
BRANCH   1  15
ATOM     15  C   LIG A   1      -7.472   1.918 128.256  0.00  0.00    +0.036 C 
BRANCH  15  17
ATOM     16  C   LIG A   1      -6.928   3.887 126.485  0.00  0.00    +0.103 A 
ATOM     17  C   LIG A   1      -6.587   2.746 127.280  0.00  0.00    -0.030 A 
ATOM     18  C   LIG A   1      -5.259   2.289 127.147  0.00  0.00    +0.005 A 
ATOM     19  C   LIG A   1      -4.377   2.741 126.170  0.00  0.00    +0.004 A 
ATOM     20  C   LIG A   1      -4.738   3.778 125.338  0.00  0.00    +0.046 A 
ATOM     21  C   LIG A   1      -5.986   4.373 125.508  0.00  0.00    +0.131 A 
BRANCH  21  22
ATOM     22  O   LIG A   1      -6.278   5.416 124.655  0.00  0.00    -0.506 OA
ATOM     23  H   LIG A   1      -6.609   6.176 125.160  0.00  0.00    +0.292 HD
ENDBRANCH  21  22
BRANCH  16  24
ATOM     24  C   LIG A   1      -8.233   4.638 126.563  0.00  0.00    +0.341 C 
ATOM     25  O   LIG A   1      -8.642   5.236 127.468  0.00  0.00    -0.245 OA
BRANCH  24  26
ATOM     26  O   LIG A   1      -8.973   4.552 125.381  0.00  0.00    -0.477 OA
ATOM     27  H   LIG A   1      -8.782   5.378 124.911  0.00  0.00    +0.295 HD
ENDBRANCH  24  26
ENDBRANCH  16  24
ENDBRANCH  15  17
ENDBRANCH   1  15
TORSDOF 17
ENDMDL
MODEL 4
REMARK VINA RESULT:      -6.1      1.996      3.172
REMARK  Name = NuBBE_1679
REMARK  18 active torsions:
REMARK  status: ('A' for Active; 'I' for Inactive)
REMARK    1  A    between atoms: C_1  and  O_3
REMARK    2  A    between atoms: C_1  and  C_4
REMARK    3  A    between atoms: C_5  and  C_6
REMARK    4  A    between atoms: C_6  and  C_7
REMARK    5  A    between atoms: C_7  and  C_8
REMARK    6  A    between atoms: C_8  and  C_9
REMARK    7  A    between atoms: C_9  and  C_10
REMARK    8  A    between atoms: C_10  and  C_11
REMARK    9  A    between atoms: C_11  and  C_12
REMARK   10  A    between atoms: C_12  and  C_13
REMARK   11  A    between atoms: C_13  and  C_14
REMARK   12  A    between atoms: C_14  and  C_15
REMARK   13  A    between atoms: C_15  and  C_16
REMARK   14  A    between atoms: C_16  and  C_17
REMARK   15  A    between atoms: C_17  and  C_18
REMARK   16  A    between atoms: C_18  and  C_19
REMARK   17  A    between atoms: C_19  and  C_20
REMARK   18  A    between atoms: C_24  and  O_25
REMARK                            x       y       z     vdW  Elec       q    Type
REMARK                         _______ _______ _______ _____ _____    ______ ____
ROOT
ATOM      1  C   LIG A   1      -6.025  -0.778 126.978  0.00  0.00    +0.005 C 
ENDROOT
BRANCH   1   2
ATOM      2  C   LIG A   1      -5.386  -2.186 127.365  0.00  0.00    +0.000 C 
BRANCH   2   3
ATOM      3  C   LIG A   1      -4.633  -2.579 128.786  0.00  0.00    +0.000 C 
BRANCH   3   4
ATOM      4  C   LIG A   1      -5.256  -3.660 129.844  0.00  0.00    -0.000 C 
BRANCH   4   5
ATOM      5  C   LIG A   1      -6.852  -3.842 130.117  0.00  0.00    -0.000 C 
BRANCH   5   6
ATOM      6  C   LIG A   1      -7.961  -3.059 129.262  0.00  0.00    -0.000 C 
BRANCH   6   7
ATOM      7  C   LIG A   1      -8.582  -3.967 128.141  0.00  0.00    -0.000 C 
BRANCH   7   8
ATOM      8  C   LIG A   1      -9.125  -3.221 126.895  0.00  0.00    -0.000 C 
BRANCH   8   9
ATOM      9  C   LIG A   1      -8.350  -3.557 125.604  0.00  0.00    -0.000 C 
BRANCH   9  10
ATOM     10  C   LIG A   1      -8.365  -2.501 124.460  0.00  0.00    -0.000 C 
BRANCH  10  11
ATOM     11  C   LIG A   1      -7.494  -2.806 123.218  0.00  0.00    -0.000 C 
BRANCH  11  12
ATOM     12  C   LIG A   1      -5.966  -2.323 123.269  0.00  0.00    -0.000 C 
BRANCH  12  13
ATOM     13  C   LIG A   1      -4.687  -3.145 123.694  0.00  0.00    -0.003 C 
ATOM     14  C   LIG A   1      -4.584  -4.724 123.633  0.00  0.00    +0.004 C 
ENDBRANCH  12  13
ENDBRANCH  11  12
ENDBRANCH  10  11
ENDBRANCH   9  10
ENDBRANCH   8   9
ENDBRANCH   7   8
ENDBRANCH   6   7
ENDBRANCH   5   6
ENDBRANCH   4   5
ENDBRANCH   3   4
ENDBRANCH   2   3
ENDBRANCH   1   2
BRANCH   1  15
ATOM     15  C   LIG A   1      -5.305   0.200 125.821  0.00  0.00    +0.036 C 
BRANCH  15  17
ATOM     16  C   LIG A   1      -6.969   2.111 124.878  0.00  0.00    +0.103 A 
ATOM     17  C   LIG A   1      -5.791   1.653 125.552  0.00  0.00    -0.030 A 
ATOM     18  C   LIG A   1      -4.932   2.666 126.028  0.00  0.00    +0.005 A 
ATOM     19  C   LIG A   1      -5.063   4.012 125.700  0.00  0.00    +0.004 A 
ATOM     20  C   LIG A   1      -6.148   4.444 124.968  0.00  0.00    +0.046 A 
ATOM     21  C   LIG A   1      -7.113   3.515 124.585  0.00  0.00    +0.131 A 
BRANCH  21  22
ATOM     22  O   LIG A   1      -8.180   4.015 123.870  0.00  0.00    -0.506 OA
ATOM     23  H   LIG A   1      -8.061   4.966 123.716  0.00  0.00    +0.292 HD
ENDBRANCH  21  22
BRANCH  16  24
ATOM     24  C   LIG A   1      -8.098   1.228 124.412  0.00  0.00    +0.341 C 
ATOM     25  O   LIG A   1      -8.304   0.871 123.328  0.00  0.00    -0.245 OA
BRANCH  24  26
ATOM     26  O   LIG A   1      -8.944   0.843 125.455  0.00  0.00    -0.477 OA
ATOM     27  H   LIG A   1      -8.368   0.377 126.080  0.00  0.00    +0.295 HD
ENDBRANCH  24  26
ENDBRANCH  16  24
ENDBRANCH  15  17
ENDBRANCH   1  15
TORSDOF 17
ENDMDL
MODEL 5
REMARK VINA RESULT:      -6.0      5.928      9.082
REMARK  Name = NuBBE_1679
REMARK  18 active torsions:
REMARK  status: ('A' for Active; 'I' for Inactive)
REMARK    1  A    between atoms: C_1  and  O_3
REMARK    2  A    between atoms: C_1  and  C_4
REMARK    3  A    between atoms: C_5  and  C_6
REMARK    4  A    between atoms: C_6  and  C_7
REMARK    5  A    between atoms: C_7  and  C_8
REMARK    6  A    between atoms: C_8  and  C_9
REMARK    7  A    between atoms: C_9  and  C_10
REMARK    8  A    between atoms: C_10  and  C_11
REMARK    9  A    between atoms: C_11  and  C_12
REMARK   10  A    between atoms: C_12  and  C_13
REMARK   11  A    between atoms: C_13  and  C_14
REMARK   12  A    between atoms: C_14  and  C_15
REMARK   13  A    between atoms: C_15  and  C_16
REMARK   14  A    between atoms: C_16  and  C_17
REMARK   15  A    between atoms: C_17  and  C_18
REMARK   16  A    between atoms: C_18  and  C_19
REMARK   17  A    between atoms: C_19  and  C_20
REMARK   18  A    between atoms: C_24  and  O_25
REMARK                            x       y       z     vdW  Elec       q    Type
REMARK                         _______ _______ _______ _____ _____    ______ ____
ROOT
ATOM      1  C   LIG A   1      -6.805  -3.372 130.156  0.00  0.00    +0.005 C 
ENDROOT
BRANCH   1   2
ATOM      2  C   LIG A   1      -8.294  -3.501 129.599  0.00  0.00    +0.000 C 
BRANCH   2   3
ATOM      3  C   LIG A   1      -8.748  -3.816 128.039  0.00  0.00    +0.000 C 
BRANCH   3   4
ATOM      4  C   LIG A   1      -8.567  -2.726 126.831  0.00  0.00    -0.000 C 
BRANCH   4   5
ATOM      5  C   LIG A   1      -9.403  -2.777 125.434  0.00  0.00    -0.000 C 
BRANCH   5   6
ATOM      6  C   LIG A   1      -8.836  -3.507 124.123  0.00  0.00    -0.000 C 
BRANCH   6   7
ATOM      7  C   LIG A   1      -8.697  -2.512 122.915  0.00  0.00    -0.000 C 
BRANCH   7   8
ATOM      8  C   LIG A   1      -8.727  -1.005 123.279  0.00  0.00    -0.000 C 
BRANCH   8   9
ATOM      9  C   LIG A   1      -7.321  -0.374 123.356  0.00  0.00    -0.000 C 
BRANCH   9  10
ATOM     10  C   LIG A   1      -6.673  -0.231 124.765  0.00  0.00    -0.000 C 
BRANCH  10  11
ATOM     11  C   LIG A   1      -5.587  -1.267 125.141  0.00  0.00    -0.000 C 
BRANCH  11  12
ATOM     12  C   LIG A   1      -5.181  -2.332 124.014  0.00  0.00    -0.000 C 
BRANCH  12  13
ATOM     13  C   LIG A   1      -5.287  -3.907 124.063  0.00  0.00    -0.003 C 
ATOM     14  C   LIG A   1      -4.215  -4.890 123.438  0.00  0.00    +0.004 C 
ENDBRANCH  12  13
ENDBRANCH  11  12
ENDBRANCH  10  11
ENDBRANCH   9  10
ENDBRANCH   8   9
ENDBRANCH   7   8
ENDBRANCH   6   7
ENDBRANCH   5   6
ENDBRANCH   4   5
ENDBRANCH   3   4
ENDBRANCH   2   3
ENDBRANCH   1   2
BRANCH   1  15
ATOM     15  C   LIG A   1      -6.522  -2.994 131.764  0.00  0.00    +0.036 C 
BRANCH  15  17
ATOM     16  C   LIG A   1      -4.096  -3.794 132.648  0.00  0.00    +0.103 A 
ATOM     17  C   LIG A   1      -5.528  -3.809 132.640  0.00  0.00    -0.030 A 
ATOM     18  C   LIG A   1      -6.131  -4.710 133.544  0.00  0.00    +0.005 A 
ATOM     19  C   LIG A   1      -5.431  -5.684 134.250  0.00  0.00    +0.004 A 
ATOM     20  C   LIG A   1      -4.056  -5.733 134.185  0.00  0.00    +0.046 A 
ATOM     21  C   LIG A   1      -3.385  -4.781 133.421  0.00  0.00    +0.131 A 
BRANCH  21  22
ATOM     22  O   LIG A   1      -2.009  -4.876 133.413  0.00  0.00    -0.506 OA
ATOM     23  H   LIG A   1      -1.677  -4.799 132.505  0.00  0.00    +0.292 HD
ENDBRANCH  21  22
BRANCH  16  24
ATOM     24  C   LIG A   1      -3.236  -2.823 131.880  0.00  0.00    +0.341 C 
ATOM     25  O   LIG A   1      -3.168  -2.710 130.728  0.00  0.00    -0.245 OA
BRANCH  24  26
ATOM     26  O   LIG A   1      -2.467  -2.010 132.717  0.00  0.00    -0.477 OA
ATOM     27  H   LIG A   1      -1.834  -2.614 133.133  0.00  0.00    +0.295 HD
ENDBRANCH  24  26
ENDBRANCH  16  24
ENDBRANCH  15  17
ENDBRANCH   1  15
TORSDOF 17
ENDMDL
MODEL 6
REMARK VINA RESULT:      -6.0      1.705      4.727
REMARK  Name = NuBBE_1679
REMARK  18 active torsions:
REMARK  status: ('A' for Active; 'I' for Inactive)
REMARK    1  A    between atoms: C_1  and  O_3
REMARK    2  A    between atoms: C_1  and  C_4
REMARK    3  A    between atoms: C_5  and  C_6
REMARK    4  A    between atoms: C_6  and  C_7
REMARK    5  A    between atoms: C_7  and  C_8
REMARK    6  A    between atoms: C_8  and  C_9
REMARK    7  A    between atoms: C_9  and  C_10
REMARK    8  A    between atoms: C_10  and  C_11
REMARK    9  A    between atoms: C_11  and  C_12
REMARK   10  A    between atoms: C_12  and  C_13
REMARK   11  A    between atoms: C_13  and  C_14
REMARK   12  A    between atoms: C_14  and  C_15
REMARK   13  A    between atoms: C_15  and  C_16
REMARK   14  A    between atoms: C_16  and  C_17
REMARK   15  A    between atoms: C_17  and  C_18
REMARK   16  A    between atoms: C_18  and  C_19
REMARK   17  A    between atoms: C_19  and  C_20
REMARK   18  A    between atoms: C_24  and  O_25
REMARK                            x       y       z     vdW  Elec       q    Type
REMARK                         _______ _______ _______ _____ _____    ______ ____
ROOT
ATOM      1  C   LIG A   1      -5.635  -0.754 125.680  0.00  0.00    +0.005 C 
ENDROOT
BRANCH   1   2
ATOM      2  C   LIG A   1      -5.363  -2.103 124.875  0.00  0.00    +0.000 C 
BRANCH   2   3
ATOM      3  C   LIG A   1      -5.645  -2.375 123.267  0.00  0.00    +0.000 C 
BRANCH   3   4
ATOM      4  C   LIG A   1      -6.966  -1.796 122.493  0.00  0.00    -0.000 C 
BRANCH   4   5
ATOM      5  C   LIG A   1      -8.491  -2.234 122.858  0.00  0.00    -0.000 C 
BRANCH   5   6
ATOM      6  C   LIG A   1      -9.033  -2.275 124.368  0.00  0.00    -0.000 C 
BRANCH   6   7
ATOM      7  C   LIG A   1      -8.748  -3.659 125.053  0.00  0.00    -0.000 C 
BRANCH   7   8
ATOM      8  C   LIG A   1      -8.676  -3.640 126.602  0.00  0.00    -0.000 C 
BRANCH   8   9
ATOM      9  C   LIG A   1      -8.464  -2.225 127.180  0.00  0.00    -0.000 C 
BRANCH   9  10
ATOM     10  C   LIG A   1      -7.667  -2.105 128.513  0.00  0.00    -0.000 C 
BRANCH  10  11
ATOM     11  C   LIG A   1      -7.518  -0.685 129.109  0.00  0.00    -0.000 C 
BRANCH  11  12
ATOM     12  C   LIG A   1      -8.049   0.535 128.216  0.00  0.00    -0.000 C 
BRANCH  12  13
ATOM     13  C   LIG A   1      -7.879   2.085 128.466  0.00  0.00    -0.003 C 
ATOM     14  C   LIG A   1      -8.785   2.932 129.451  0.00  0.00    +0.004 C 
ENDBRANCH  12  13
ENDBRANCH  11  12
ENDBRANCH  10  11
ENDBRANCH   9  10
ENDBRANCH   8   9
ENDBRANCH   7   8
ENDBRANCH   6   7
ENDBRANCH   5   6
ENDBRANCH   4   5
ENDBRANCH   3   4
ENDBRANCH   2   3
ENDBRANCH   1   2
BRANCH   1  15
ATOM     15  C   LIG A   1      -6.388   0.548 124.940  0.00  0.00    +0.036 C 
BRANCH  15  17
ATOM     16  C   LIG A   1      -6.779   3.222 125.024  0.00  0.00    +0.103 A 
ATOM     17  C   LIG A   1      -6.069   2.018 125.337  0.00  0.00    -0.030 A 
ATOM     18  C   LIG A   1      -4.895   2.187 126.103  0.00  0.00    +0.005 A 
ATOM     19  C   LIG A   1      -4.314   3.424 126.368  0.00  0.00    +0.004 A 
ATOM     20  C   LIG A   1      -4.949   4.585 125.983  0.00  0.00    +0.046 A 
ATOM     21  C   LIG A   1      -6.185   4.495 125.346  0.00  0.00    +0.131 A 
BRANCH  21  22
ATOM     22  O   LIG A   1      -6.773   5.694 125.002  0.00  0.00    -0.506 OA
ATOM     23  H   LIG A   1      -6.186   6.195 124.414  0.00  0.00    +0.292 HD
ENDBRANCH  21  22
BRANCH  16  24
ATOM     24  C   LIG A   1      -8.123   3.282 124.345  0.00  0.00    +0.341 C 
ATOM     25  O   LIG A   1      -8.375   2.952 123.263  0.00  0.00    -0.245 OA
BRANCH  24  26
ATOM     26  O   LIG A   1      -9.119   3.806 125.174  0.00  0.00    -0.477 OA
ATOM     27  H   LIG A   1      -8.783   3.677 126.074  0.00  0.00    +0.295 HD
ENDBRANCH  24  26
ENDBRANCH  16  24
ENDBRANCH  15  17
ENDBRANCH   1  15
TORSDOF 17
ENDMDL
MODEL 7
REMARK VINA RESULT:      -5.9      4.710      8.138
REMARK  Name = NuBBE_1679
REMARK  18 active torsions:
REMARK  status: ('A' for Active; 'I' for Inactive)
REMARK    1  A    between atoms: C_1  and  O_3
REMARK    2  A    between atoms: C_1  and  C_4
REMARK    3  A    between atoms: C_5  and  C_6
REMARK    4  A    between atoms: C_6  and  C_7
REMARK    5  A    between atoms: C_7  and  C_8
REMARK    6  A    between atoms: C_8  and  C_9
REMARK    7  A    between atoms: C_9  and  C_10
REMARK    8  A    between atoms: C_10  and  C_11
REMARK    9  A    between atoms: C_11  and  C_12
REMARK   10  A    between atoms: C_12  and  C_13
REMARK   11  A    between atoms: C_13  and  C_14
REMARK   12  A    between atoms: C_14  and  C_15
REMARK   13  A    between atoms: C_15  and  C_16
REMARK   14  A    between atoms: C_16  and  C_17
REMARK   15  A    between atoms: C_17  and  C_18
REMARK   16  A    between atoms: C_18  and  C_19
REMARK   17  A    between atoms: C_19  and  C_20
REMARK   18  A    between atoms: C_24  and  O_25
REMARK                            x       y       z     vdW  Elec       q    Type
REMARK                         _______ _______ _______ _____ _____    ______ ____
ROOT
ATOM      1  C   LIG A   1      -8.329  -2.898 128.203  0.00  0.00    +0.005 C 
ENDROOT
BRANCH   1   2
ATOM      2  C   LIG A   1      -8.752  -3.615 126.843  0.00  0.00    +0.000 C 
BRANCH   2   3
ATOM      3  C   LIG A   1      -9.441  -2.905 125.517  0.00  0.00    +0.000 C 
BRANCH   3   4
ATOM      4  C   LIG A   1      -9.063  -3.342 123.986  0.00  0.00    -0.000 C 
BRANCH   4   5
ATOM      5  C   LIG A   1      -8.385  -2.336 122.899  0.00  0.00    -0.000 C 
BRANCH   5   6
ATOM      6  C   LIG A   1      -6.836  -1.921 122.965  0.00  0.00    -0.000 C 
BRANCH   6   7
ATOM      7  C   LIG A   1      -5.993  -2.945 123.807  0.00  0.00    -0.000 C 
BRANCH   7   8
ATOM      8  C   LIG A   1      -5.644  -2.502 125.251  0.00  0.00    -0.000 C 
BRANCH   8   9
ATOM      9  C   LIG A   1      -5.593  -0.969 125.417  0.00  0.00    -0.000 C 
BRANCH   9  10
ATOM     10  C   LIG A   1      -6.721  -0.299 126.257  0.00  0.00    -0.000 C 
BRANCH  10  11
ATOM     11  C   LIG A   1      -7.502   0.853 125.580  0.00  0.00    -0.000 C 
BRANCH  11  12
ATOM     12  C   LIG A   1      -9.053   0.593 125.272  0.00  0.00    -0.000 C 
BRANCH  12  13
ATOM     13  C   LIG A   1      -9.985   1.323 124.226  0.00  0.00    -0.003 C 
ATOM     14  C   LIG A   1     -10.176   0.854 122.726  0.00  0.00    +0.004 C 
ENDBRANCH  12  13
ENDBRANCH  11  12
ENDBRANCH  10  11
ENDBRANCH   9  10
ENDBRANCH   8   9
ENDBRANCH   7   8
ENDBRANCH   6   7
ENDBRANCH   5   6
ENDBRANCH   4   5
ENDBRANCH   3   4
ENDBRANCH   2   3
ENDBRANCH   1   2
BRANCH   1  15
ATOM     15  C   LIG A   1      -7.543  -3.751 129.413  0.00  0.00    +0.036 C 
BRANCH  15  17
ATOM     16  C   LIG A   1      -5.593  -3.317 131.234  0.00  0.00    +0.103 A 
ATOM     17  C   LIG A   1      -6.119  -3.364 129.902  0.00  0.00    -0.030 A 
ATOM     18  C   LIG A   1      -5.221  -2.985 128.881  0.00  0.00    +0.005 A 
ATOM     19  C   LIG A   1      -3.983  -2.395 129.117  0.00  0.00    +0.004 A 
ATOM     20  C   LIG A   1      -3.514  -2.260 130.406  0.00  0.00    +0.046 A 
ATOM     21  C   LIG A   1      -4.289  -2.744 131.457  0.00  0.00    +0.131 A 
BRANCH  21  22
ATOM     22  O   LIG A   1      -3.754  -2.593 132.719  0.00  0.00    -0.506 OA
ATOM     23  H   LIG A   1      -4.041  -1.749 133.103  0.00  0.00    +0.292 HD
ENDBRANCH  21  22
BRANCH  16  24
ATOM     24  C   LIG A   1      -6.310  -3.808 132.465  0.00  0.00    +0.341 C 
ATOM     25  O   LIG A   1      -7.274  -3.366 132.935  0.00  0.00    -0.245 OA
BRANCH  24  26
ATOM     26  O   LIG A   1      -5.682  -4.913 133.047  0.00  0.00    -0.477 OA
ATOM     27  H   LIG A   1      -4.771  -4.622 133.206  0.00  0.00    +0.295 HD
ENDBRANCH  24  26
ENDBRANCH  16  24
ENDBRANCH  15  17
ENDBRANCH   1  15
TORSDOF 17
ENDMDL
MODEL 8
REMARK VINA RESULT:      -5.9      6.293      8.319
REMARK  Name = NuBBE_1679
REMARK  18 active torsions:
REMARK  status: ('A' for Active; 'I' for Inactive)
REMARK    1  A    between atoms: C_1  and  O_3
REMARK    2  A    between atoms: C_1  and  C_4
REMARK    3  A    between atoms: C_5  and  C_6
REMARK    4  A    between atoms: C_6  and  C_7
REMARK    5  A    between atoms: C_7  and  C_8
REMARK    6  A    between atoms: C_8  and  C_9
REMARK    7  A    between atoms: C_9  and  C_10
REMARK    8  A    between atoms: C_10  and  C_11
REMARK    9  A    between atoms: C_11  and  C_12
REMARK   10  A    between atoms: C_12  and  C_13
REMARK   11  A    between atoms: C_13  and  C_14
REMARK   12  A    between atoms: C_14  and  C_15
REMARK   13  A    between atoms: C_15  and  C_16
REMARK   14  A    between atoms: C_16  and  C_17
REMARK   15  A    between atoms: C_17  and  C_18
REMARK   16  A    between atoms: C_18  and  C_19
REMARK   17  A    between atoms: C_19  and  C_20
REMARK   18  A    between atoms: C_24  and  O_25
REMARK                            x       y       z     vdW  Elec       q    Type
REMARK                         _______ _______ _______ _____ _____    ______ ____
ROOT
ATOM      1  C   LIG A   1      -7.519   5.883 131.180  0.00  0.00    +0.005 C 
ENDROOT
BRANCH   1   2
ATOM      2  C   LIG A   1      -7.021   6.079 132.681  0.00  0.00    +0.000 C 
BRANCH   2   3
ATOM      3  C   LIG A   1      -6.666   4.889 133.775  0.00  0.00    +0.000 C 
BRANCH   3   4
ATOM      4  C   LIG A   1      -7.805   3.884 134.385  0.00  0.00    -0.000 C 
BRANCH   4   5
ATOM      5  C   LIG A   1      -9.267   3.655 133.704  0.00  0.00    -0.000 C 
BRANCH   5   6
ATOM      6  C   LIG A   1      -9.437   3.128 132.198  0.00  0.00    -0.000 C 
BRANCH   6   7
ATOM      7  C   LIG A   1      -9.963   1.650 132.153  0.00  0.00    -0.000 C 
BRANCH   7   8
ATOM      8  C   LIG A   1      -9.133   0.667 131.286  0.00  0.00    -0.000 C 
BRANCH   8   9
ATOM      9  C   LIG A   1      -8.079  -0.113 132.099  0.00  0.00    -0.000 C 
BRANCH   9  10
ATOM     10  C   LIG A   1      -7.580  -1.469 131.516  0.00  0.00    -0.000 C 
BRANCH  10  11
ATOM     11  C   LIG A   1      -7.754  -1.678 129.993  0.00  0.00    -0.000 C 
BRANCH  11  12
ATOM     12  C   LIG A   1      -7.878  -3.191 129.479  0.00  0.00    -0.000 C 
BRANCH  12  13
ATOM     13  C   LIG A   1      -8.841  -3.780 128.375  0.00  0.00    -0.003 C 
ATOM     14  C   LIG A   1      -8.742  -3.434 126.833  0.00  0.00    +0.004 C 
ENDBRANCH  12  13
ENDBRANCH  11  12
ENDBRANCH  10  11
ENDBRANCH   9  10
ENDBRANCH   8   9
ENDBRANCH   7   8
ENDBRANCH   6   7
ENDBRANCH   5   6
ENDBRANCH   4   5
ENDBRANCH   3   4
ENDBRANCH   2   3
ENDBRANCH   1   2
BRANCH   1  15
ATOM     15  C   LIG A   1      -8.463   7.048 130.430  0.00  0.00    +0.036 C 
BRANCH  15  17
ATOM     16  C   LIG A   1     -10.917   7.191 129.304  0.00  0.00    +0.103 A 
ATOM     17  C   LIG A   1     -10.015   6.951 130.391  0.00  0.00    -0.030 A 
ATOM     18  C   LIG A   1     -10.621   6.592 131.614  0.00  0.00    +0.005 A 
ATOM     19  C   LIG A   1     -11.990   6.667 131.853  0.00  0.00    +0.004 A 
ATOM     20  C   LIG A   1     -12.855   6.992 130.830  0.00  0.00    +0.046 A 
ATOM     21  C   LIG A   1     -12.336   7.220 129.558  0.00  0.00    +0.131 A 
BRANCH  21  22
ATOM     22  O   LIG A   1     -13.256   7.523 128.577  0.00  0.00    -0.506 OA
ATOM     23  H   LIG A   1     -12.809   7.617 127.721  0.00  0.00    +0.292 HD
ENDBRANCH  21  22
BRANCH  16  24
ATOM     24  C   LIG A   1     -10.504   7.445 127.877  0.00  0.00    +0.341 C 
ATOM     25  O   LIG A   1      -9.989   6.698 127.155  0.00  0.00    -0.245 OA
BRANCH  24  26
ATOM     26  O   LIG A   1     -10.804   8.743 127.455  0.00  0.00    -0.477 OA
ATOM     27  H   LIG A   1     -11.609   8.649 126.924  0.00  0.00    +0.295 HD
ENDBRANCH  24  26
ENDBRANCH  16  24
ENDBRANCH  15  17
ENDBRANCH   1  15
TORSDOF 17
ENDMDL
MODEL 9
REMARK VINA RESULT:      -5.9      5.687      8.970
REMARK  Name = NuBBE_1679
REMARK  18 active torsions:
REMARK  status: ('A' for Active; 'I' for Inactive)
REMARK    1  A    between atoms: C_1  and  O_3
REMARK    2  A    between atoms: C_1  and  C_4
REMARK    3  A    between atoms: C_5  and  C_6
REMARK    4  A    between atoms: C_6  and  C_7
REMARK    5  A    between atoms: C_7  and  C_8
REMARK    6  A    between atoms: C_8  and  C_9
REMARK    7  A    between atoms: C_9  and  C_10
REMARK    8  A    between atoms: C_10  and  C_11
REMARK    9  A    between atoms: C_11  and  C_12
REMARK   10  A    between atoms: C_12  and  C_13
REMARK   11  A    between atoms: C_13  and  C_14
REMARK   12  A    between atoms: C_14  and  C_15
REMARK   13  A    between atoms: C_15  and  C_16
REMARK   14  A    between atoms: C_16  and  C_17
REMARK   15  A    between atoms: C_17  and  C_18
REMARK   16  A    between atoms: C_18  and  C_19
REMARK   17  A    between atoms: C_19  and  C_20
REMARK   18  A    between atoms: C_24  and  O_25
REMARK                            x       y       z     vdW  Elec       q    Type
REMARK                         _______ _______ _______ _____ _____    ______ ____
ROOT
ATOM      1  C   LIG A   1      -7.100  -3.148 129.308  0.00  0.00    +0.005 C 
ENDROOT
BRANCH   1   2
ATOM      2  C   LIG A   1      -8.554  -3.296 128.672  0.00  0.00    +0.000 C 
BRANCH   2   3
ATOM      3  C   LIG A   1      -8.926  -3.857 127.160  0.00  0.00    +0.000 C 
BRANCH   3   4
ATOM      4  C   LIG A   1      -9.207  -2.859 125.894  0.00  0.00    -0.000 C 
BRANCH   4   5
ATOM      5  C   LIG A   1      -9.340  -3.368 124.353  0.00  0.00    -0.000 C 
BRANCH   5   6
ATOM      6  C   LIG A   1      -9.136  -2.382 123.104  0.00  0.00    -0.000 C 
BRANCH   6   7
ATOM      7  C   LIG A   1      -8.604  -0.975 123.553  0.00  0.00    -0.000 C 
BRANCH   7   8
ATOM      8  C   LIG A   1      -7.149  -0.640 123.132  0.00  0.00    -0.000 C 
BRANCH   8   9
ATOM      9  C   LIG A   1      -6.418  -1.834 122.483  0.00  0.00    -0.000 C 
BRANCH   9  10
ATOM     10  C   LIG A   1      -5.259  -2.492 123.289  0.00  0.00    -0.000 C 
BRANCH  10  11
ATOM     11  C   LIG A   1      -5.659  -3.324 124.530  0.00  0.00    -0.000 C 
BRANCH  11  12
ATOM     12  C   LIG A   1      -5.591  -2.584 125.951  0.00  0.00    -0.000 C 
BRANCH  12  13
ATOM     13  C   LIG A   1      -5.530  -1.036 126.253  0.00  0.00    -0.003 C 
ATOM     14  C   LIG A   1      -6.735  -0.198 126.849  0.00  0.00    +0.004 C 
ENDBRANCH  12  13
ENDBRANCH  11  12
ENDBRANCH  10  11
ENDBRANCH   9  10
ENDBRANCH   8   9
ENDBRANCH   7   8
ENDBRANCH   6   7
ENDBRANCH   5   6
ENDBRANCH   4   5
ENDBRANCH   3   4
ENDBRANCH   2   3
ENDBRANCH   1   2
BRANCH   1  15
ATOM     15  C   LIG A   1      -6.905  -2.602 130.882  0.00  0.00    +0.036 C 
BRANCH  15  17
ATOM     16  C   LIG A   1      -6.545  -3.417 133.434  0.00  0.00    +0.103 A 
ATOM     17  C   LIG A   1      -6.380  -3.528 132.016  0.00  0.00    -0.030 A 
ATOM     18  C   LIG A   1      -5.612  -4.629 131.579  0.00  0.00    +0.005 A 
ATOM     19  C   LIG A   1      -4.870  -5.443 132.429  0.00  0.00    +0.004 A 
ATOM     20  C   LIG A   1      -4.952  -5.276 133.794  0.00  0.00    +0.046 A 
ATOM     21  C   LIG A   1      -5.804  -4.298 134.302  0.00  0.00    +0.131 A 
BRANCH  21  22
ATOM     22  O   LIG A   1      -5.852  -4.195 135.676  0.00  0.00    -0.506 OA
ATOM     23  H   LIG A   1      -4.954  -4.214 136.042  0.00  0.00    +0.292 HD
ENDBRANCH  21  22
BRANCH  16  24
ATOM     24  C   LIG A   1      -7.434  -2.416 134.126  0.00  0.00    +0.341 C 
ATOM     25  O   LIG A   1      -7.125  -1.380 134.546  0.00  0.00    -0.245 OA
BRANCH  24  26
ATOM     26  O   LIG A   1      -8.755  -2.858 134.237  0.00  0.00    -0.477 OA
ATOM     27  H   LIG A   1      -9.093  -2.425 135.036  0.00  0.00    +0.295 HD
ENDBRANCH  24  26
ENDBRANCH  16  24
ENDBRANCH  15  17
ENDBRANCH   1  15
TORSDOF 17
ENDMDL
