MODEL 1
REMARK VINA RESULT:      -7.1      0.000      0.000
REMARK  Name = NuBBE_2042
REMARK  13 active torsions:
REMARK  status: ('A' for Active; 'I' for Inactive)
REMARK    1  A    between atoms: O_1  and  C_2
REMARK    2  A    between atoms: O_1  and  C_3
REMARK    3  A    between atoms: C_4  and  C_6
REMARK    4  A    between atoms: C_7  and  C_21
REMARK    5  A    between atoms: C_13  and  O_20
REMARK    6  A    between atoms: C_15  and  C_17
REMARK    7  A    between atoms: C_17  and  C_18
REMARK    8  A    between atoms: C_23  and  O_24
REMARK    9  A    between atoms: O_24  and  C_25
REMARK   10  A    between atoms: C_26  and  O_31
REMARK   11  A    between atoms: C_27  and  O_29
REMARK   12  A    between atoms: O_29  and  C_30
REMARK   13  A    between atoms: O_31  and  C_32
REMARK                            x       y       z     vdW  Elec       q    Type
REMARK                         _______ _______ _______ _____ _____    ______ ____
ROOT
ATOM      1  C   LIG A   1      -9.828   4.653 130.347  0.00  0.00    +0.148 C 
ATOM      2  C   LIG A   1      -9.031   4.973 131.645  0.00  0.00    +0.037 C 
ATOM      3  C   LIG A   1      -9.865   4.977 132.929  0.00  0.00    +0.012 C 
ATOM      4  C   LIG A   1      -8.381   6.376 131.410  0.00  0.00    +0.039 C 
ATOM      5  C   LIG A   1      -8.720   6.798 129.973  0.00  0.00    +0.099 C 
ATOM      6  C   LIG A   1      -8.970   5.450 129.365  0.00  0.00    +0.175 C 
ATOM      7  O   LIG A   1      -8.636   5.127 128.233  0.00  0.00    -0.294 OA
ATOM      8  C   LIG A   1     -10.076   7.528 129.836  0.00  0.00    +0.151 C 
ATOM      9  C   LIG A   1     -11.327   6.679 129.997  0.00  0.00    -0.038 C 
ATOM     10  C   LIG A   1     -11.177   5.340 130.233  0.00  0.00    +0.017 C 
ENDROOT
BRANCH   4  11
ATOM     11  C   LIG A   1      -6.871   6.462 131.635  0.00  0.00    -0.036 A 
ATOM     12  C   LIG A   1      -6.110   7.187 130.709  0.00  0.00    +0.053 A 
ATOM     13  C   LIG A   1      -4.730   7.377 130.883  0.00  0.00    +0.165 A 
ATOM     14  C   LIG A   1      -4.068   6.846 132.016  0.00  0.00    +0.203 A 
ATOM     15  C   LIG A   1      -4.803   6.051 132.908  0.00  0.00    +0.165 A 
ATOM     16  C   LIG A   1      -6.183   5.834 132.684  0.00  0.00    +0.053 A 
BRANCH  13  17
ATOM     17  O   LIG A   1      -3.949   8.088 129.998  0.00  0.00    -0.491 OA
ATOM     18  C   LIG A   1      -3.571   7.440 128.789  0.00  0.00    +0.277 C 
ENDBRANCH  13  17
BRANCH  15  19
ATOM     19  O   LIG A   1      -4.315   5.378 133.999  0.00  0.00    -0.491 OA
ATOM     20  C   LIG A   1      -3.846   4.051 133.767  0.00  0.00    +0.277 C 
ENDBRANCH  15  19
BRANCH  14  21
ATOM     21  O   LIG A   1      -2.800   7.328 132.206  0.00  0.00    -0.488 OA
ATOM     22  C   LIG A   1      -1.666   6.515 131.962  0.00  0.00    +0.277 C 
ENDBRANCH  14  21
ENDBRANCH   4  11
BRANCH   1  23
ATOM     23  O   LIG A   1      -9.908   3.291 129.983  0.00  0.00    -0.365 OA
ATOM     24  C   LIG A   1      -8.867   2.457 130.460  0.00  0.00    +0.195 C 
ENDBRANCH   1  23
BRANCH   8  25
ATOM     25  O   LIG A   1     -10.048   8.108 128.538  0.00  0.00    -0.387 OA
ATOM     26  H   LIG A   1      -9.138   8.397 128.357  0.00  0.00    +0.210 HD
ENDBRANCH   8  25
BRANCH   9  27
ATOM     27  C   LIG A   1     -12.729   7.269 129.994  0.00  0.00    +0.059 C 
BRANCH  27  28
ATOM     28  C   LIG A   1     -13.595   7.087 128.778  0.00  0.00    -0.030 C 
ATOM     29  C   LIG A   1     -13.272   7.268 127.490  0.00  0.00    +0.004 C 
ENDBRANCH  27  28
ENDBRANCH   9  27
TORSDOF 8
ENDMDL
MODEL 2
REMARK VINA RESULT:      -7.1      0.638      2.361
REMARK  Name = NuBBE_2042
REMARK  13 active torsions:
REMARK  status: ('A' for Active; 'I' for Inactive)
REMARK    1  A    between atoms: O_1  and  C_2
REMARK    2  A    between atoms: O_1  and  C_3
REMARK    3  A    between atoms: C_4  and  C_6
REMARK    4  A    between atoms: C_7  and  C_21
REMARK    5  A    between atoms: C_13  and  O_20
REMARK    6  A    between atoms: C_15  and  C_17
REMARK    7  A    between atoms: C_17  and  C_18
REMARK    8  A    between atoms: C_23  and  O_24
REMARK    9  A    between atoms: O_24  and  C_25
REMARK   10  A    between atoms: C_26  and  O_31
REMARK   11  A    between atoms: C_27  and  O_29
REMARK   12  A    between atoms: O_29  and  C_30
REMARK   13  A    between atoms: O_31  and  C_32
REMARK                            x       y       z     vdW  Elec       q    Type
REMARK                         _______ _______ _______ _____ _____    ______ ____
ROOT
ATOM      1  C   LIG A   1      -9.933   4.705 130.279  0.00  0.00    +0.148 C 
ATOM      2  C   LIG A   1      -9.160   5.027 131.591  0.00  0.00    +0.037 C 
ATOM      3  C   LIG A   1     -10.017   5.035 132.859  0.00  0.00    +0.012 C 
ATOM      4  C   LIG A   1      -8.504   6.429 131.365  0.00  0.00    +0.039 C 
ATOM      5  C   LIG A   1      -8.818   6.848 129.921  0.00  0.00    +0.099 C 
ATOM      6  C   LIG A   1      -9.057   5.499 129.311  0.00  0.00    +0.175 C 
ATOM      7  O   LIG A   1      -8.703   5.173 128.187  0.00  0.00    -0.294 OA
ATOM      8  C   LIG A   1     -10.170   7.578 129.758  0.00  0.00    +0.151 C 
ATOM      9  C   LIG A   1     -11.424   6.731 129.898  0.00  0.00    -0.038 C 
ATOM     10  C   LIG A   1     -11.279   5.392 130.140  0.00  0.00    +0.017 C 
ENDROOT
BRANCH   4  11
ATOM     11  C   LIG A   1      -6.999   6.515 131.617  0.00  0.00    -0.036 A 
ATOM     12  C   LIG A   1      -6.485   5.878 132.752  0.00  0.00    +0.053 A 
ATOM     13  C   LIG A   1      -5.106   5.845 133.015  0.00  0.00    +0.165 A 
ATOM     14  C   LIG A   1      -4.190   6.453 132.123  0.00  0.00    +0.203 A 
ATOM     15  C   LIG A   1      -4.698   7.164 131.024  0.00  0.00    +0.165 A 
ATOM     16  C   LIG A   1      -6.095   7.222 130.809  0.00  0.00    +0.053 A 
BRANCH  13  17
ATOM     17  O   LIG A   1      -4.563   5.224 134.118  0.00  0.00    -0.491 OA
ATOM     18  C   LIG A   1      -4.750   5.849 135.382  0.00  0.00    +0.277 C 
ENDBRANCH  13  17
BRANCH  15  19
ATOM     19  O   LIG A   1      -3.975   7.892 130.115  0.00  0.00    -0.491 OA
ATOM     20  C   LIG A   1      -3.596   7.216 128.919  0.00  0.00    +0.277 C 
ENDBRANCH  15  19
BRANCH  14  21
ATOM     21  O   LIG A   1      -2.881   6.119 132.344  0.00  0.00    -0.488 OA
ATOM     22  C   LIG A   1      -2.273   5.047 131.646  0.00  0.00    +0.277 C 
ENDBRANCH  14  21
ENDBRANCH   4  11
BRANCH   1  23
ATOM     23  O   LIG A   1     -10.008   3.342 129.918  0.00  0.00    -0.365 OA
ATOM     24  C   LIG A   1      -8.961   2.513 130.393  0.00  0.00    +0.195 C 
ENDBRANCH   1  23
BRANCH   8  25
ATOM     25  O   LIG A   1     -10.118   8.156 128.459  0.00  0.00    -0.387 OA
ATOM     26  H   LIG A   1     -10.446   9.069 128.523  0.00  0.00    +0.210 HD
ENDBRANCH   8  25
BRANCH   9  27
ATOM     27  C   LIG A   1     -12.825   7.322 129.868  0.00  0.00    +0.059 C 
BRANCH  27  28
ATOM     28  C   LIG A   1     -13.624   7.241 128.597  0.00  0.00    -0.030 C 
ATOM     29  C   LIG A   1     -13.181   7.084 127.341  0.00  0.00    +0.004 C 
ENDBRANCH  27  28
ENDBRANCH   9  27
TORSDOF 8
ENDMDL
MODEL 3
REMARK VINA RESULT:      -7.1      6.365      9.465
REMARK  Name = NuBBE_2042
REMARK  13 active torsions:
REMARK  status: ('A' for Active; 'I' for Inactive)
REMARK    1  A    between atoms: O_1  and  C_2
REMARK    2  A    between atoms: O_1  and  C_3
REMARK    3  A    between atoms: C_4  and  C_6
REMARK    4  A    between atoms: C_7  and  C_21
REMARK    5  A    between atoms: C_13  and  O_20
REMARK    6  A    between atoms: C_15  and  C_17
REMARK    7  A    between atoms: C_17  and  C_18
REMARK    8  A    between atoms: C_23  and  O_24
REMARK    9  A    between atoms: O_24  and  C_25
REMARK   10  A    between atoms: C_26  and  O_31
REMARK   11  A    between atoms: C_27  and  O_29
REMARK   12  A    between atoms: O_29  and  C_30
REMARK   13  A    between atoms: O_31  and  C_32
REMARK                            x       y       z     vdW  Elec       q    Type
REMARK                         _______ _______ _______ _____ _____    ______ ____
ROOT
ATOM      1  C   LIG A   1      -6.500   3.723 125.752  0.00  0.00    +0.148 C 
ATOM      2  C   LIG A   1      -5.854   2.384 126.216  0.00  0.00    +0.037 C 
ATOM      3  C   LIG A   1      -4.326   2.399 126.295  0.00  0.00    +0.012 C 
ATOM      4  C   LIG A   1      -6.339   1.302 125.197  0.00  0.00    +0.039 C 
ATOM      5  C   LIG A   1      -7.317   1.993 124.234  0.00  0.00    +0.099 C 
ATOM      6  C   LIG A   1      -7.751   3.142 125.093  0.00  0.00    +0.175 C 
ATOM      7  O   LIG A   1      -8.890   3.585 125.138  0.00  0.00    -0.294 OA
ATOM      8  C   LIG A   1      -6.634   2.667 123.022  0.00  0.00    +0.151 C 
ATOM      9  C   LIG A   1      -5.845   3.936 123.303  0.00  0.00    -0.038 C 
ATOM     10  C   LIG A   1      -5.803   4.403 124.588  0.00  0.00    +0.017 C 
ENDROOT
BRANCH   4  11
ATOM     11  C   LIG A   1      -6.994   0.058 125.798  0.00  0.00    -0.036 A 
ATOM     12  C   LIG A   1      -7.990  -0.585 125.054  0.00  0.00    +0.053 A 
ATOM     13  C   LIG A   1      -8.587  -1.774 125.500  0.00  0.00    +0.165 A 
ATOM     14  C   LIG A   1      -8.185  -2.366 126.721  0.00  0.00    +0.203 A 
ATOM     15  C   LIG A   1      -7.245  -1.690 127.515  0.00  0.00    +0.165 A 
ATOM     16  C   LIG A   1      -6.694  -0.467 127.064  0.00  0.00    +0.053 A 
BRANCH  13  17
ATOM     17  O   LIG A   1      -9.566  -2.438 124.794  0.00  0.00    -0.491 OA
ATOM     18  C   LIG A   1      -9.234  -2.905 123.491  0.00  0.00    +0.277 C 
ENDBRANCH  13  17
BRANCH  15  19
ATOM     19  O   LIG A   1      -6.811  -2.058 128.762  0.00  0.00    -0.491 OA
ATOM     20  C   LIG A   1      -5.567  -2.751 128.822  0.00  0.00    +0.277 C 
ENDBRANCH  15  19
BRANCH  14  21
ATOM     21  O   LIG A   1      -8.638  -3.646 126.905  0.00  0.00    -0.488 OA
ATOM     22  C   LIG A   1      -9.300  -4.021 128.100  0.00  0.00    +0.277 C 
ENDBRANCH  14  21
ENDBRANCH   4  11
BRANCH   1  23
ATOM     23  O   LIG A   1      -6.826   4.645 126.771  0.00  0.00    -0.365 OA
ATOM     24  C   LIG A   1      -7.070   4.094 128.053  0.00  0.00    +0.195 C 
ENDBRANCH   1  23
BRANCH   8  25
ATOM     25  O   LIG A   1      -7.693   2.946 122.115  0.00  0.00    -0.387 OA
ATOM     26  H   LIG A   1      -8.202   3.695 122.469  0.00  0.00    +0.210 HD
ENDBRANCH   8  25
BRANCH   9  27
ATOM     27  C   LIG A   1      -5.033   4.654 122.236  0.00  0.00    +0.059 C 
BRANCH  27  28
ATOM     28  C   LIG A   1      -5.166   4.219 120.802  0.00  0.00    -0.030 C 
ATOM     29  C   LIG A   1      -5.776   4.853 119.791  0.00  0.00    +0.004 C 
ENDBRANCH  27  28
ENDBRANCH   9  27
TORSDOF 8
ENDMDL
MODEL 4
REMARK VINA RESULT:      -6.9      5.691      9.189
REMARK  Name = NuBBE_2042
REMARK  13 active torsions:
REMARK  status: ('A' for Active; 'I' for Inactive)
REMARK    1  A    between atoms: O_1  and  C_2
REMARK    2  A    between atoms: O_1  and  C_3
REMARK    3  A    between atoms: C_4  and  C_6
REMARK    4  A    between atoms: C_7  and  C_21
REMARK    5  A    between atoms: C_13  and  O_20
REMARK    6  A    between atoms: C_15  and  C_17
REMARK    7  A    between atoms: C_17  and  C_18
REMARK    8  A    between atoms: C_23  and  O_24
REMARK    9  A    between atoms: O_24  and  C_25
REMARK   10  A    between atoms: C_26  and  O_31
REMARK   11  A    between atoms: C_27  and  O_29
REMARK   12  A    between atoms: O_29  and  C_30
REMARK   13  A    between atoms: O_31  and  C_32
REMARK                            x       y       z     vdW  Elec       q    Type
REMARK                         _______ _______ _______ _____ _____    ______ ____
ROOT
ATOM      1  C   LIG A   1      -7.641   0.515 124.957  0.00  0.00    +0.148 C 
ATOM      2  C   LIG A   1      -6.876   0.958 126.238  0.00  0.00    +0.037 C 
ATOM      3  C   LIG A   1      -5.383   1.229 126.036  0.00  0.00    +0.012 C 
ATOM      4  C   LIG A   1      -7.087  -0.190 127.279  0.00  0.00    +0.039 C 
ATOM      5  C   LIG A   1      -8.033  -1.216 126.636  0.00  0.00    +0.099 C 
ATOM      6  C   LIG A   1      -8.717  -0.336 125.632  0.00  0.00    +0.175 C 
ATOM      7  O   LIG A   1      -9.903  -0.404 125.344  0.00  0.00    -0.294 OA
ATOM      8  C   LIG A   1      -7.315  -2.280 125.775  0.00  0.00    +0.151 C 
ATOM      9  C   LIG A   1      -6.745  -1.811 124.446  0.00  0.00    -0.038 C 
ATOM     10  C   LIG A   1      -6.916  -0.500 124.093  0.00  0.00    +0.017 C 
ENDROOT
BRANCH   4  11
ATOM     11  C   LIG A   1      -7.629   0.232 128.645  0.00  0.00    -0.036 A 
ATOM     12  C   LIG A   1      -7.589  -0.703 129.685  0.00  0.00    +0.053 A 
ATOM     13  C   LIG A   1      -7.997  -0.371 130.986  0.00  0.00    +0.165 A 
ATOM     14  C   LIG A   1      -8.453   0.935 131.285  0.00  0.00    +0.203 A 
ATOM     15  C   LIG A   1      -8.574   1.858 130.235  0.00  0.00    +0.165 A 
ATOM     16  C   LIG A   1      -8.202   1.483 128.923  0.00  0.00    +0.053 A 
BRANCH  13  17
ATOM     17  O   LIG A   1      -7.968  -1.263 132.037  0.00  0.00    -0.491 OA
ATOM     18  C   LIG A   1      -7.377  -2.535 131.802  0.00  0.00    +0.277 C 
ENDBRANCH  13  17
BRANCH  15  19
ATOM     19  O   LIG A   1      -9.085   3.128 130.315  0.00  0.00    -0.491 OA
ATOM     20  C   LIG A   1     -10.484   3.233 130.569  0.00  0.00    +0.277 C 
ENDBRANCH  15  19
BRANCH  14  21
ATOM     21  O   LIG A   1      -8.558   1.204 132.624  0.00  0.00    -0.488 OA
ATOM     22  C   LIG A   1      -7.645   2.075 133.267  0.00  0.00    +0.277 C 
ENDBRANCH  14  21
ENDBRANCH   4  11
BRANCH   1  23
ATOM     23  O   LIG A   1      -8.206   1.548 124.178  0.00  0.00    -0.365 OA
ATOM     24  C   LIG A   1      -8.561   2.730 124.875  0.00  0.00    +0.195 C 
ENDBRANCH   1  23
BRANCH   8  25
ATOM     25  O   LIG A   1      -8.291  -3.290 125.554  0.00  0.00    -0.387 OA
ATOM     26  H   LIG A   1      -9.137  -2.852 125.358  0.00  0.00    +0.210 HD
ENDBRANCH   8  25
BRANCH   9  27
ATOM     27  C   LIG A   1      -5.922  -2.712 123.538  0.00  0.00    +0.059 C 
BRANCH  27  28
ATOM     28  C   LIG A   1      -4.932  -3.662 124.156  0.00  0.00    -0.030 C 
ATOM     29  C   LIG A   1      -4.349  -4.735 123.604  0.00  0.00    +0.004 C 
ENDBRANCH  27  28
ENDBRANCH   9  27
TORSDOF 8
ENDMDL
MODEL 5
REMARK VINA RESULT:      -6.8      5.445      8.708
REMARK  Name = NuBBE_2042
REMARK  13 active torsions:
REMARK  status: ('A' for Active; 'I' for Inactive)
REMARK    1  A    between atoms: O_1  and  C_2
REMARK    2  A    between atoms: O_1  and  C_3
REMARK    3  A    between atoms: C_4  and  C_6
REMARK    4  A    between atoms: C_7  and  C_21
REMARK    5  A    between atoms: C_13  and  O_20
REMARK    6  A    between atoms: C_15  and  C_17
REMARK    7  A    between atoms: C_17  and  C_18
REMARK    8  A    between atoms: C_23  and  O_24
REMARK    9  A    between atoms: O_24  and  C_25
REMARK   10  A    between atoms: C_26  and  O_31
REMARK   11  A    between atoms: C_27  and  O_29
REMARK   12  A    between atoms: O_29  and  C_30
REMARK   13  A    between atoms: O_31  and  C_32
REMARK                            x       y       z     vdW  Elec       q    Type
REMARK                         _______ _______ _______ _____ _____    ______ ____
ROOT
ATOM      1  C   LIG A   1      -7.701   0.822 124.763  0.00  0.00    +0.148 C 
ATOM      2  C   LIG A   1      -6.936   1.216 126.061  0.00  0.00    +0.037 C 
ATOM      3  C   LIG A   1      -5.415   1.305 125.911  0.00  0.00    +0.012 C 
ATOM      4  C   LIG A   1      -7.319   0.136 127.125  0.00  0.00    +0.039 C 
ATOM      5  C   LIG A   1      -8.355  -0.793 126.475  0.00  0.00    +0.099 C 
ATOM      6  C   LIG A   1      -8.893   0.125 125.418  0.00  0.00    +0.175 C 
ATOM      7  O   LIG A   1     -10.068   0.187 125.085  0.00  0.00    -0.294 OA
ATOM      8  C   LIG A   1      -7.735  -1.962 125.676  0.00  0.00    +0.151 C 
ATOM      9  C   LIG A   1      -7.066  -1.608 124.357  0.00  0.00    -0.038 C 
ATOM     10  C   LIG A   1      -7.068  -0.300 123.959  0.00  0.00    +0.017 C 
ENDROOT
BRANCH   4  11
ATOM     11  C   LIG A   1      -7.858   0.665 128.455  0.00  0.00    -0.036 A 
ATOM     12  C   LIG A   1      -8.417   1.949 128.473  0.00  0.00    +0.053 A 
ATOM     13  C   LIG A   1      -9.001   2.478 129.634  0.00  0.00    +0.165 A 
ATOM     14  C   LIG A   1      -9.050   1.715 130.826  0.00  0.00    +0.203 A 
ATOM     15  C   LIG A   1      -8.422   0.460 130.843  0.00  0.00    +0.165 A 
ATOM     16  C   LIG A   1      -7.798  -0.030 129.672  0.00  0.00    +0.053 A 
BRANCH  13  17
ATOM     17  O   LIG A   1      -9.566   3.733 129.690  0.00  0.00    -0.491 OA
ATOM     18  C   LIG A   1      -8.684   4.850 129.712  0.00  0.00    +0.277 C 
ENDBRANCH  13  17
BRANCH  15  19
ATOM     19  O   LIG A   1      -8.284  -0.372 131.925  0.00  0.00    -0.491 OA
ATOM     20  C   LIG A   1      -6.970  -0.496 132.464  0.00  0.00    +0.277 C 
ENDBRANCH  15  19
BRANCH  14  21
ATOM     21  O   LIG A   1      -9.876   2.228 131.791  0.00  0.00    -0.488 OA
ATOM     22  C   LIG A   1      -9.352   2.746 133.001  0.00  0.00    +0.277 C 
ENDBRANCH  14  21
ENDBRANCH   4  11
BRANCH   1  23
ATOM     23  O   LIG A   1      -8.111   1.887 123.932  0.00  0.00    -0.365 OA
ATOM     24  C   LIG A   1      -8.328   3.131 124.576  0.00  0.00    +0.195 C 
ENDBRANCH   1  23
BRANCH   8  25
ATOM     25  O   LIG A   1      -8.815  -2.859 125.445  0.00  0.00    -0.387 OA
ATOM     26  H   LIG A   1      -9.566  -2.571 125.992  0.00  0.00    +0.210 HD
ENDBRANCH   8  25
BRANCH   9  27
ATOM     27  C   LIG A   1      -6.322  -2.630 123.511  0.00  0.00    +0.059 C 
BRANCH  27  28
ATOM     28  C   LIG A   1      -5.026  -3.196 124.023  0.00  0.00    -0.030 C 
ATOM     29  C   LIG A   1      -4.435  -4.354 123.696  0.00  0.00    +0.004 C 
ENDBRANCH  27  28
ENDBRANCH   9  27
TORSDOF 8
ENDMDL
MODEL 6
REMARK VINA RESULT:      -6.5      7.306     10.647
REMARK  Name = NuBBE_2042
REMARK  13 active torsions:
REMARK  status: ('A' for Active; 'I' for Inactive)
REMARK    1  A    between atoms: O_1  and  C_2
REMARK    2  A    between atoms: O_1  and  C_3
REMARK    3  A    between atoms: C_4  and  C_6
REMARK    4  A    between atoms: C_7  and  C_21
REMARK    5  A    between atoms: C_13  and  O_20
REMARK    6  A    between atoms: C_15  and  C_17
REMARK    7  A    between atoms: C_17  and  C_18
REMARK    8  A    between atoms: C_23  and  O_24
REMARK    9  A    between atoms: O_24  and  C_25
REMARK   10  A    between atoms: C_26  and  O_31
REMARK   11  A    between atoms: C_27  and  O_29
REMARK   12  A    between atoms: O_29  and  C_30
REMARK   13  A    between atoms: O_31  and  C_32
REMARK                            x       y       z     vdW  Elec       q    Type
REMARK                         _______ _______ _______ _____ _____    ______ ____
ROOT
ATOM      1  C   LIG A   1      -7.344  -1.748 130.096  0.00  0.00    +0.148 C 
ATOM      2  C   LIG A   1      -8.028  -2.234 128.785  0.00  0.00    +0.037 C 
ATOM      3  C   LIG A   1      -8.658  -3.627 128.864  0.00  0.00    +0.012 C 
ATOM      4  C   LIG A   1      -6.916  -2.198 127.686  0.00  0.00    +0.039 C 
ATOM      5  C   LIG A   1      -5.655  -1.611 128.338  0.00  0.00    +0.099 C 
ATOM      6  C   LIG A   1      -6.283  -0.847 129.465  0.00  0.00    +0.175 C 
ATOM      7  O   LIG A   1      -5.904   0.247 129.859  0.00  0.00    -0.294 OA
ATOM      8  C   LIG A   1      -4.766  -2.660 129.044  0.00  0.00    +0.151 C 
ATOM      9  C   LIG A   1      -5.298  -3.240 130.344  0.00  0.00    -0.038 C 
ATOM     10  C   LIG A   1      -6.504  -2.792 130.809  0.00  0.00    +0.017 C 
ENDROOT
BRANCH   4  11
ATOM     11  C   LIG A   1      -7.253  -1.420 126.414  0.00  0.00    -0.036 A 
ATOM     12  C   LIG A   1      -8.187  -1.977 125.532  0.00  0.00    +0.053 A 
ATOM     13  C   LIG A   1      -8.608  -1.294 124.381  0.00  0.00    +0.165 A 
ATOM     14  C   LIG A   1      -8.102  -0.005 124.085  0.00  0.00    +0.203 A 
ATOM     15  C   LIG A   1      -7.106   0.530 124.917  0.00  0.00    +0.165 A 
ATOM     16  C   LIG A   1      -6.665  -0.201 126.045  0.00  0.00    +0.053 A 
BRANCH  13  17
ATOM     17  O   LIG A   1      -9.528  -1.807 123.492  0.00  0.00    -0.491 OA
ATOM     18  C   LIG A   1      -9.581  -3.221 123.345  0.00  0.00    +0.277 C 
ENDBRANCH  13  17
BRANCH  15  19
ATOM     19  O   LIG A   1      -6.434   1.711 124.734  0.00  0.00    -0.491 OA
ATOM     20  C   LIG A   1      -5.550   2.105 125.781  0.00  0.00    +0.277 C 
ENDBRANCH  15  19
BRANCH  14  21
ATOM     21  O   LIG A   1      -8.786   0.657 123.100  0.00  0.00    -0.488 OA
ATOM     22  C   LIG A   1      -9.669   1.720 123.413  0.00  0.00    +0.277 C 
ENDBRANCH  14  21
ENDBRANCH   4  11
BRANCH   1  23
ATOM     23  O   LIG A   1      -8.163  -1.037 131.000  0.00  0.00    -0.365 OA
ATOM     24  C   LIG A   1      -7.886  -1.232 132.376  0.00  0.00    +0.195 C 
ENDBRANCH   1  23
BRANCH   8  25
ATOM     25  O   LIG A   1      -3.532  -1.992 129.281  0.00  0.00    -0.387 OA
ATOM     26  H   LIG A   1      -2.814  -2.574 128.979  0.00  0.00    +0.210 HD
ENDBRANCH   8  25
BRANCH   9  27
ATOM     27  C   LIG A   1      -4.591  -4.355 131.099  0.00  0.00    +0.059 C 
BRANCH  27  28
ATOM     28  C   LIG A   1      -5.379  -5.196 132.066  0.00  0.00    -0.030 C 
ATOM     29  C   LIG A   1      -5.285  -5.241 133.402  0.00  0.00    +0.004 C 
ENDBRANCH  27  28
ENDBRANCH   9  27
TORSDOF 8
ENDMDL
MODEL 7
REMARK VINA RESULT:      -6.5      4.840      7.354
REMARK  Name = NuBBE_2042
REMARK  13 active torsions:
REMARK  status: ('A' for Active; 'I' for Inactive)
REMARK    1  A    between atoms: O_1  and  C_2
REMARK    2  A    between atoms: O_1  and  C_3
REMARK    3  A    between atoms: C_4  and  C_6
REMARK    4  A    between atoms: C_7  and  C_21
REMARK    5  A    between atoms: C_13  and  O_20
REMARK    6  A    between atoms: C_15  and  C_17
REMARK    7  A    between atoms: C_17  and  C_18
REMARK    8  A    between atoms: C_23  and  O_24
REMARK    9  A    between atoms: O_24  and  C_25
REMARK   10  A    between atoms: C_26  and  O_31
REMARK   11  A    between atoms: C_27  and  O_29
REMARK   12  A    between atoms: O_29  and  C_30
REMARK   13  A    between atoms: O_31  and  C_32
REMARK                            x       y       z     vdW  Elec       q    Type
REMARK                         _______ _______ _______ _____ _____    ______ ____
ROOT
ATOM      1  C   LIG A   1      -6.811   2.212 124.689  0.00  0.00    +0.148 C 
ATOM      2  C   LIG A   1      -6.232   2.123 126.131  0.00  0.00    +0.037 C 
ATOM      3  C   LIG A   1      -5.027   1.192 126.286  0.00  0.00    +0.012 C 
ATOM      4  C   LIG A   1      -7.414   1.642 127.035  0.00  0.00    +0.039 C 
ATOM      5  C   LIG A   1      -8.661   1.556 126.142  0.00  0.00    +0.099 C 
ATOM      6  C   LIG A   1      -8.264   2.511 125.057  0.00  0.00    +0.175 C 
ATOM      7  O   LIG A   1      -9.027   3.291 124.505  0.00  0.00    -0.294 OA
ATOM      8  C   LIG A   1      -8.818   0.202 125.412  0.00  0.00    +0.151 C 
ATOM      9  C   LIG A   1      -7.850  -0.073 124.272  0.00  0.00    -0.038 C 
ATOM     10  C   LIG A   1      -6.926   0.886 123.959  0.00  0.00    +0.017 C 
ENDROOT
BRANCH   4  11
ATOM     11  C   LIG A   1      -7.714   2.503 128.263  0.00  0.00    -0.036 A 
ATOM     12  C   LIG A   1      -6.879   3.598 128.518  0.00  0.00    +0.053 A 
ATOM     13  C   LIG A   1      -7.130   4.480 129.580  0.00  0.00    +0.165 A 
ATOM     14  C   LIG A   1      -8.251   4.290 130.423  0.00  0.00    +0.203 A 
ATOM     15  C   LIG A   1      -9.049   3.152 130.229  0.00  0.00    +0.165 A 
ATOM     16  C   LIG A   1      -8.746   2.251 129.180  0.00  0.00    +0.053 A 
BRANCH  13  17
ATOM     17  O   LIG A   1      -6.335   5.571 129.858  0.00  0.00    -0.491 OA
ATOM     18  C   LIG A   1      -4.926   5.393 129.782  0.00  0.00    +0.277 C 
ENDBRANCH  13  17
BRANCH  15  19
ATOM     19  O   LIG A   1     -10.109   2.753 131.001  0.00  0.00    -0.491 OA
ATOM     20  C   LIG A   1      -9.810   1.872 132.082  0.00  0.00    +0.277 C 
ENDBRANCH  15  19
BRANCH  14  21
ATOM     21  O   LIG A   1      -8.534   5.356 131.235  0.00  0.00    -0.488 OA
ATOM     22  C   LIG A   1      -9.584   6.255 130.920  0.00  0.00    +0.277 C 
ENDBRANCH  14  21
ENDBRANCH   4  11
BRANCH   1  23
ATOM     23  O   LIG A   1      -6.265   3.214 123.858  0.00  0.00    -0.365 OA
ATOM     24  C   LIG A   1      -5.735   4.350 124.519  0.00  0.00    +0.195 C 
ENDBRANCH   1  23
BRANCH   8  25
ATOM     25  O   LIG A   1     -10.153   0.204 124.923  0.00  0.00    -0.387 OA
ATOM     26  H   LIG A   1     -10.745   0.407 125.667  0.00  0.00    +0.210 HD
ENDBRANCH   8  25
BRANCH   9  27
ATOM     27  C   LIG A   1      -7.809  -1.399 123.528  0.00  0.00    +0.059 C 
BRANCH  27  28
ATOM     28  C   LIG A   1      -8.375  -2.625 124.191  0.00  0.00    -0.030 C 
ATOM     29  C   LIG A   1      -9.435  -3.359 123.822  0.00  0.00    +0.004 C 
ENDBRANCH  27  28
ENDBRANCH   9  27
TORSDOF 8
ENDMDL
MODEL 8
REMARK VINA RESULT:      -6.4      3.514      7.385
REMARK  Name = NuBBE_2042
REMARK  13 active torsions:
REMARK  status: ('A' for Active; 'I' for Inactive)
REMARK    1  A    between atoms: O_1  and  C_2
REMARK    2  A    between atoms: O_1  and  C_3
REMARK    3  A    between atoms: C_4  and  C_6
REMARK    4  A    between atoms: C_7  and  C_21
REMARK    5  A    between atoms: C_13  and  O_20
REMARK    6  A    between atoms: C_15  and  C_17
REMARK    7  A    between atoms: C_17  and  C_18
REMARK    8  A    between atoms: C_23  and  O_24
REMARK    9  A    between atoms: O_24  and  C_25
REMARK   10  A    between atoms: C_26  and  O_31
REMARK   11  A    between atoms: C_27  and  O_29
REMARK   12  A    between atoms: O_29  and  C_30
REMARK   13  A    between atoms: O_31  and  C_32
REMARK                            x       y       z     vdW  Elec       q    Type
REMARK                         _______ _______ _______ _____ _____    ______ ____
ROOT
ATOM      1  C   LIG A   1      -9.874   4.266 130.277  0.00  0.00    +0.148 C 
ATOM      2  C   LIG A   1      -9.696   2.724 130.406  0.00  0.00    +0.037 C 
ATOM      3  C   LIG A   1      -9.956   2.161 131.805  0.00  0.00    +0.012 C 
ATOM      4  C   LIG A   1      -8.227   2.427 129.960  0.00  0.00    +0.039 C 
ATOM      5  C   LIG A   1      -7.617   3.757 129.495  0.00  0.00    +0.099 C 
ATOM      6  C   LIG A   1      -8.870   4.505 129.150  0.00  0.00    +0.175 C 
ATOM      7  O   LIG A   1      -8.987   5.259 128.195  0.00  0.00    -0.294 OA
ATOM      8  C   LIG A   1      -6.983   4.590 130.632  0.00  0.00    +0.151 C 
ATOM      9  C   LIG A   1      -7.943   5.248 131.611  0.00  0.00    -0.038 C 
ATOM     10  C   LIG A   1      -9.286   5.079 131.416  0.00  0.00    +0.017 C 
ENDROOT
BRANCH   4  11
ATOM     11  C   LIG A   1      -8.057   1.367 128.870  0.00  0.00    -0.036 A 
ATOM     12  C   LIG A   1      -7.667   0.081 129.260  0.00  0.00    +0.053 A 
ATOM     13  C   LIG A   1      -7.562  -0.967 128.332  0.00  0.00    +0.165 A 
ATOM     14  C   LIG A   1      -7.862  -0.749 126.966  0.00  0.00    +0.203 A 
ATOM     15  C   LIG A   1      -8.176   0.553 126.549  0.00  0.00    +0.165 A 
ATOM     16  C   LIG A   1      -8.228   1.602 127.498  0.00  0.00    +0.053 A 
BRANCH  13  17
ATOM     17  O   LIG A   1      -7.186  -2.246 128.678  0.00  0.00    -0.491 OA
ATOM     18  C   LIG A   1      -7.943  -2.903 129.688  0.00  0.00    +0.277 C 
ENDBRANCH  13  17
BRANCH  15  19
ATOM     19  O   LIG A   1      -8.399   0.970 125.262  0.00  0.00    -0.491 OA
ATOM     20  C   LIG A   1      -9.759   1.190 124.893  0.00  0.00    +0.277 C 
ENDBRANCH  15  19
BRANCH  14  21
ATOM     21  O   LIG A   1      -7.986  -1.895 126.226  0.00  0.00    -0.488 OA
ATOM     22  C   LIG A   1      -9.261  -2.409 125.884  0.00  0.00    +0.277 C 
ENDBRANCH  14  21
ENDBRANCH   4  11
BRANCH   1  23
ATOM     23  O   LIG A   1     -11.166   4.718 129.931  0.00  0.00    -0.365 OA
ATOM     24  C   LIG A   1     -11.614   5.888 130.593  0.00  0.00    +0.195 C 
ENDBRANCH   1  23
BRANCH   8  25
ATOM     25  O   LIG A   1      -6.210   5.583 129.971  0.00  0.00    -0.387 OA
ATOM     26  H   LIG A   1      -5.294   5.511 130.288  0.00  0.00    +0.210 HD
ENDBRANCH   8  25
BRANCH   9  27
ATOM     27  C   LIG A   1      -7.472   6.010 132.840  0.00  0.00    +0.059 C 
BRANCH  27  28
ATOM     28  C   LIG A   1      -7.861   5.508 134.204  0.00  0.00    -0.030 C 
ATOM     29  C   LIG A   1      -7.999   4.241 134.617  0.00  0.00    +0.004 C 
ENDBRANCH  27  28
ENDBRANCH   9  27
TORSDOF 8
ENDMDL
MODEL 9
REMARK VINA RESULT:      -6.3      4.894      7.522
REMARK  Name = NuBBE_2042
REMARK  13 active torsions:
REMARK  status: ('A' for Active; 'I' for Inactive)
REMARK    1  A    between atoms: O_1  and  C_2
REMARK    2  A    between atoms: O_1  and  C_3
REMARK    3  A    between atoms: C_4  and  C_6
REMARK    4  A    between atoms: C_7  and  C_21
REMARK    5  A    between atoms: C_13  and  O_20
REMARK    6  A    between atoms: C_15  and  C_17
REMARK    7  A    between atoms: C_17  and  C_18
REMARK    8  A    between atoms: C_23  and  O_24
REMARK    9  A    between atoms: O_24  and  C_25
REMARK   10  A    between atoms: C_26  and  O_31
REMARK   11  A    between atoms: C_27  and  O_29
REMARK   12  A    between atoms: O_29  and  C_30
REMARK   13  A    between atoms: O_31  and  C_32
REMARK                            x       y       z     vdW  Elec       q    Type
REMARK                         _______ _______ _______ _____ _____    ______ ____
ROOT
ATOM      1  C   LIG A   1      -6.920   1.910 124.742  0.00  0.00    +0.148 C 
ATOM      2  C   LIG A   1      -6.283   1.507 126.105  0.00  0.00    +0.037 C 
ATOM      3  C   LIG A   1      -5.280   0.352 126.030  0.00  0.00    +0.012 C 
ATOM      4  C   LIG A   1      -7.479   1.134 127.040  0.00  0.00    +0.039 C 
ATOM      5  C   LIG A   1      -8.771   1.413 126.258  0.00  0.00    +0.099 C 
ATOM      6  C   LIG A   1      -8.258   2.423 125.274  0.00  0.00    +0.175 C 
ATOM      7  O   LIG A   1      -8.883   3.404 124.897  0.00  0.00    -0.294 OA
ATOM      8  C   LIG A   1      -9.239   0.234 125.376  0.00  0.00    +0.151 C 
ATOM      9  C   LIG A   1      -8.418  -0.053 124.129  0.00  0.00    -0.038 C 
ATOM     10  C   LIG A   1      -7.342   0.748 123.861  0.00  0.00    +0.017 C 
ENDROOT
BRANCH   4  11
ATOM     11  C   LIG A   1      -7.524   1.850 128.391  0.00  0.00    -0.036 A 
ATOM     12  C   LIG A   1      -8.774   2.044 128.990  0.00  0.00    +0.053 A 
ATOM     13  C   LIG A   1      -8.896   2.624 130.262  0.00  0.00    +0.165 A 
ATOM     14  C   LIG A   1      -7.745   3.021 130.984  0.00  0.00    +0.203 A 
ATOM     15  C   LIG A   1      -6.492   2.906 130.362  0.00  0.00    +0.165 A 
ATOM     16  C   LIG A   1      -6.401   2.362 129.059  0.00  0.00    +0.053 A 
BRANCH  13  17
ATOM     17  O   LIG A   1     -10.107   2.827 130.886  0.00  0.00    -0.491 OA
ATOM     18  C   LIG A   1     -10.886   3.940 130.462  0.00  0.00    +0.277 C 
ENDBRANCH  13  17
BRANCH  15  19
ATOM     19  O   LIG A   1      -5.287   3.326 130.863  0.00  0.00    -0.491 OA
ATOM     20  C   LIG A   1      -5.042   4.730 130.832  0.00  0.00    +0.277 C 
ENDBRANCH  15  19
BRANCH  14  21
ATOM     21  O   LIG A   1      -7.978   3.314 132.302  0.00  0.00    -0.488 OA
ATOM     22  C   LIG A   1      -7.607   2.409 133.327  0.00  0.00    +0.277 C 
ENDBRANCH  14  21
ENDBRANCH   4  11
BRANCH   1  23
ATOM     23  O   LIG A   1      -6.238   2.900 124.003  0.00  0.00    -0.365 OA
ATOM     24  C   LIG A   1      -5.428   3.789 124.752  0.00  0.00    +0.195 C 
ENDBRANCH   1  23
BRANCH   8  25
ATOM     25  O   LIG A   1     -10.575   0.558 125.012  0.00  0.00    -0.387 OA
ATOM     26  H   LIG A   1     -10.980  -0.234 124.620  0.00  0.00    +0.210 HD
ENDBRANCH   8  25
BRANCH   9  27
ATOM     27  C   LIG A   1      -8.689  -1.242 123.220  0.00  0.00    +0.059 C 
BRANCH  27  28
ATOM     28  C   LIG A   1      -9.115  -2.548 123.833  0.00  0.00    -0.030 C 
ATOM     29  C   LIG A   1      -8.349  -3.502 124.380  0.00  0.00    +0.004 C 
ENDBRANCH  27  28
ENDBRANCH   9  27
TORSDOF 8
ENDMDL
