MODEL 1
REMARK VINA RESULT:      -7.1      0.000      0.000
REMARK  Name = NuBBE_1965
REMARK  8 active torsions:
REMARK  status: ('A' for Active; 'I' for Inactive)
REMARK    1  A    between atoms: C_4  and  O_5
REMARK    2  A    between atoms: O_5  and  C_6
REMARK    3  A    between atoms: C_6  and  C_7
REMARK    4  A    between atoms: C_10  and  O_11
REMARK    5  A    between atoms: O_11  and  C_12
REMARK    6  A    between atoms: C_18  and  O_19
REMARK    7  A    between atoms: O_19  and  C_20
REMARK    8  A    between atoms: C_22  and  C_23
REMARK                            x       y       z     vdW  Elec       q    Type
REMARK                         _______ _______ _______ _____ _____    ______ ____
ROOT
ATOM      1  O   LIG A   1      -8.629   2.609 125.860  0.00  0.00    -0.286 OA
ATOM      2  C   LIG A   1      -7.543   2.943 125.403  0.00  0.00    +0.204 A 
ATOM      3  C   LIG A   1      -7.357   3.182 123.964  0.00  0.00    +0.107 A 
ATOM      4  C   LIG A   1      -8.325   2.814 123.025  0.00  0.00    +0.149 A 
ATOM      5  C   LIG A   1      -8.124   3.045 121.673  0.00  0.00    +0.092 A 
ATOM      6  C   LIG A   1      -6.966   3.692 121.242  0.00  0.00    +0.127 A 
ATOM      7  C   LIG A   1      -5.982   4.047 122.174  0.00  0.00    +0.092 A 
ATOM      8  C   LIG A   1      -6.180   3.791 123.538  0.00  0.00    +0.146 A 
ATOM      9  O   LIG A   1      -5.182   4.182 124.399  0.00  0.00    -0.454 OA
ATOM     10  C   LIG A   1      -5.264   3.782 125.716  0.00  0.00    +0.143 A 
ATOM     11  C   LIG A   1      -4.142   4.046 126.505  0.00  0.00    +0.092 A 
ATOM     12  C   LIG A   1      -4.108   3.656 127.846  0.00  0.00    +0.124 A 
ATOM     13  C   LIG A   1      -5.207   2.990 128.394  0.00  0.00    +0.050 A 
ATOM     14  C   LIG A   1      -6.349   2.720 127.622  0.00  0.00    -0.033 A 
ATOM     15  C   LIG A   1      -7.489   1.982 128.271  0.00  0.00    +0.045 C 
ATOM     16  C   LIG A   1      -6.372   3.144 126.277  0.00  0.00    +0.068 A 
ENDROOT
BRANCH   6  17
ATOM     17  O   LIG A   1      -6.720   3.985 119.924  0.00  0.00    -0.495 OA
ATOM     18  C   LIG A   1      -5.671   4.940 119.726  0.00  0.00    +0.277 C 
ENDBRANCH   6  17
BRANCH  12  19
ATOM     19  O   LIG A   1      -2.956   3.969 128.512  0.00  0.00    -0.495 OA
ATOM     20  C   LIG A   1      -2.463   5.295 128.351  0.00  0.00    +0.277 C 
ENDBRANCH  12  19
BRANCH   4  21
ATOM     21  O   LIG A   1      -9.479   2.151 123.496  0.00  0.00    -0.425 OA
BRANCH  21  22
ATOM     22  C   LIG A   1      -9.890   0.871 123.121  0.00  0.00    +0.309 C 
ATOM     23  C   LIG A   1      -8.823  -0.082 123.579  0.00  0.00    +0.136 C 
ATOM     24  O   LIG A   1     -10.913   0.562 122.542  0.00  0.00    -0.251 OA
ENDBRANCH  21  22
ENDBRANCH   4  21
TORSDOF 4
ENDMDL
MODEL 2
REMARK VINA RESULT:      -7.0      6.332      9.308
REMARK  Name = NuBBE_1965
REMARK  8 active torsions:
REMARK  status: ('A' for Active; 'I' for Inactive)
REMARK    1  A    between atoms: C_4  and  O_5
REMARK    2  A    between atoms: O_5  and  C_6
REMARK    3  A    between atoms: C_6  and  C_7
REMARK    4  A    between atoms: C_10  and  O_11
REMARK    5  A    between atoms: O_11  and  C_12
REMARK    6  A    between atoms: C_18  and  O_19
REMARK    7  A    between atoms: O_19  and  C_20
REMARK    8  A    between atoms: C_22  and  C_23
REMARK                            x       y       z     vdW  Elec       q    Type
REMARK                         _______ _______ _______ _____ _____    ______ ____
ROOT
ATOM      1  O   LIG A   1      -9.443   5.901 127.775  0.00  0.00    -0.286 OA
ATOM      2  C   LIG A   1     -10.052   6.133 128.813  0.00  0.00    +0.204 A 
ATOM      3  C   LIG A   1      -9.771   5.387 130.049  0.00  0.00    +0.107 A 
ATOM      4  C   LIG A   1      -8.983   4.232 130.049  0.00  0.00    +0.149 A 
ATOM      5  C   LIG A   1      -8.738   3.544 131.228  0.00  0.00    +0.092 A 
ATOM      6  C   LIG A   1      -9.240   4.029 132.435  0.00  0.00    +0.127 A 
ATOM      7  C   LIG A   1     -10.046   5.174 132.441  0.00  0.00    +0.092 A 
ATOM      8  C   LIG A   1     -10.310   5.855 131.244  0.00  0.00    +0.146 A 
ATOM      9  O   LIG A   1     -11.093   6.982 131.325  0.00  0.00    -0.454 OA
ATOM     10  C   LIG A   1     -11.520   7.565 130.151  0.00  0.00    +0.143 A 
ATOM     11  C   LIG A   1     -12.457   8.592 130.284  0.00  0.00    +0.092 A 
ATOM     12  C   LIG A   1     -12.978   9.230 129.156  0.00  0.00    +0.124 A 
ATOM     13  C   LIG A   1     -12.559   8.827 127.886  0.00  0.00    +0.050 A 
ATOM     14  C   LIG A   1     -11.612   7.802 127.727  0.00  0.00    -0.033 A 
ATOM     15  C   LIG A   1     -11.219   7.405 126.329  0.00  0.00    +0.045 C 
ATOM     16  C   LIG A   1     -11.081   7.187 128.879  0.00  0.00    +0.068 A 
ENDROOT
BRANCH   6  17
ATOM     17  O   LIG A   1      -9.004   3.419 133.641  0.00  0.00    -0.495 OA
ATOM     18  C   LIG A   1      -7.646   3.005 133.829  0.00  0.00    +0.277 C 
ENDBRANCH   6  17
BRANCH  12  19
ATOM     19  O   LIG A   1     -13.887  10.217 129.416  0.00  0.00    -0.495 OA
ATOM     20  C   LIG A   1     -13.475  11.250 130.305  0.00  0.00    +0.277 C 
ENDBRANCH  12  19
BRANCH   4  21
ATOM     21  O   LIG A   1      -8.501   3.764 128.808  0.00  0.00    -0.425 OA
BRANCH  21  22
ATOM     22  C   LIG A   1      -7.264   3.154 128.596  0.00  0.00    +0.309 C 
ATOM     23  C   LIG A   1      -6.241   4.251 128.527  0.00  0.00    +0.136 C 
ATOM     24  O   LIG A   1      -7.033   1.965 128.492  0.00  0.00    -0.251 OA
ENDBRANCH  21  22
ENDBRANCH   4  21
TORSDOF 4
ENDMDL
MODEL 3
REMARK VINA RESULT:      -6.9      2.232      5.682
REMARK  Name = NuBBE_1965
REMARK  8 active torsions:
REMARK  status: ('A' for Active; 'I' for Inactive)
REMARK    1  A    between atoms: C_4  and  O_5
REMARK    2  A    between atoms: O_5  and  C_6
REMARK    3  A    between atoms: C_6  and  C_7
REMARK    4  A    between atoms: C_10  and  O_11
REMARK    5  A    between atoms: O_11  and  C_12
REMARK    6  A    between atoms: C_18  and  O_19
REMARK    7  A    between atoms: O_19  and  C_20
REMARK    8  A    between atoms: C_22  and  C_23
REMARK                            x       y       z     vdW  Elec       q    Type
REMARK                         _______ _______ _______ _____ _____    ______ ____
ROOT
ATOM      1  O   LIG A   1      -6.150   1.671 127.201  0.00  0.00    -0.286 OA
ATOM      2  C   LIG A   1      -6.625   1.456 126.093  0.00  0.00    +0.204 A 
ATOM      3  C   LIG A   1      -6.370   2.361 124.961  0.00  0.00    +0.107 A 
ATOM      4  C   LIG A   1      -5.785   3.618 125.141  0.00  0.00    +0.149 A 
ATOM      5  C   LIG A   1      -5.560   4.454 124.058  0.00  0.00    +0.092 A 
ATOM      6  C   LIG A   1      -5.875   4.025 122.769  0.00  0.00    +0.127 A 
ATOM      7  C   LIG A   1      -6.478   2.775 122.582  0.00  0.00    +0.092 A 
ATOM      8  C   LIG A   1      -6.725   1.941 123.682  0.00  0.00    +0.146 A 
ATOM      9  O   LIG A   1      -7.302   0.720 123.426  0.00  0.00    -0.454 OA
ATOM     10  C   LIG A   1      -7.723  -0.040 124.496  0.00  0.00    +0.143 A 
ATOM     11  C   LIG A   1      -8.465  -1.181 124.181  0.00  0.00    +0.092 A 
ATOM     12  C   LIG A   1      -8.965  -2.006 125.191  0.00  0.00    +0.124 A 
ATOM     13  C   LIG A   1      -8.723  -1.676 126.526  0.00  0.00    +0.050 A 
ATOM     14  C   LIG A   1      -7.974  -0.538 126.868  0.00  0.00    -0.033 A 
ATOM     15  C   LIG A   1      -7.768  -0.232 128.328  0.00  0.00    +0.045 C 
ATOM     16  C   LIG A   1      -7.458   0.268 125.832  0.00  0.00    +0.068 A 
ENDROOT
BRANCH   6  17
ATOM     17  O   LIG A   1      -5.644   4.785 121.651  0.00  0.00    -0.495 OA
ATOM     18  C   LIG A   1      -5.935   4.114 120.420  0.00  0.00    +0.277 C 
ENDBRANCH   6  17
BRANCH  12  19
ATOM     19  O   LIG A   1      -9.675  -3.090 124.757  0.00  0.00    -0.495 OA
ATOM     20  C   LIG A   1      -9.585  -3.401 123.370  0.00  0.00    +0.277 C 
ENDBRANCH  12  19
BRANCH   4  21
ATOM     21  O   LIG A   1      -5.490   4.024 126.460  0.00  0.00    -0.425 OA
BRANCH  21  22
ATOM     22  C   LIG A   1      -4.383   4.781 126.847  0.00  0.00    +0.309 C 
ATOM     23  C   LIG A   1      -3.178   3.894 126.713  0.00  0.00    +0.136 C 
ATOM     24  O   LIG A   1      -4.372   5.938 127.218  0.00  0.00    -0.251 OA
ENDBRANCH  21  22
ENDBRANCH   4  21
TORSDOF 4
ENDMDL
MODEL 4
REMARK VINA RESULT:      -6.8      2.577      5.991
REMARK  Name = NuBBE_1965
REMARK  8 active torsions:
REMARK  status: ('A' for Active; 'I' for Inactive)
REMARK    1  A    between atoms: C_4  and  O_5
REMARK    2  A    between atoms: O_5  and  C_6
REMARK    3  A    between atoms: C_6  and  C_7
REMARK    4  A    between atoms: C_10  and  O_11
REMARK    5  A    between atoms: O_11  and  C_12
REMARK    6  A    between atoms: C_18  and  O_19
REMARK    7  A    between atoms: O_19  and  C_20
REMARK    8  A    between atoms: C_22  and  C_23
REMARK                            x       y       z     vdW  Elec       q    Type
REMARK                         _______ _______ _______ _____ _____    ______ ____
ROOT
ATOM      1  O   LIG A   1      -8.157   1.752 123.327  0.00  0.00    -0.286 OA
ATOM      2  C   LIG A   1      -7.566   1.303 124.301  0.00  0.00    +0.204 A 
ATOM      3  C   LIG A   1      -6.497   2.063 124.967  0.00  0.00    +0.107 A 
ATOM      4  C   LIG A   1      -5.942   3.211 124.393  0.00  0.00    +0.149 A 
ATOM      5  C   LIG A   1      -4.932   3.907 125.039  0.00  0.00    +0.092 A 
ATOM      6  C   LIG A   1      -4.492   3.490 126.295  0.00  0.00    +0.127 A 
ATOM      7  C   LIG A   1      -5.029   2.331 126.869  0.00  0.00    +0.092 A 
ATOM      8  C   LIG A   1      -6.035   1.617 126.202  0.00  0.00    +0.146 A 
ATOM      9  O   LIG A   1      -6.530   0.498 126.830  0.00  0.00    -0.454 OA
ATOM     10  C   LIG A   1      -7.382  -0.322 126.123  0.00  0.00    +0.143 A 
ATOM     11  C   LIG A   1      -7.711  -1.534 126.735  0.00  0.00    +0.092 A 
ATOM     12  C   LIG A   1      -8.544  -2.453 126.093  0.00  0.00    +0.124 A 
ATOM     13  C   LIG A   1      -9.044  -2.153 124.824  0.00  0.00    +0.050 A 
ATOM     14  C   LIG A   1      -8.733  -0.938 124.191  0.00  0.00    -0.033 A 
ATOM     15  C   LIG A   1      -9.290  -0.689 122.814  0.00  0.00    +0.045 C 
ATOM     16  C   LIG A   1      -7.910  -0.014 124.867  0.00  0.00    +0.068 A 
ENDROOT
BRANCH   6  17
ATOM     17  O   LIG A   1      -3.524   4.154 127.006  0.00  0.00    -0.495 OA
ATOM     18  C   LIG A   1      -2.275   3.458 127.078  0.00  0.00    +0.277 C 
ENDBRANCH   6  17
BRANCH  12  19
ATOM     19  O   LIG A   1      -8.791  -3.601 126.793  0.00  0.00    -0.495 OA
ATOM     20  C   LIG A   1      -8.607  -3.542 128.204  0.00  0.00    +0.277 C 
ENDBRANCH  12  19
BRANCH   4  21
ATOM     21  O   LIG A   1      -6.404   3.597 123.116  0.00  0.00    -0.425 OA
BRANCH  21  22
ATOM     22  C   LIG A   1      -5.602   4.033 122.061  0.00  0.00    +0.309 C 
ATOM     23  C   LIG A   1      -5.700   2.996 120.979  0.00  0.00    +0.136 C 
ATOM     24  O   LIG A   1      -4.946   5.055 122.003  0.00  0.00    -0.251 OA
ENDBRANCH  21  22
ENDBRANCH   4  21
TORSDOF 4
ENDMDL
MODEL 5
REMARK VINA RESULT:      -6.7      2.465      5.873
REMARK  Name = NuBBE_1965
REMARK  8 active torsions:
REMARK  status: ('A' for Active; 'I' for Inactive)
REMARK    1  A    between atoms: C_4  and  O_5
REMARK    2  A    between atoms: O_5  and  C_6
REMARK    3  A    between atoms: C_6  and  C_7
REMARK    4  A    between atoms: C_10  and  O_11
REMARK    5  A    between atoms: O_11  and  C_12
REMARK    6  A    between atoms: C_18  and  O_19
REMARK    7  A    between atoms: O_19  and  C_20
REMARK    8  A    between atoms: C_22  and  C_23
REMARK                            x       y       z     vdW  Elec       q    Type
REMARK                         _______ _______ _______ _____ _____    ______ ____
ROOT
ATOM      1  O   LIG A   1      -6.791   2.317 126.844  0.00  0.00    -0.286 OA
ATOM      2  C   LIG A   1      -6.976   1.887 125.712  0.00  0.00    +0.204 A 
ATOM      3  C   LIG A   1      -7.664   0.608 125.480  0.00  0.00    +0.107 A 
ATOM      4  C   LIG A   1      -7.925  -0.288 126.522  0.00  0.00    +0.149 A 
ATOM      5  C   LIG A   1      -8.570  -1.490 126.276  0.00  0.00    +0.092 A 
ATOM      6  C   LIG A   1      -9.008  -1.795 124.988  0.00  0.00    +0.127 A 
ATOM      7  C   LIG A   1      -8.735  -0.912 123.935  0.00  0.00    +0.092 A 
ATOM      8  C   LIG A   1      -8.062   0.293 124.184  0.00  0.00    +0.146 A 
ATOM      9  O   LIG A   1      -7.842   1.121 123.108  0.00  0.00    -0.454 OA
ATOM     10  C   LIG A   1      -7.028   2.218 123.286  0.00  0.00    +0.143 A 
ATOM     11  C   LIG A   1      -6.689   2.921 122.128  0.00  0.00    +0.092 A 
ATOM     12  C   LIG A   1      -5.844   4.032 122.192  0.00  0.00    +0.124 A 
ATOM     13  C   LIG A   1      -5.332   4.433 123.428  0.00  0.00    +0.050 A 
ATOM     14  C   LIG A   1      -5.664   3.746 124.607  0.00  0.00    -0.033 A 
ATOM     15  C   LIG A   1      -5.061   4.221 125.903  0.00  0.00    +0.045 C 
ATOM     16  C   LIG A   1      -6.537   2.642 124.524  0.00  0.00    +0.068 A 
ENDROOT
BRANCH   6  17
ATOM     17  O   LIG A   1      -9.686  -2.948 124.682  0.00  0.00    -0.495 OA
ATOM     18  C   LIG A   1      -9.569  -3.346 123.312  0.00  0.00    +0.277 C 
ENDBRANCH   6  17
BRANCH  12  19
ATOM     19  O   LIG A   1      -5.586   4.635 120.992  0.00  0.00    -0.495 OA
ATOM     20  C   LIG A   1      -6.459   4.314 119.914  0.00  0.00    +0.277 C 
ENDBRANCH  12  19
BRANCH   4  21
ATOM     21  O   LIG A   1      -7.458   0.049 127.811  0.00  0.00    -0.425 OA
BRANCH  21  22
ATOM     22  C   LIG A   1      -6.876  -0.836 128.719  0.00  0.00    +0.309 C 
ATOM     23  C   LIG A   1      -5.443  -1.010 128.305  0.00  0.00    +0.136 C 
ATOM     24  O   LIG A   1      -7.406  -1.371 129.674  0.00  0.00    -0.251 OA
ENDBRANCH  21  22
ENDBRANCH   4  21
TORSDOF 4
ENDMDL
MODEL 6
REMARK VINA RESULT:      -6.6      2.896      5.361
REMARK  Name = NuBBE_1965
REMARK  8 active torsions:
REMARK  status: ('A' for Active; 'I' for Inactive)
REMARK    1  A    between atoms: C_4  and  O_5
REMARK    2  A    between atoms: O_5  and  C_6
REMARK    3  A    between atoms: C_6  and  C_7
REMARK    4  A    between atoms: C_10  and  O_11
REMARK    5  A    between atoms: O_11  and  C_12
REMARK    6  A    between atoms: C_18  and  O_19
REMARK    7  A    between atoms: O_19  and  C_20
REMARK    8  A    between atoms: C_22  and  C_23
REMARK                            x       y       z     vdW  Elec       q    Type
REMARK                         _______ _______ _______ _____ _____    ______ ____
ROOT
ATOM      1  O   LIG A   1      -6.737   0.532 123.258  0.00  0.00    -0.286 OA
ATOM      2  C   LIG A   1      -6.755   0.815 124.449  0.00  0.00    +0.204 A 
ATOM      3  C   LIG A   1      -7.160  -0.169 125.465  0.00  0.00    +0.107 A 
ATOM      4  C   LIG A   1      -7.767  -1.379 125.116  0.00  0.00    +0.149 A 
ATOM      5  C   LIG A   1      -8.144  -2.288 126.093  0.00  0.00    +0.092 A 
ATOM      6  C   LIG A   1      -7.877  -2.019 127.435  0.00  0.00    +0.127 A 
ATOM      7  C   LIG A   1      -7.287  -0.800 127.794  0.00  0.00    +0.092 A 
ATOM      8  C   LIG A   1      -6.927   0.126 126.805  0.00  0.00    +0.146 A 
ATOM      9  O   LIG A   1      -6.335   1.293 127.226  0.00  0.00    -0.454 OA
ATOM     10  C   LIG A   1      -6.139   2.295 126.301  0.00  0.00    +0.143 A 
ATOM     11  C   LIG A   1      -5.707   3.522 126.810  0.00  0.00    +0.092 A 
ATOM     12  C   LIG A   1      -5.506   4.613 125.962  0.00  0.00    +0.124 A 
ATOM     13  C   LIG A   1      -5.748   4.471 124.594  0.00  0.00    +0.050 A 
ATOM     14  C   LIG A   1      -6.176   3.246 124.057  0.00  0.00    -0.033 A 
ATOM     15  C   LIG A   1      -6.437   3.169 122.576  0.00  0.00    +0.045 C 
ATOM     16  C   LIG A   1      -6.350   2.150 124.927  0.00  0.00    +0.068 A 
ENDROOT
BRANCH   6  17
ATOM     17  O   LIG A   1      -8.189  -2.890 128.448  0.00  0.00    -0.495 OA
ATOM     18  C   LIG A   1      -8.959  -4.022 128.027  0.00  0.00    +0.277 C 
ENDBRANCH   6  17
BRANCH  12  19
ATOM     19  O   LIG A   1      -5.083   5.758 126.579  0.00  0.00    -0.495 OA
ATOM     20  C   LIG A   1      -4.134   5.606 127.630  0.00  0.00    +0.277 C 
ENDBRANCH  12  19
BRANCH   4  21
ATOM     21  O   LIG A   1      -8.031  -1.613 123.750  0.00  0.00    -0.425 OA
BRANCH  21  22
ATOM     22  C   LIG A   1      -9.298  -1.751 123.181  0.00  0.00    +0.309 C 
ATOM     23  C   LIG A   1      -9.642  -3.212 123.227  0.00  0.00    +0.136 C 
ATOM     24  O   LIG A   1     -10.008  -0.871 122.734  0.00  0.00    -0.251 OA
ENDBRANCH  21  22
ENDBRANCH   4  21
TORSDOF 4
ENDMDL
MODEL 7
REMARK VINA RESULT:      -6.6      2.570      4.806
REMARK  Name = NuBBE_1965
REMARK  8 active torsions:
REMARK  status: ('A' for Active; 'I' for Inactive)
REMARK    1  A    between atoms: C_4  and  O_5
REMARK    2  A    between atoms: O_5  and  C_6
REMARK    3  A    between atoms: C_6  and  C_7
REMARK    4  A    between atoms: C_10  and  O_11
REMARK    5  A    between atoms: O_11  and  C_12
REMARK    6  A    between atoms: C_18  and  O_19
REMARK    7  A    between atoms: O_19  and  C_20
REMARK    8  A    between atoms: C_22  and  C_23
REMARK                            x       y       z     vdW  Elec       q    Type
REMARK                         _______ _______ _______ _____ _____    ______ ____
ROOT
ATOM      1  O   LIG A   1      -6.718   1.831 123.591  0.00  0.00    -0.286 OA
ATOM      2  C   LIG A   1      -6.486   1.443 124.729  0.00  0.00    +0.204 A 
ATOM      3  C   LIG A   1      -7.078   0.202 125.251  0.00  0.00    +0.107 A 
ATOM      4  C   LIG A   1      -8.107  -0.463 124.578  0.00  0.00    +0.149 A 
ATOM      5  C   LIG A   1      -8.652  -1.629 125.094  0.00  0.00    +0.092 A 
ATOM      6  C   LIG A   1      -8.141  -2.175 126.272  0.00  0.00    +0.127 A 
ATOM      7  C   LIG A   1      -7.123  -1.505 126.963  0.00  0.00    +0.092 A 
ATOM      8  C   LIG A   1      -6.591  -0.314 126.449  0.00  0.00    +0.146 A 
ATOM      9  O   LIG A   1      -5.581   0.282 127.168  0.00  0.00    -0.454 OA
ATOM     10  C   LIG A   1      -5.166   1.540 126.789  0.00  0.00    +0.143 A 
ATOM     11  C   LIG A   1      -4.273   2.175 127.655  0.00  0.00    +0.092 A 
ATOM     12  C   LIG A   1      -3.812   3.465 127.381  0.00  0.00    +0.124 A 
ATOM     13  C   LIG A   1      -4.258   4.122 126.233  0.00  0.00    +0.050 A 
ATOM     14  C   LIG A   1      -5.151   3.501 125.343  0.00  0.00    -0.033 A 
ATOM     15  C   LIG A   1      -5.606   4.275 124.134  0.00  0.00    +0.045 C 
ATOM     16  C   LIG A   1      -5.585   2.190 125.626  0.00  0.00    +0.068 A 
ENDROOT
BRANCH   6  17
ATOM     17  O   LIG A   1      -8.608  -3.344 126.817  0.00  0.00    -0.495 OA
ATOM     18  C   LIG A   1      -8.497  -3.407 128.243  0.00  0.00    +0.277 C 
ENDBRANCH   6  17
BRANCH  12  19
ATOM     19  O   LIG A   1      -2.944   3.979 128.303  0.00  0.00    -0.495 OA
ATOM     20  C   LIG A   1      -2.572   5.344 128.141  0.00  0.00    +0.277 C 
ENDBRANCH  12  19
BRANCH   4  21
ATOM     21  O   LIG A   1      -8.606   0.123 123.395  0.00  0.00    -0.425 OA
BRANCH  21  22
ATOM     22  C   LIG A   1      -9.923   0.535 123.187  0.00  0.00    +0.309 C 
ATOM     23  C   LIG A   1     -10.215   1.599 124.206  0.00  0.00    +0.136 C 
ATOM     24  O   LIG A   1     -10.701   0.131 122.345  0.00  0.00    -0.251 OA
ENDBRANCH  21  22
ENDBRANCH   4  21
TORSDOF 4
ENDMDL
MODEL 8
REMARK VINA RESULT:      -6.5      3.942      5.370
REMARK  Name = NuBBE_1965
REMARK  8 active torsions:
REMARK  status: ('A' for Active; 'I' for Inactive)
REMARK    1  A    between atoms: C_4  and  O_5
REMARK    2  A    between atoms: O_5  and  C_6
REMARK    3  A    between atoms: C_6  and  C_7
REMARK    4  A    between atoms: C_10  and  O_11
REMARK    5  A    between atoms: O_11  and  C_12
REMARK    6  A    between atoms: C_18  and  O_19
REMARK    7  A    between atoms: O_19  and  C_20
REMARK    8  A    between atoms: C_22  and  C_23
REMARK                            x       y       z     vdW  Elec       q    Type
REMARK                         _______ _______ _______ _____ _____    ______ ____
ROOT
ATOM      1  O   LIG A   1      -9.379  -2.236 126.152  0.00  0.00    -0.286 OA
ATOM      2  C   LIG A   1      -8.442  -1.580 126.589  0.00  0.00    +0.204 A 
ATOM      3  C   LIG A   1      -7.885  -0.444 125.838  0.00  0.00    +0.107 A 
ATOM      4  C   LIG A   1      -8.226  -0.207 124.502  0.00  0.00    +0.149 A 
ATOM      5  C   LIG A   1      -7.684   0.868 123.815  0.00  0.00    +0.092 A 
ATOM      6  C   LIG A   1      -6.824   1.751 124.468  0.00  0.00    +0.127 A 
ATOM      7  C   LIG A   1      -6.463   1.509 125.799  0.00  0.00    +0.092 A 
ATOM      8  C   LIG A   1      -6.996   0.409 126.485  0.00  0.00    +0.146 A 
ATOM      9  O   LIG A   1      -6.614   0.242 127.795  0.00  0.00    -0.454 OA
ATOM     10  C   LIG A   1      -6.973  -0.924 128.435  0.00  0.00    +0.143 A 
ATOM     11  C   LIG A   1      -6.409  -1.128 129.696  0.00  0.00    +0.092 A 
ATOM     12  C   LIG A   1      -6.684  -2.291 130.420  0.00  0.00    +0.124 A 
ATOM     13  C   LIG A   1      -7.526  -3.258 129.867  0.00  0.00    +0.050 A 
ATOM     14  C   LIG A   1      -8.111  -3.073 128.603  0.00  0.00    -0.033 A 
ATOM     15  C   LIG A   1      -8.994  -4.165 128.059  0.00  0.00    +0.045 C 
ATOM     16  C   LIG A   1      -7.840  -1.881 127.901  0.00  0.00    +0.068 A 
ENDROOT
BRANCH   6  17
ATOM     17  O   LIG A   1      -6.282   2.854 123.858  0.00  0.00    -0.495 OA
ATOM     18  C   LIG A   1      -6.765   3.083 122.530  0.00  0.00    +0.277 C 
ENDBRANCH   6  17
BRANCH  12  19
ATOM     19  O   LIG A   1      -6.072  -2.375 131.639  0.00  0.00    -0.495 OA
ATOM     20  C   LIG A   1      -6.757  -3.106 132.650  0.00  0.00    +0.277 C 
ENDBRANCH  12  19
BRANCH   4  21
ATOM     21  O   LIG A   1      -9.090  -1.127 123.870  0.00  0.00    -0.425 OA
BRANCH  21  22
ATOM     22  C   LIG A   1      -8.698  -2.123 122.975  0.00  0.00    +0.309 C 
ATOM     23  C   LIG A   1      -9.634  -3.281 123.172  0.00  0.00    +0.136 C 
ATOM     24  O   LIG A   1      -7.784  -2.081 122.175  0.00  0.00    -0.251 OA
ENDBRANCH  21  22
ENDBRANCH   4  21
TORSDOF 4
ENDMDL
MODEL 9
REMARK VINA RESULT:      -6.3      3.923      5.525
REMARK  Name = NuBBE_1965
REMARK  8 active torsions:
REMARK  status: ('A' for Active; 'I' for Inactive)
REMARK    1  A    between atoms: C_4  and  O_5
REMARK    2  A    between atoms: O_5  and  C_6
REMARK    3  A    between atoms: C_6  and  C_7
REMARK    4  A    between atoms: C_10  and  O_11
REMARK    5  A    between atoms: O_11  and  C_12
REMARK    6  A    between atoms: C_18  and  O_19
REMARK    7  A    between atoms: O_19  and  C_20
REMARK    8  A    between atoms: C_22  and  C_23
REMARK                            x       y       z     vdW  Elec       q    Type
REMARK                         _______ _______ _______ _____ _____    ______ ____
ROOT
ATOM      1  O   LIG A   1      -9.032  -1.304 126.072  0.00  0.00    -0.286 OA
ATOM      2  C   LIG A   1      -7.988  -0.983 126.626  0.00  0.00    +0.204 A 
ATOM      3  C   LIG A   1      -7.215   0.188 126.186  0.00  0.00    +0.107 A 
ATOM      4  C   LIG A   1      -7.493   0.844 124.983  0.00  0.00    +0.149 A 
ATOM      5  C   LIG A   1      -6.747   1.943 124.587  0.00  0.00    +0.092 A 
ATOM      6  C   LIG A   1      -5.736   2.433 125.414  0.00  0.00    +0.127 A 
ATOM      7  C   LIG A   1      -5.438   1.771 126.612  0.00  0.00    +0.092 A 
ATOM      8  C   LIG A   1      -6.181   0.646 126.998  0.00  0.00    +0.146 A 
ATOM      9  O   LIG A   1      -5.848   0.055 128.194  0.00  0.00    -0.454 OA
ATOM     10  C   LIG A   1      -6.433  -1.152 128.510  0.00  0.00    +0.143 A 
ATOM     11  C   LIG A   1      -5.928  -1.798 129.641  0.00  0.00    +0.092 A 
ATOM     12  C   LIG A   1      -6.429  -3.041 130.034  0.00  0.00    +0.124 A 
ATOM     13  C   LIG A   1      -7.440  -3.641 129.279  0.00  0.00    +0.050 A 
ATOM     14  C   LIG A   1      -7.969  -3.007 128.142  0.00  0.00    -0.033 A 
ATOM     15  C   LIG A   1      -9.044  -3.720 127.365  0.00  0.00    +0.045 C 
ATOM     16  C   LIG A   1      -7.465  -1.742 127.777  0.00  0.00    +0.068 A 
ENDROOT
BRANCH   6  17
ATOM     17  O   LIG A   1      -4.985   3.538 125.102  0.00  0.00    -0.495 OA
ATOM     18  C   LIG A   1      -4.198   4.033 126.191  0.00  0.00    +0.277 C 
ENDBRANCH   6  17
BRANCH  12  19
ATOM     19  O   LIG A   1      -5.854  -3.571 131.154  0.00  0.00    -0.495 OA
ATOM     20  C   LIG A   1      -5.472  -4.941 131.090  0.00  0.00    +0.277 C 
ENDBRANCH  12  19
BRANCH   4  21
ATOM     21  O   LIG A   1      -8.515   0.314 124.166  0.00  0.00    -0.425 OA
BRANCH  21  22
ATOM     22  C   LIG A   1      -9.710   0.959 123.841  0.00  0.00    +0.309 C 
ATOM     23  C   LIG A   1     -10.103   0.487 122.471  0.00  0.00    +0.136 C 
ATOM     24  O   LIG A   1     -10.334   1.748 124.523  0.00  0.00    -0.251 OA
ENDBRANCH  21  22
ENDBRANCH   4  21
TORSDOF 4
ENDMDL
