MODEL 1
REMARK VINA RESULT:      -4.3      0.000      0.000
REMARK  Name = NuBBE_1384
REMARK  4 active torsions:
REMARK  status: ('A' for Active; 'I' for Inactive)
REMARK    1  A    between atoms: C_1  and  C_2
REMARK    2  A    between atoms: C_2  and  C_3
REMARK    3  A    between atoms: C_3  and  C_4
REMARK    4  A    between atoms: C_5  and  C_6
REMARK                            x       y       z     vdW  Elec       q    Type
REMARK                         _______ _______ _______ _____ _____    ______ ____
ROOT
ATOM      1  C   LIG A   1     -12.436   8.523 128.216  0.00  0.00    -0.024 C 
ATOM      2  C   LIG A   1     -11.186   8.415 127.739  0.00  0.00    +0.038 C 
ENDROOT
BRANCH   2   3
ATOM      3  C   LIG A   1     -10.926   7.678 126.486  0.00  0.00    +0.250 C 
ATOM      4  O   LIG A   1     -10.376   6.583 126.491  0.00  0.00    -0.296 OA
ENDBRANCH   2   3
BRANCH   1   5
ATOM      5  C   LIG A   1     -12.786   9.282 129.467  0.00  0.00    +0.027 C 
BRANCH   5   7
ATOM      6  C   LIG A   1     -13.588  11.528 130.302  0.00  0.00    +0.004 C 
ATOM      7  C   LIG A   1     -13.625  10.524 129.159  0.00  0.00    +0.001 C 
ENDBRANCH   5   7
ENDBRANCH   1   5
TORSDOF 3
ENDMDL
MODEL 2
REMARK VINA RESULT:      -4.2     13.499     14.635
REMARK  Name = NuBBE_1384
REMARK  4 active torsions:
REMARK  status: ('A' for Active; 'I' for Inactive)
REMARK    1  A    between atoms: C_1  and  C_2
REMARK    2  A    between atoms: C_2  and  C_3
REMARK    3  A    between atoms: C_3  and  C_4
REMARK    4  A    between atoms: C_5  and  C_6
REMARK                            x       y       z     vdW  Elec       q    Type
REMARK                         _______ _______ _______ _____ _____    ______ ____
ROOT
ATOM      1  C   LIG A   1      -6.993  -2.861 123.875  0.00  0.00    -0.024 C 
ATOM      2  C   LIG A   1      -8.078  -3.494 124.348  0.00  0.00    +0.038 C 
ENDROOT
BRANCH   2   3
ATOM      3  C   LIG A   1      -9.385  -3.338 123.678  0.00  0.00    +0.250 C 
ATOM      4  O   LIG A   1      -9.782  -2.243 123.298  0.00  0.00    -0.296 OA
ENDBRANCH   2   3
BRANCH   1   5
ATOM      5  C   LIG A   1      -5.623  -2.994 124.482  0.00  0.00    +0.027 C 
BRANCH   5   7
ATOM      6  C   LIG A   1      -4.322  -4.906 123.463  0.00  0.00    +0.004 C 
ATOM      7  C   LIG A   1      -4.580  -3.406 123.440  0.00  0.00    +0.001 C 
ENDBRANCH   5   7
ENDBRANCH   1   5
TORSDOF 3
ENDMDL
MODEL 3
REMARK VINA RESULT:      -4.1     13.626     14.620
REMARK  Name = NuBBE_1384
REMARK  4 active torsions:
REMARK  status: ('A' for Active; 'I' for Inactive)
REMARK    1  A    between atoms: C_1  and  C_2
REMARK    2  A    between atoms: C_2  and  C_3
REMARK    3  A    between atoms: C_3  and  C_4
REMARK    4  A    between atoms: C_5  and  C_6
REMARK                            x       y       z     vdW  Elec       q    Type
REMARK                         _______ _______ _______ _____ _____    ______ ____
ROOT
ATOM      1  C   LIG A   1      -6.074  -3.110 123.990  0.00  0.00    -0.024 C 
ATOM      2  C   LIG A   1      -4.872  -3.315 123.428  0.00  0.00    +0.038 C 
ENDROOT
BRANCH   2   3
ATOM      3  C   LIG A   1      -4.127  -4.563 123.691  0.00  0.00    +0.250 C 
ATOM      4  O   LIG A   1      -4.119  -5.485 122.884  0.00  0.00    -0.296 OA
ENDBRANCH   2   3
BRANCH   1   5
ATOM      5  C   LIG A   1      -6.906  -1.881 123.745  0.00  0.00    +0.027 C 
BRANCH   5   7
ATOM      6  C   LIG A   1      -9.114  -3.066 123.415  0.00  0.00    +0.004 C 
ATOM      7  C   LIG A   1      -8.063  -2.163 122.784  0.00  0.00    +0.001 C 
ENDBRANCH   5   7
ENDBRANCH   1   5
TORSDOF 3
ENDMDL
MODEL 4
REMARK VINA RESULT:      -4.1      2.926      4.785
REMARK  Name = NuBBE_1384
REMARK  4 active torsions:
REMARK  status: ('A' for Active; 'I' for Inactive)
REMARK    1  A    between atoms: C_1  and  C_2
REMARK    2  A    between atoms: C_2  and  C_3
REMARK    3  A    between atoms: C_3  and  C_4
REMARK    4  A    between atoms: C_5  and  C_6
REMARK                            x       y       z     vdW  Elec       q    Type
REMARK                         _______ _______ _______ _____ _____    ______ ____
ROOT
ATOM      1  C   LIG A   1     -12.754   9.149 129.563  0.00  0.00    -0.024 C 
ATOM      2  C   LIG A   1     -13.337  10.338 129.341  0.00  0.00    +0.038 C 
ENDROOT
BRANCH   2   3
ATOM      3  C   LIG A   1     -13.546  11.287 130.454  0.00  0.00    +0.250 C 
ATOM      4  O   LIG A   1     -13.564  12.498 130.266  0.00  0.00    -0.296 OA
ENDBRANCH   2   3
BRANCH   1   5
ATOM      5  C   LIG A   1     -12.478   8.144 128.478  0.00  0.00    +0.027 C 
BRANCH   5   7
ATOM      6  C   LIG A   1     -10.929   7.512 126.585  0.00  0.00    +0.004 C 
ATOM      7  C   LIG A   1     -11.117   8.380 127.822  0.00  0.00    +0.001 C 
ENDBRANCH   5   7
ENDBRANCH   1   5
TORSDOF 3
ENDMDL
MODEL 5
REMARK VINA RESULT:      -4.0      1.635      2.479
REMARK  Name = NuBBE_1384
REMARK  4 active torsions:
REMARK  status: ('A' for Active; 'I' for Inactive)
REMARK    1  A    between atoms: C_1  and  C_2
REMARK    2  A    between atoms: C_2  and  C_3
REMARK    3  A    between atoms: C_3  and  C_4
REMARK    4  A    between atoms: C_5  and  C_6
REMARK                            x       y       z     vdW  Elec       q    Type
REMARK                         _______ _______ _______ _____ _____    ______ ____
ROOT
ATOM      1  C   LIG A   1     -12.213   7.954 128.610  0.00  0.00    -0.024 C 
ATOM      2  C   LIG A   1     -11.171   8.332 127.853  0.00  0.00    +0.038 C 
ENDROOT
BRANCH   2   3
ATOM      3  C   LIG A   1     -10.947   7.716 126.530  0.00  0.00    +0.250 C 
ATOM      4  O   LIG A   1     -10.378   6.636 126.416  0.00  0.00    -0.296 OA
ENDBRANCH   2   3
BRANCH   1   5
ATOM      5  C   LIG A   1     -12.526   8.556 129.953  0.00  0.00    +0.027 C 
BRANCH   5   7
ATOM      6  C   LIG A   1     -11.746   6.620 131.377  0.00  0.00    +0.004 C 
ATOM      7  C   LIG A   1     -12.929   7.489 130.972  0.00  0.00    +0.001 C 
ENDBRANCH   5   7
ENDBRANCH   1   5
TORSDOF 3
ENDMDL
MODEL 6
REMARK VINA RESULT:      -3.9     13.553     14.564
REMARK  Name = NuBBE_1384
REMARK  4 active torsions:
REMARK  status: ('A' for Active; 'I' for Inactive)
REMARK    1  A    between atoms: C_1  and  C_2
REMARK    2  A    between atoms: C_2  and  C_3
REMARK    3  A    between atoms: C_3  and  C_4
REMARK    4  A    between atoms: C_5  and  C_6
REMARK                            x       y       z     vdW  Elec       q    Type
REMARK                         _______ _______ _______ _____ _____    ______ ____
ROOT
ATOM      1  C   LIG A   1      -6.010  -2.863 124.674  0.00  0.00    -0.024 C 
ATOM      2  C   LIG A   1      -5.661  -3.906 123.905  0.00  0.00    +0.038 C 
ENDROOT
BRANCH   2   3
ATOM      3  C   LIG A   1      -4.237  -4.213 123.663  0.00  0.00    +0.250 C 
ATOM      4  O   LIG A   1      -3.890  -5.267 123.143  0.00  0.00    -0.296 OA
ENDBRANCH   2   3
BRANCH   1   5
ATOM      5  C   LIG A   1      -7.437  -2.506 124.992  0.00  0.00    +0.027 C 
BRANCH   5   7
ATOM      6  C   LIG A   1      -9.351  -3.172 123.483  0.00  0.00    +0.004 C 
ATOM      7  C   LIG A   1      -8.403  -3.621 124.586  0.00  0.00    +0.001 C 
ENDBRANCH   5   7
ENDBRANCH   1   5
TORSDOF 3
ENDMDL
MODEL 7
REMARK VINA RESULT:      -3.8      3.109      4.075
REMARK  Name = NuBBE_1384
REMARK  4 active torsions:
REMARK  status: ('A' for Active; 'I' for Inactive)
REMARK    1  A    between atoms: C_1  and  C_2
REMARK    2  A    between atoms: C_2  and  C_3
REMARK    3  A    between atoms: C_3  and  C_4
REMARK    4  A    between atoms: C_5  and  C_6
REMARK                            x       y       z     vdW  Elec       q    Type
REMARK                         _______ _______ _______ _____ _____    ______ ____
ROOT
ATOM      1  C   LIG A   1     -12.161   7.845 129.993  0.00  0.00    -0.024 C 
ATOM      2  C   LIG A   1     -12.363   7.437 131.256  0.00  0.00    +0.038 C 
ENDROOT
BRANCH   2   3
ATOM      3  C   LIG A   1     -11.586   6.309 131.810  0.00  0.00    +0.250 C 
ATOM      4  O   LIG A   1     -10.648   6.496 132.577  0.00  0.00    -0.296 OA
ENDBRANCH   2   3
BRANCH   1   5
ATOM      5  C   LIG A   1     -12.888   9.004 129.368  0.00  0.00    +0.027 C 
BRANCH   5   7
ATOM      6  C   LIG A   1     -13.779   7.106 127.958  0.00  0.00    +0.004 C 
ATOM      7  C   LIG A   1     -13.554   8.608 128.048  0.00  0.00    +0.001 C 
ENDBRANCH   5   7
ENDBRANCH   1   5
TORSDOF 3
ENDMDL
MODEL 8
REMARK VINA RESULT:      -3.8     11.994     14.186
REMARK  Name = NuBBE_1384
REMARK  4 active torsions:
REMARK  status: ('A' for Active; 'I' for Inactive)
REMARK    1  A    between atoms: C_1  and  C_2
REMARK    2  A    between atoms: C_2  and  C_3
REMARK    3  A    between atoms: C_3  and  C_4
REMARK    4  A    between atoms: C_5  and  C_6
REMARK                            x       y       z     vdW  Elec       q    Type
REMARK                         _______ _______ _______ _____ _____    ______ ____
ROOT
ATOM      1  C   LIG A   1      -6.563  -1.737 123.175  0.00  0.00    -0.024 C 
ATOM      2  C   LIG A   1      -7.813  -2.098 122.845  0.00  0.00    +0.038 C 
ENDROOT
BRANCH   2   3
ATOM      3  C   LIG A   1      -8.946  -1.186 123.099  0.00  0.00    +0.250 C 
ATOM      4  O   LIG A   1      -9.511  -1.157 124.186  0.00  0.00    -0.296 OA
ENDBRANCH   2   3
BRANCH   1   5
ATOM      5  C   LIG A   1      -5.355  -2.595 122.920  0.00  0.00    +0.027 C 
BRANCH   5   7
ATOM      6  C   LIG A   1      -4.277  -4.799 123.526  0.00  0.00    +0.004 C 
ATOM      7  C   LIG A   1      -5.190  -3.674 123.992  0.00  0.00    +0.001 C 
ENDBRANCH   5   7
ENDBRANCH   1   5
TORSDOF 3
ENDMDL
MODEL 9
REMARK VINA RESULT:      -3.7     13.204     14.680
REMARK  Name = NuBBE_1384
REMARK  4 active torsions:
REMARK  status: ('A' for Active; 'I' for Inactive)
REMARK    1  A    between atoms: C_1  and  C_2
REMARK    2  A    between atoms: C_2  and  C_3
REMARK    3  A    between atoms: C_3  and  C_4
REMARK    4  A    between atoms: C_5  and  C_6
REMARK                            x       y       z     vdW  Elec       q    Type
REMARK                         _______ _______ _______ _____ _____    ______ ____
ROOT
ATOM      1  C   LIG A   1      -6.911  -2.567 124.081  0.00  0.00    -0.024 C 
ATOM      2  C   LIG A   1      -7.760  -3.548 124.424  0.00  0.00    +0.038 C 
ENDROOT
BRANCH   2   3
ATOM      3  C   LIG A   1      -8.928  -3.259 125.282  0.00  0.00    +0.250 C 
ATOM      4  O   LIG A   1      -8.960  -3.608 126.456  0.00  0.00    -0.296 OA
ENDBRANCH   2   3
BRANCH   1   5
ATOM      5  C   LIG A   1      -5.719  -2.776 123.187  0.00  0.00    +0.027 C 
BRANCH   5   7
ATOM      6  C   LIG A   1      -4.343  -4.879 123.449  0.00  0.00    +0.004 C 
ATOM      7  C   LIG A   1      -4.565  -3.452 123.930  0.00  0.00    +0.001 C 
ENDBRANCH   5   7
ENDBRANCH   1   5
TORSDOF 3
ENDMDL
