MODEL 1
REMARK VINA RESULT:      -5.2      0.000      0.000
REMARK  Name = NuBBE_1409
REMARK  9 active torsions:
REMARK  status: ('A' for Active; 'I' for Inactive)
REMARK    1  A    between atoms: C_1  and  C_2
REMARK    2  A    between atoms: C_2  and  C_3
REMARK    3  A    between atoms: C_4  and  C_5
REMARK    4  A    between atoms: C_5  and  C_6
REMARK    5  A    between atoms: C_6  and  C_7
REMARK    6  A    between atoms: C_7  and  C_8
REMARK    7  A    between atoms: C_7  and  C_9
REMARK    8  A    between atoms: C_9  and  C_10
REMARK    9  A    between atoms: C_10  and  O_11
REMARK                            x       y       z     vdW  Elec       q    Type
REMARK                         _______ _______ _______ _____ _____    ______ ____
ROOT
ATOM      1  C   LIG A   1     -13.026   6.690 129.437  0.00  0.00    +0.007 C 
ENDROOT
BRANCH   1   2
ATOM      2  C   LIG A   1     -13.403   7.627 128.263  0.00  0.00    -0.012 C 
ATOM      3  C   LIG A   1     -13.041   9.084 128.562  0.00  0.00    +0.007 C 
BRANCH   2   4
ATOM      4  C   LIG A   1     -12.718   7.128 126.972  0.00  0.00    +0.031 C 
BRANCH   4   5
ATOM      5  C   LIG A   1     -11.262   7.561 126.815  0.00  0.00    +0.156 C 
BRANCH   5   6
ATOM      6  O   LIG A   1     -10.516   6.525 126.185  0.00  0.00    -0.395 OA
ATOM      7  H   LIG A   1      -9.896   6.948 125.566  0.00  0.00    +0.209 HD
ENDBRANCH   5   6
ENDBRANCH   4   5
ENDBRANCH   2   4
ENDBRANCH   1   2
BRANCH   1   8
ATOM      8  C   LIG A   1     -12.769   7.420 130.762  0.00  0.00    +0.027 C 
BRANCH   8  12
ATOM      9  C   LIG A   1      -9.688   5.668 132.460  0.00  0.00    +0.038 C 
ATOM     10  C   LIG A   1     -10.484   6.493 131.477  0.00  0.00    -0.080 C 
ATOM     11  C   LIG A   1      -9.659   7.078 130.364  0.00  0.00    +0.038 C 
ATOM     12  C   LIG A   1     -11.810   6.654 131.634  0.00  0.00    -0.028 C 
ENDBRANCH   8  12
ENDBRANCH   1   8
TORSDOF 6
ENDMDL
MODEL 2
REMARK VINA RESULT:      -5.2     11.803     12.586
REMARK  Name = NuBBE_1409
REMARK  9 active torsions:
REMARK  status: ('A' for Active; 'I' for Inactive)
REMARK    1  A    between atoms: C_1  and  C_2
REMARK    2  A    between atoms: C_2  and  C_3
REMARK    3  A    between atoms: C_4  and  C_5
REMARK    4  A    between atoms: C_5  and  C_6
REMARK    5  A    between atoms: C_6  and  C_7
REMARK    6  A    between atoms: C_7  and  C_8
REMARK    7  A    between atoms: C_7  and  C_9
REMARK    8  A    between atoms: C_9  and  C_10
REMARK    9  A    between atoms: C_10  and  O_11
REMARK                            x       y       z     vdW  Elec       q    Type
REMARK                         _______ _______ _______ _____ _____    ______ ____
ROOT
ATOM      1  C   LIG A   1      -7.018  -3.678 124.196  0.00  0.00    +0.007 C 
ENDROOT
BRANCH   1   2
ATOM      2  C   LIG A   1      -6.067  -2.704 123.459  0.00  0.00    -0.012 C 
ATOM      3  C   LIG A   1      -6.064  -1.316 124.108  0.00  0.00    +0.007 C 
BRANCH   2   4
ATOM      4  C   LIG A   1      -4.647  -3.310 123.418  0.00  0.00    +0.031 C 
BRANCH   4   5
ATOM      5  C   LIG A   1      -4.557  -4.756 123.899  0.00  0.00    +0.156 C 
BRANCH   5   6
ATOM      6  O   LIG A   1      -4.082  -5.587 122.845  0.00  0.00    -0.395 OA
ATOM      7  H   LIG A   1      -3.485  -5.049 122.297  0.00  0.00    +0.209 HD
ENDBRANCH   5   6
ENDBRANCH   4   5
ENDBRANCH   2   4
ENDBRANCH   1   2
BRANCH   1   8
ATOM      8  C   LIG A   1      -8.315  -3.029 124.696  0.00  0.00    +0.027 C 
BRANCH   8  12
ATOM      9  C   LIG A   1      -8.759  -3.678 128.546  0.00  0.00    +0.038 C 
ATOM     10  C   LIG A   1      -8.293  -3.033 127.263  0.00  0.00    -0.080 C 
ATOM     11  C   LIG A   1      -7.392  -1.847 127.471  0.00  0.00    +0.038 C 
ATOM     12  C   LIG A   1      -8.681  -3.520 126.072  0.00  0.00    -0.028 C 
ENDBRANCH   8  12
ENDBRANCH   1   8
TORSDOF 6
ENDMDL
MODEL 3
REMARK VINA RESULT:      -5.1      2.594      3.493
REMARK  Name = NuBBE_1409
REMARK  9 active torsions:
REMARK  status: ('A' for Active; 'I' for Inactive)
REMARK    1  A    between atoms: C_1  and  C_2
REMARK    2  A    between atoms: C_2  and  C_3
REMARK    3  A    between atoms: C_4  and  C_5
REMARK    4  A    between atoms: C_5  and  C_6
REMARK    5  A    between atoms: C_6  and  C_7
REMARK    6  A    between atoms: C_7  and  C_8
REMARK    7  A    between atoms: C_7  and  C_9
REMARK    8  A    between atoms: C_9  and  C_10
REMARK    9  A    between atoms: C_10  and  O_11
REMARK                            x       y       z     vdW  Elec       q    Type
REMARK                         _______ _______ _______ _____ _____    ______ ____
ROOT
ATOM      1  C   LIG A   1     -11.172   8.581 128.360  0.00  0.00    +0.007 C 
ENDROOT
BRANCH   1   2
ATOM      2  C   LIG A   1     -12.681   8.902 128.494  0.00  0.00    -0.012 C 
ATOM      3  C   LIG A   1     -13.543   7.647 128.332  0.00  0.00    +0.007 C 
BRANCH   2   4
ATOM      4  C   LIG A   1     -12.937   9.591 129.852  0.00  0.00    +0.031 C 
BRANCH   4   5
ATOM      5  C   LIG A   1     -13.585  10.970 129.756  0.00  0.00    +0.156 C 
BRANCH   5   6
ATOM      6  O   LIG A   1     -13.389  11.681 130.974  0.00  0.00    -0.395 OA
ATOM      7  H   LIG A   1     -13.229  11.022 131.672  0.00  0.00    +0.209 HD
ENDBRANCH   5   6
ENDBRANCH   4   5
ENDBRANCH   2   4
ENDBRANCH   1   2
BRANCH   1   8
ATOM      8  C   LIG A   1     -10.838   7.087 128.469  0.00  0.00    +0.027 C 
BRANCH   8  12
ATOM      9  C   LIG A   1      -9.122   6.325 131.921  0.00  0.00    +0.038 C 
ATOM     10  C   LIG A   1     -10.211   6.562 130.902  0.00  0.00    -0.080 C 
ATOM     11  C   LIG A   1     -11.602   6.486 131.469  0.00  0.00    +0.038 C 
ATOM     12  C   LIG A   1      -9.903   6.814 129.618  0.00  0.00    -0.028 C 
ENDBRANCH   8  12
ENDBRANCH   1   8
TORSDOF 6
ENDMDL
MODEL 4
REMARK VINA RESULT:      -4.9     11.094     11.988
REMARK  Name = NuBBE_1409
REMARK  9 active torsions:
REMARK  status: ('A' for Active; 'I' for Inactive)
REMARK    1  A    between atoms: C_1  and  C_2
REMARK    2  A    between atoms: C_2  and  C_3
REMARK    3  A    between atoms: C_4  and  C_5
REMARK    4  A    between atoms: C_5  and  C_6
REMARK    5  A    between atoms: C_6  and  C_7
REMARK    6  A    between atoms: C_7  and  C_8
REMARK    7  A    between atoms: C_7  and  C_9
REMARK    8  A    between atoms: C_9  and  C_10
REMARK    9  A    between atoms: C_10  and  O_11
REMARK                            x       y       z     vdW  Elec       q    Type
REMARK                         _______ _______ _______ _____ _____    ______ ____
ROOT
ATOM      1  C   LIG A   1      -7.684  -1.751 126.819  0.00  0.00    +0.007 C 
ENDROOT
BRANCH   1   2
ATOM      2  C   LIG A   1      -8.343  -3.121 126.526  0.00  0.00    -0.012 C 
ATOM      3  C   LIG A   1      -8.750  -3.841 127.815  0.00  0.00    +0.007 C 
BRANCH   2   4
ATOM      4  C   LIG A   1      -9.553  -2.915 125.589  0.00  0.00    +0.031 C 
BRANCH   4   5
ATOM      5  C   LIG A   1      -9.296  -3.273 124.127  0.00  0.00    +0.156 C 
BRANCH   5   6
ATOM      6  O   LIG A   1      -9.699  -2.195 123.288  0.00  0.00    -0.395 OA
ATOM      7  H   LIG A   1      -9.994  -2.579 122.444  0.00  0.00    +0.209 HD
ENDBRANCH   5   6
ENDBRANCH   4   5
ENDBRANCH   2   4
ENDBRANCH   1   2
BRANCH   1   8
ATOM      8  C   LIG A   1      -6.635  -1.326 125.782  0.00  0.00    +0.027 C 
BRANCH   8  12
ATOM      9  C   LIG A   1      -4.660  -4.106 123.831  0.00  0.00    +0.038 C 
ATOM     10  C   LIG A   1      -5.514  -2.886 124.080  0.00  0.00    -0.080 C 
ATOM     11  C   LIG A   1      -5.979  -2.201 122.824  0.00  0.00    +0.038 C 
ATOM     12  C   LIG A   1      -5.799  -2.495 125.335  0.00  0.00    -0.028 C 
ENDBRANCH   8  12
ENDBRANCH   1   8
TORSDOF 6
ENDMDL
MODEL 5
REMARK VINA RESULT:      -4.8     10.568     11.373
REMARK  Name = NuBBE_1409
REMARK  9 active torsions:
REMARK  status: ('A' for Active; 'I' for Inactive)
REMARK    1  A    between atoms: C_1  and  C_2
REMARK    2  A    between atoms: C_2  and  C_3
REMARK    3  A    between atoms: C_4  and  C_5
REMARK    4  A    between atoms: C_5  and  C_6
REMARK    5  A    between atoms: C_6  and  C_7
REMARK    6  A    between atoms: C_7  and  C_8
REMARK    7  A    between atoms: C_7  and  C_9
REMARK    8  A    between atoms: C_9  and  C_10
REMARK    9  A    between atoms: C_10  and  O_11
REMARK                            x       y       z     vdW  Elec       q    Type
REMARK                         _______ _______ _______ _____ _____    ______ ____
ROOT
ATOM      1  C   LIG A   1      -8.795  -3.671 127.572  0.00  0.00    +0.007 C 
ENDROOT
BRANCH   1   2
ATOM      2  C   LIG A   1      -9.090  -2.921 126.250  0.00  0.00    -0.012 C 
ATOM      3  C   LIG A   1      -8.562  -1.484 126.284  0.00  0.00    +0.007 C 
BRANCH   2   4
ATOM      4  C   LIG A   1      -8.491  -3.714 125.068  0.00  0.00    +0.031 C 
BRANCH   4   5
ATOM      5  C   LIG A   1      -8.849  -3.170 123.687  0.00  0.00    +0.156 C 
BRANCH   5   6
ATOM      6  O   LIG A   1     -10.197  -3.503 123.371  0.00  0.00    -0.395 OA
ATOM      7  H   LIG A   1     -10.593  -3.898 124.168  0.00  0.00    +0.209 HD
ENDBRANCH   5   6
ENDBRANCH   4   5
ENDBRANCH   2   4
ENDBRANCH   1   2
BRANCH   1   8
ATOM      8  C   LIG A   1      -8.046  -2.831 128.615  0.00  0.00    +0.027 C 
BRANCH   8  12
ATOM      9  C   LIG A   1      -5.501  -4.743 130.918  0.00  0.00    +0.038 C 
ATOM     10  C   LIG A   1      -6.023  -3.789 129.871  0.00  0.00    -0.080 C 
ATOM     11  C   LIG A   1      -4.948  -2.994 129.182  0.00  0.00    +0.038 C 
ATOM     12  C   LIG A   1      -7.341  -3.703 129.620  0.00  0.00    -0.028 C 
ENDBRANCH   8  12
ENDBRANCH   1   8
TORSDOF 6
ENDMDL
MODEL 6
REMARK VINA RESULT:      -4.7      2.333      4.484
REMARK  Name = NuBBE_1409
REMARK  9 active torsions:
REMARK  status: ('A' for Active; 'I' for Inactive)
REMARK    1  A    between atoms: C_1  and  C_2
REMARK    2  A    between atoms: C_2  and  C_3
REMARK    3  A    between atoms: C_4  and  C_5
REMARK    4  A    between atoms: C_5  and  C_6
REMARK    5  A    between atoms: C_6  and  C_7
REMARK    6  A    between atoms: C_7  and  C_8
REMARK    7  A    between atoms: C_7  and  C_9
REMARK    8  A    between atoms: C_9  and  C_10
REMARK    9  A    between atoms: C_10  and  O_11
REMARK                            x       y       z     vdW  Elec       q    Type
REMARK                         _______ _______ _______ _____ _____    ______ ____
ROOT
ATOM      1  C   LIG A   1     -11.107   6.365 131.696  0.00  0.00    +0.007 C 
ENDROOT
BRANCH   1   2
ATOM      2  C   LIG A   1     -10.186   6.232 130.458  0.00  0.00    -0.012 C 
ATOM      3  C   LIG A   1      -8.929   7.097 130.592  0.00  0.00    +0.007 C 
BRANCH   2   4
ATOM      4  C   LIG A   1      -9.827   4.745 130.248  0.00  0.00    +0.031 C 
BRANCH   4   5
ATOM      5  C   LIG A   1     -10.991   3.774 130.436  0.00  0.00    +0.156 C 
BRANCH   5   6
ATOM      6  O   LIG A   1     -10.656   2.806 131.426  0.00  0.00    -0.395 OA
ATOM      7  H   LIG A   1     -10.579   1.947 130.977  0.00  0.00    +0.209 HD
ENDBRANCH   5   6
ENDBRANCH   4   5
ENDBRANCH   2   4
ENDBRANCH   1   2
BRANCH   1   8
ATOM      8  C   LIG A   1     -12.405   7.140 131.430  0.00  0.00    +0.027 C 
BRANCH   8  12
ATOM      9  C   LIG A   1     -13.578   7.475 127.695  0.00  0.00    +0.038 C 
ATOM     10  C   LIG A   1     -13.076   7.871 129.062  0.00  0.00    -0.080 C 
ATOM     11  C   LIG A   1     -12.833   9.347 129.217  0.00  0.00    +0.038 C 
ATOM     12  C   LIG A   1     -12.883   6.942 130.016  0.00  0.00    -0.028 C 
ENDBRANCH   8  12
ENDBRANCH   1   8
TORSDOF 6
ENDMDL
MODEL 7
REMARK VINA RESULT:      -4.7      2.395      3.112
REMARK  Name = NuBBE_1409
REMARK  9 active torsions:
REMARK  status: ('A' for Active; 'I' for Inactive)
REMARK    1  A    between atoms: C_1  and  C_2
REMARK    2  A    between atoms: C_2  and  C_3
REMARK    3  A    between atoms: C_4  and  C_5
REMARK    4  A    between atoms: C_5  and  C_6
REMARK    5  A    between atoms: C_6  and  C_7
REMARK    6  A    between atoms: C_7  and  C_8
REMARK    7  A    between atoms: C_7  and  C_9
REMARK    8  A    between atoms: C_9  and  C_10
REMARK    9  A    between atoms: C_10  and  O_11
REMARK                            x       y       z     vdW  Elec       q    Type
REMARK                         _______ _______ _______ _____ _____    ______ ____
ROOT
ATOM      1  C   LIG A   1     -13.014   7.528 130.728  0.00  0.00    +0.007 C 
ENDROOT
BRANCH   1   2
ATOM      2  C   LIG A   1     -12.654   7.691 129.231  0.00  0.00    -0.012 C 
ATOM      3  C   LIG A   1     -13.647   6.955 128.327  0.00  0.00    +0.007 C 
BRANCH   2   4
ATOM      4  C   LIG A   1     -12.582   9.194 128.884  0.00  0.00    +0.031 C 
BRANCH   4   5
ATOM      5  C   LIG A   1     -13.200  10.121 129.928  0.00  0.00    +0.156 C 
BRANCH   5   6
ATOM      6  O   LIG A   1     -13.185  11.462 129.452  0.00  0.00    -0.395 OA
ATOM      7  H   LIG A   1     -14.090  11.681 129.170  0.00  0.00    +0.209 HD
ENDBRANCH   5   6
ENDBRANCH   4   5
ENDBRANCH   2   4
ENDBRANCH   1   2
BRANCH   1   8
ATOM      8  C   LIG A   1     -11.965   6.762 131.545  0.00  0.00    +0.027 C 
BRANCH   8  12
ATOM      9  C   LIG A   1      -9.003   5.226 129.469  0.00  0.00    +0.038 C 
ATOM     10  C   LIG A   1     -10.284   5.305 130.263  0.00  0.00    -0.080 C 
ATOM     11  C   LIG A   1     -10.962   3.976 130.458  0.00  0.00    +0.038 C 
ATOM     12  C   LIG A   1     -10.729   6.485 130.730  0.00  0.00    -0.028 C 
ENDBRANCH   8  12
ENDBRANCH   1   8
TORSDOF 6
ENDMDL
MODEL 8
REMARK VINA RESULT:      -4.6      1.528      2.415
REMARK  Name = NuBBE_1409
REMARK  9 active torsions:
REMARK  status: ('A' for Active; 'I' for Inactive)
REMARK    1  A    between atoms: C_1  and  C_2
REMARK    2  A    between atoms: C_2  and  C_3
REMARK    3  A    between atoms: C_4  and  C_5
REMARK    4  A    between atoms: C_5  and  C_6
REMARK    5  A    between atoms: C_6  and  C_7
REMARK    6  A    between atoms: C_7  and  C_8
REMARK    7  A    between atoms: C_7  and  C_9
REMARK    8  A    between atoms: C_9  and  C_10
REMARK    9  A    between atoms: C_10  and  O_11
REMARK                            x       y       z     vdW  Elec       q    Type
REMARK                         _______ _______ _______ _____ _____    ______ ____
ROOT
ATOM      1  C   LIG A   1     -11.151   6.348 129.597  0.00  0.00    +0.007 C 
ENDROOT
BRANCH   1   2
ATOM      2  C   LIG A   1     -12.625   6.825 129.590  0.00  0.00    -0.012 C 
ATOM      3  C   LIG A   1     -12.924   7.757 130.768  0.00  0.00    +0.007 C 
BRANCH   2   4
ATOM      4  C   LIG A   1     -12.934   7.506 128.239  0.00  0.00    +0.031 C 
BRANCH   4   5
ATOM      5  C   LIG A   1     -11.769   7.526 127.253  0.00  0.00    +0.156 C 
BRANCH   5   6
ATOM      6  O   LIG A   1     -12.034   6.635 126.174  0.00  0.00    -0.395 OA
ATOM      7  H   LIG A   1     -12.972   6.736 125.938  0.00  0.00    +0.209 HD
ENDBRANCH   5   6
ENDBRANCH   4   5
ENDBRANCH   2   4
ENDBRANCH   1   2
BRANCH   1   8
ATOM      8  C   LIG A   1     -10.405   6.638 130.906  0.00  0.00    +0.027 C 
BRANCH   8  12
ATOM      9  C   LIG A   1      -6.496   7.021 131.011  0.00  0.00    +0.038 C 
ATOM     10  C   LIG A   1      -7.892   6.628 131.429  0.00  0.00    -0.080 C 
ATOM     11  C   LIG A   1      -7.951   5.897 132.743  0.00  0.00    +0.038 C 
ATOM     12  C   LIG A   1      -8.949   6.931 130.656  0.00  0.00    -0.028 C 
ENDBRANCH   8  12
ENDBRANCH   1   8
TORSDOF 6
ENDMDL
MODEL 9
REMARK VINA RESULT:      -4.5     10.998     12.237
REMARK  Name = NuBBE_1409
REMARK  9 active torsions:
REMARK  status: ('A' for Active; 'I' for Inactive)
REMARK    1  A    between atoms: C_1  and  C_2
REMARK    2  A    between atoms: C_2  and  C_3
REMARK    3  A    between atoms: C_4  and  C_5
REMARK    4  A    between atoms: C_5  and  C_6
REMARK    5  A    between atoms: C_6  and  C_7
REMARK    6  A    between atoms: C_7  and  C_8
REMARK    7  A    between atoms: C_7  and  C_9
REMARK    8  A    between atoms: C_9  and  C_10
REMARK    9  A    between atoms: C_10  and  O_11
REMARK                            x       y       z     vdW  Elec       q    Type
REMARK                         _______ _______ _______ _____ _____    ______ ____
ROOT
ATOM      1  C   LIG A   1      -5.911  -1.404 124.475  0.00  0.00    +0.007 C 
ENDROOT
BRANCH   1   2
ATOM      2  C   LIG A   1      -5.881  -2.952 124.505  0.00  0.00    -0.012 C 
ATOM      3  C   LIG A   1      -7.289  -3.548 124.411  0.00  0.00    +0.007 C 
BRANCH   2   4
ATOM      4  C   LIG A   1      -4.974  -3.466 123.366  0.00  0.00    +0.031 C 
BRANCH   4   5
ATOM      5  C   LIG A   1      -4.025  -4.593 123.765  0.00  0.00    +0.156 C 
BRANCH   5   6
ATOM      6  O   LIG A   1      -4.126  -5.663 122.830  0.00  0.00    -0.395 OA
ATOM      7  H   LIG A   1      -3.257  -5.758 122.402  0.00  0.00    +0.209 HD
ENDBRANCH   5   6
ENDBRANCH   4   5
ENDBRANCH   2   4
ENDBRANCH   1   2
BRANCH   1   8
ATOM      8  C   LIG A   1      -6.727  -0.816 123.316  0.00  0.00    +0.027 C 
BRANCH   8  12
ATOM      9  C   LIG A   1      -8.742   2.260 124.702  0.00  0.00    +0.038 C 
ATOM     10  C   LIG A   1      -8.317   0.828 124.483  0.00  0.00    -0.080 C 
ATOM     11  C   LIG A   1      -9.142  -0.175 125.242  0.00  0.00    +0.038 C 
ATOM     12  C   LIG A   1      -7.287   0.537 123.669  0.00  0.00    -0.028 C 
ENDBRANCH   8  12
ENDBRANCH   1   8
TORSDOF 6
ENDMDL
