MODEL 1
REMARK VINA RESULT:      -7.0      0.000      0.000
REMARK  Name = NuBBE_2223
REMARK  6 active torsions:
REMARK  status: ('A' for Active; 'I' for Inactive)
REMARK    1  A    between atoms: O_1  and  C_2
REMARK    2  A    between atoms: O_1  and  C_3
REMARK    3  A    between atoms: C_8  and  O_9
REMARK    4  A    between atoms: O_9  and  C_10
REMARK    5  A    between atoms: C_11  and  O_15
REMARK    6  A    between atoms: C_12  and  O_14
REMARK                            x       y       z     vdW  Elec       q    Type
REMARK                         _______ _______ _______ _____ _____    ______ ____
ROOT
ATOM      1  C   LIG A   1      -9.005  -2.367 124.978  0.00  0.00    +0.164 C 
ATOM      2  C   LIG A   1      -8.056  -1.506 125.374  0.00  0.00    +0.038 C 
ATOM      3  C   LIG A   1      -6.959  -0.904 124.505  0.00  0.00    +0.036 C 
ATOM      4  C   LIG A   1      -7.086   0.631 124.545  0.00  0.00    -0.023 A 
ATOM      5  C   LIG A   1      -6.279   1.436 125.397  0.00  0.00    +0.003 A 
ATOM      6  C   LIG A   1      -6.504   2.835 125.469  0.00  0.00    +0.168 A 
ATOM      7  C   LIG A   1      -7.540   3.402 124.723  0.00  0.00    +0.201 A 
ATOM      8  C   LIG A   1      -8.297   2.619 123.860  0.00  0.00    +0.162 A 
ATOM      9  C   LIG A   1      -8.095   1.253 123.780  0.00  0.00    +0.054 A 
ATOM     10  C   LIG A   1      -5.133   0.831 126.183  0.00  0.00    +0.039 C 
ATOM     11  C   LIG A   1      -5.208  -0.683 126.352  0.00  0.00    +0.006 C 
ATOM     12  C   LIG A   1      -5.577  -1.360 125.038  0.00  0.00    +0.020 C 
ATOM     13  C   LIG A   1      -7.055  -1.424 123.079  0.00  0.00    -0.007 C 
ATOM     14  C   LIG A   1      -7.982  -2.289 122.646  0.00  0.00    +0.051 C 
ATOM     15  C   LIG A   1      -9.023  -2.836 123.550  0.00  0.00    +0.220 C 
ATOM     16  O   LIG A   1      -9.834  -3.636 123.106  0.00  0.00    -0.284 OA
ENDROOT
BRANCH   1  17
ATOM     17  O   LIG A   1      -9.904  -2.827 125.931  0.00  0.00    -0.492 OA
ATOM     18  C   LIG A   1      -9.333  -3.538 127.025  0.00  0.00    +0.277 C 
ENDBRANCH   1  17
BRANCH   6  19
ATOM     19  O   LIG A   1      -5.749   3.549 126.368  0.00  0.00    -0.491 OA
ATOM     20  C   LIG A   1      -4.651   4.279 125.819  0.00  0.00    +0.277 C 
ENDBRANCH   6  19
BRANCH   8  21
ATOM     21  O   LIG A   1      -9.297   3.186 123.122  0.00  0.00    -0.503 OA
ATOM     22  H   LIG A   1      -9.333   4.114 123.427  0.00  0.00    +0.292 HD
ENDBRANCH   8  21
BRANCH   7  23
ATOM     23  O   LIG A   1      -7.946   4.703 124.860  0.00  0.00    -0.501 OA
ATOM     24  H   LIG A   1      -8.176   4.989 123.956  0.00  0.00    +0.292 HD
ENDBRANCH   7  23
TORSDOF 4
ENDMDL
MODEL 2
REMARK VINA RESULT:      -6.8      1.922      6.311
REMARK  Name = NuBBE_2223
REMARK  6 active torsions:
REMARK  status: ('A' for Active; 'I' for Inactive)
REMARK    1  A    between atoms: O_1  and  C_2
REMARK    2  A    between atoms: O_1  and  C_3
REMARK    3  A    between atoms: C_8  and  O_9
REMARK    4  A    between atoms: O_9  and  C_10
REMARK    5  A    between atoms: C_11  and  O_15
REMARK    6  A    between atoms: C_12  and  O_14
REMARK                            x       y       z     vdW  Elec       q    Type
REMARK                         _______ _______ _______ _____ _____    ______ ____
ROOT
ATOM      1  C   LIG A   1      -7.701   4.420 125.623  0.00  0.00    +0.164 C 
ATOM      2  C   LIG A   1      -8.254   3.328 125.076  0.00  0.00    +0.038 C 
ATOM      3  C   LIG A   1      -7.691   2.508 123.922  0.00  0.00    +0.036 C 
ATOM      4  C   LIG A   1      -7.496   1.056 124.398  0.00  0.00    -0.023 A 
ATOM      5  C   LIG A   1      -8.443   0.033 124.117  0.00  0.00    +0.003 A 
ATOM      6  C   LIG A   1      -8.265  -1.264 124.663  0.00  0.00    +0.168 A 
ATOM      7  C   LIG A   1      -7.174  -1.512 125.499  0.00  0.00    +0.201 A 
ATOM      8  C   LIG A   1      -6.229  -0.523 125.736  0.00  0.00    +0.162 A 
ATOM      9  C   LIG A   1      -6.387   0.749 125.215  0.00  0.00    +0.054 A 
ATOM     10  C   LIG A   1      -9.611   0.288 123.185  0.00  0.00    +0.039 C 
ATOM     11  C   LIG A   1      -9.940   1.761 122.967  0.00  0.00    +0.006 C 
ATOM     12  C   LIG A   1      -8.672   2.572 122.724  0.00  0.00    +0.020 C 
ATOM     13  C   LIG A   1      -6.381   3.103 123.427  0.00  0.00    -0.007 C 
ATOM     14  C   LIG A   1      -5.800   4.195 123.941  0.00  0.00    +0.051 C 
ATOM     15  C   LIG A   1      -6.406   4.946 125.068  0.00  0.00    +0.220 C 
ATOM     16  O   LIG A   1      -5.841   5.946 125.487  0.00  0.00    -0.284 OA
ENDROOT
BRANCH   1  17
ATOM     17  O   LIG A   1      -8.385   5.048 126.655  0.00  0.00    -0.492 OA
ATOM     18  C   LIG A   1      -8.127   4.544 127.962  0.00  0.00    +0.277 C 
ENDBRANCH   1  17
BRANCH   6  19
ATOM     19  O   LIG A   1      -9.254  -2.189 124.425  0.00  0.00    -0.491 OA
ATOM     20  C   LIG A   1      -8.956  -3.179 123.440  0.00  0.00    +0.277 C 
ENDBRANCH   6  19
BRANCH   8  21
ATOM     21  O   LIG A   1      -5.156  -0.780 126.541  0.00  0.00    -0.503 OA
ATOM     22  H   LIG A   1      -4.681  -1.509 126.094  0.00  0.00    +0.292 HD
ENDBRANCH   8  21
BRANCH   7  23
ATOM     23  O   LIG A   1      -7.016  -2.672 126.210  0.00  0.00    -0.501 OA
ATOM     24  H   LIG A   1      -6.389  -2.445 126.922  0.00  0.00    +0.292 HD
ENDBRANCH   7  23
TORSDOF 4
ENDMDL
MODEL 3
REMARK VINA RESULT:      -6.6      2.793      4.282
REMARK  Name = NuBBE_2223
REMARK  6 active torsions:
REMARK  status: ('A' for Active; 'I' for Inactive)
REMARK    1  A    between atoms: O_1  and  C_2
REMARK    2  A    between atoms: O_1  and  C_3
REMARK    3  A    between atoms: C_8  and  O_9
REMARK    4  A    between atoms: O_9  and  C_10
REMARK    5  A    between atoms: C_11  and  O_15
REMARK    6  A    between atoms: C_12  and  O_14
REMARK                            x       y       z     vdW  Elec       q    Type
REMARK                         _______ _______ _______ _____ _____    ______ ____
ROOT
ATOM      1  C   LIG A   1      -5.665  -2.554 128.526  0.00  0.00    +0.164 C 
ATOM      2  C   LIG A   1      -5.881  -2.025 127.312  0.00  0.00    +0.038 C 
ATOM      3  C   LIG A   1      -7.187  -2.060 126.528  0.00  0.00    +0.036 C 
ATOM      4  C   LIG A   1      -7.624  -0.612 126.234  0.00  0.00    -0.023 A 
ATOM      5  C   LIG A   1      -7.371   0.016 124.983  0.00  0.00    +0.003 A 
ATOM      6  C   LIG A   1      -7.705   1.382 124.798  0.00  0.00    +0.168 A 
ATOM      7  C   LIG A   1      -8.252   2.104 125.862  0.00  0.00    +0.201 A 
ATOM      8  C   LIG A   1      -8.537   1.476 127.067  0.00  0.00    +0.162 A 
ATOM      9  C   LIG A   1      -8.214   0.146 127.267  0.00  0.00    +0.054 A 
ATOM     10  C   LIG A   1      -6.809  -0.771 123.816  0.00  0.00    +0.039 C 
ATOM     11  C   LIG A   1      -6.131  -2.082 124.202  0.00  0.00    +0.006 C 
ATOM     12  C   LIG A   1      -6.971  -2.852 125.214  0.00  0.00    +0.020 C 
ATOM     13  C   LIG A   1      -8.261  -2.810 127.302  0.00  0.00    -0.007 C 
ATOM     14  C   LIG A   1      -8.083  -3.358 128.511  0.00  0.00    +0.051 C 
ATOM     15  C   LIG A   1      -6.781  -3.285 129.219  0.00  0.00    +0.220 C 
ATOM     16  O   LIG A   1      -6.670  -3.818 130.314  0.00  0.00    -0.284 OA
ENDROOT
BRANCH   1  17
ATOM     17  O   LIG A   1      -4.391  -2.442 129.067  0.00  0.00    -0.492 OA
ATOM     18  C   LIG A   1      -3.574  -3.603 128.965  0.00  0.00    +0.277 C 
ENDBRANCH   1  17
BRANCH   6  19
ATOM     19  O   LIG A   1      -7.364   1.957 123.597  0.00  0.00    -0.491 OA
ATOM     20  C   LIG A   1      -8.454   2.366 122.770  0.00  0.00    +0.277 C 
ENDBRANCH   6  19
BRANCH   8  21
ATOM     21  O   LIG A   1      -9.087   2.187 128.096  0.00  0.00    -0.503 OA
ATOM     22  H   LIG A   1      -9.620   2.881 127.658  0.00  0.00    +0.292 HD
ENDBRANCH   8  21
BRANCH   7  23
ATOM     23  O   LIG A   1      -8.440   3.461 125.835  0.00  0.00    -0.501 OA
ATOM     24  H   LIG A   1      -8.608   3.707 126.765  0.00  0.00    +0.292 HD
ENDBRANCH   7  23
TORSDOF 4
ENDMDL
MODEL 4
REMARK VINA RESULT:      -6.5      3.229      5.922
REMARK  Name = NuBBE_2223
REMARK  6 active torsions:
REMARK  status: ('A' for Active; 'I' for Inactive)
REMARK    1  A    between atoms: O_1  and  C_2
REMARK    2  A    between atoms: O_1  and  C_3
REMARK    3  A    between atoms: C_8  and  O_9
REMARK    4  A    between atoms: O_9  and  C_10
REMARK    5  A    between atoms: C_11  and  O_15
REMARK    6  A    between atoms: C_12  and  O_14
REMARK                            x       y       z     vdW  Elec       q    Type
REMARK                         _______ _______ _______ _____ _____    ______ ____
ROOT
ATOM      1  C   LIG A   1      -5.015  -2.035 129.203  0.00  0.00    +0.164 C 
ATOM      2  C   LIG A   1      -6.070  -2.416 128.467  0.00  0.00    +0.038 C 
ATOM      3  C   LIG A   1      -7.495  -1.892 128.587  0.00  0.00    +0.036 C 
ATOM      4  C   LIG A   1      -7.917  -1.298 127.229  0.00  0.00    -0.023 A 
ATOM      5  C   LIG A   1      -8.705  -2.027 126.296  0.00  0.00    +0.003 A 
ATOM      6  C   LIG A   1      -8.982  -1.472 125.019  0.00  0.00    +0.168 A 
ATOM      7  C   LIG A   1      -8.448  -0.226 124.683  0.00  0.00    +0.201 A 
ATOM      8  C   LIG A   1      -7.716   0.501 125.613  0.00  0.00    +0.162 A 
ATOM      9  C   LIG A   1      -7.433  -0.025 126.860  0.00  0.00    +0.054 A 
ATOM     10  C   LIG A   1      -9.313  -3.364 126.667  0.00  0.00    +0.039 C 
ATOM     11  C   LIG A   1      -8.663  -4.047 127.866  0.00  0.00    +0.006 C 
ATOM     12  C   LIG A   1      -8.434  -3.054 128.999  0.00  0.00    +0.020 C 
ATOM     13  C   LIG A   1      -7.596  -0.853 129.694  0.00  0.00    -0.007 C 
ATOM     14  C   LIG A   1      -6.570  -0.451 130.455  0.00  0.00    +0.051 C 
ATOM     15  C   LIG A   1      -5.205  -1.006 130.283  0.00  0.00    +0.220 C 
ATOM     16  O   LIG A   1      -4.308  -0.615 131.016  0.00  0.00    -0.284 OA
ENDROOT
BRANCH   1  17
ATOM     17  O   LIG A   1      -3.796  -2.654 128.961  0.00  0.00    -0.492 OA
ATOM     18  C   LIG A   1      -3.521  -3.804 129.754  0.00  0.00    +0.277 C 
ENDBRANCH   1  17
BRANCH   6  19
ATOM     19  O   LIG A   1      -9.678  -2.255 124.130  0.00  0.00    -0.491 OA
ATOM     20  C   LIG A   1      -8.885  -3.039 123.237  0.00  0.00    +0.277 C 
ENDBRANCH   6  19
BRANCH   8  21
ATOM     21  O   LIG A   1      -7.213   1.727 125.281  0.00  0.00    -0.503 OA
ATOM     22  H   LIG A   1      -6.778   2.044 126.097  0.00  0.00    +0.292 HD
ENDBRANCH   8  21
BRANCH   7  23
ATOM     23  O   LIG A   1      -8.511   0.308 123.423  0.00  0.00    -0.501 OA
ATOM     24  H   LIG A   1      -8.595   1.270 123.564  0.00  0.00    +0.292 HD
ENDBRANCH   7  23
TORSDOF 4
ENDMDL
MODEL 5
REMARK VINA RESULT:      -6.3      1.818      3.687
REMARK  Name = NuBBE_2223
REMARK  6 active torsions:
REMARK  status: ('A' for Active; 'I' for Inactive)
REMARK    1  A    between atoms: O_1  and  C_2
REMARK    2  A    between atoms: O_1  and  C_3
REMARK    3  A    between atoms: C_8  and  O_9
REMARK    4  A    between atoms: O_9  and  C_10
REMARK    5  A    between atoms: C_11  and  O_15
REMARK    6  A    between atoms: C_12  and  O_14
REMARK                            x       y       z     vdW  Elec       q    Type
REMARK                         _______ _______ _______ _____ _____    ______ ____
ROOT
ATOM      1  C   LIG A   1      -7.536  -1.857 124.156  0.00  0.00    +0.164 C 
ATOM      2  C   LIG A   1      -7.578  -0.550 123.857  0.00  0.00    +0.038 C 
ATOM      3  C   LIG A   1      -8.184   0.556 124.712  0.00  0.00    +0.036 C 
ATOM      4  C   LIG A   1      -7.089   1.594 125.023  0.00  0.00    -0.023 A 
ATOM      5  C   LIG A   1      -6.960   2.803 124.286  0.00  0.00    +0.003 A 
ATOM      6  C   LIG A   1      -5.874   3.679 124.547  0.00  0.00    +0.168 A 
ATOM      7  C   LIG A   1      -4.925   3.324 125.508  0.00  0.00    +0.201 A 
ATOM      8  C   LIG A   1      -5.078   2.164 126.256  0.00  0.00    +0.162 A 
ATOM      9  C   LIG A   1      -6.127   1.296 126.012  0.00  0.00    +0.054 A 
ATOM     10  C   LIG A   1      -8.005   3.208 123.265  0.00  0.00    +0.039 C 
ATOM     11  C   LIG A   1      -8.892   2.067 122.778  0.00  0.00    +0.006 C 
ATOM     12  C   LIG A   1      -9.362   1.206 123.944  0.00  0.00    +0.020 C 
ATOM     13  C   LIG A   1      -8.777  -0.015 125.991  0.00  0.00    -0.007 C 
ATOM     14  C   LIG A   1      -8.762  -1.313 126.322  0.00  0.00    +0.051 C 
ATOM     15  C   LIG A   1      -8.153  -2.338 125.440  0.00  0.00    +0.220 C 
ATOM     16  O   LIG A   1      -8.181  -3.511 125.784  0.00  0.00    -0.284 OA
ENDROOT
BRANCH   1  17
ATOM     17  O   LIG A   1      -6.962  -2.718 123.229  0.00  0.00    -0.492 OA
ATOM     18  C   LIG A   1      -5.542  -2.817 123.279  0.00  0.00    +0.277 C 
ENDBRANCH   1  17
BRANCH   6  19
ATOM     19  O   LIG A   1      -5.756   4.791 123.749  0.00  0.00    -0.491 OA
ATOM     20  C   LIG A   1      -5.027   4.610 122.533  0.00  0.00    +0.277 C 
ENDBRANCH   6  19
BRANCH   8  21
ATOM     21  O   LIG A   1      -4.153   1.834 127.205  0.00  0.00    -0.503 OA
ATOM     22  H   LIG A   1      -4.489   2.241 128.028  0.00  0.00    +0.292 HD
ENDBRANCH   8  21
BRANCH   7  23
ATOM     23  O   LIG A   1      -3.756   4.011 125.704  0.00  0.00    -0.501 OA
ATOM     24  H   LIG A   1      -4.020   4.821 126.181  0.00  0.00    +0.292 HD
ENDBRANCH   7  23
TORSDOF 4
ENDMDL
MODEL 6
REMARK VINA RESULT:      -6.2      6.688      9.878
REMARK  Name = NuBBE_2223
REMARK  6 active torsions:
REMARK  status: ('A' for Active; 'I' for Inactive)
REMARK    1  A    between atoms: O_1  and  C_2
REMARK    2  A    between atoms: O_1  and  C_3
REMARK    3  A    between atoms: C_8  and  O_9
REMARK    4  A    between atoms: O_9  and  C_10
REMARK    5  A    between atoms: C_11  and  O_15
REMARK    6  A    between atoms: C_12  and  O_14
REMARK                            x       y       z     vdW  Elec       q    Type
REMARK                         _______ _______ _______ _____ _____    ______ ____
ROOT
ATOM      1  C   LIG A   1      -3.779   5.410 129.315  0.00  0.00    +0.164 C 
ATOM      2  C   LIG A   1      -4.391   5.280 130.502  0.00  0.00    +0.038 C 
ATOM      3  C   LIG A   1      -4.717   6.402 131.480  0.00  0.00    +0.036 C 
ATOM      4  C   LIG A   1      -6.239   6.414 131.724  0.00  0.00    -0.023 A 
ATOM      5  C   LIG A   1      -6.828   5.807 132.867  0.00  0.00    +0.003 A 
ATOM      6  C   LIG A   1      -8.240   5.760 132.994  0.00  0.00    +0.168 A 
ATOM      7  C   LIG A   1      -9.037   6.286 131.975  0.00  0.00    +0.201 A 
ATOM      8  C   LIG A   1      -8.458   6.917 130.881  0.00  0.00    +0.162 A 
ATOM      9  C   LIG A   1      -7.083   6.969 130.739  0.00  0.00    +0.054 A 
ATOM     10  C   LIG A   1      -5.968   5.263 133.990  0.00  0.00    +0.039 C 
ATOM     11  C   LIG A   1      -4.514   5.003 133.608  0.00  0.00    +0.006 C 
ATOM     12  C   LIG A   1      -3.946   6.165 132.803  0.00  0.00    +0.020 C 
ATOM     13  C   LIG A   1      -4.237   7.742 130.944  0.00  0.00    -0.007 C 
ATOM     14  C   LIG A   1      -3.617   7.913 129.769  0.00  0.00    +0.051 C 
ATOM     15  C   LIG A   1      -3.330   6.773 128.864  0.00  0.00    +0.220 C 
ATOM     16  O   LIG A   1      -2.747   6.983 127.810  0.00  0.00    -0.284 OA
ENDROOT
BRANCH   1  17
ATOM     17  O   LIG A   1      -3.544   4.259 128.575  0.00  0.00    -0.492 OA
ATOM     18  C   LIG A   1      -4.589   3.872 127.689  0.00  0.00    +0.277 C 
ENDBRANCH   1  17
BRANCH   6  19
ATOM     19  O   LIG A   1      -8.753   5.089 134.078  0.00  0.00    -0.491 OA
ATOM     20  C   LIG A   1      -9.084   3.716 133.861  0.00  0.00    +0.277 C 
ENDBRANCH   6  19
BRANCH   8  21
ATOM     21  O   LIG A   1      -9.246   7.444 129.898  0.00  0.00    -0.503 OA
ATOM     22  H   LIG A   1     -10.084   7.672 130.350  0.00  0.00    +0.292 HD
ENDBRANCH   8  21
BRANCH   7  23
ATOM     23  O   LIG A   1     -10.397   6.130 131.923  0.00  0.00    -0.501 OA
ATOM     24  H   LIG A   1     -10.752   7.039 131.903  0.00  0.00    +0.292 HD
ENDBRANCH   7  23
TORSDOF 4
ENDMDL
MODEL 7
REMARK VINA RESULT:      -5.9      4.720      7.689
REMARK  Name = NuBBE_2223
REMARK  6 active torsions:
REMARK  status: ('A' for Active; 'I' for Inactive)
REMARK    1  A    between atoms: O_1  and  C_2
REMARK    2  A    between atoms: O_1  and  C_3
REMARK    3  A    between atoms: C_8  and  O_9
REMARK    4  A    between atoms: O_9  and  C_10
REMARK    5  A    between atoms: C_11  and  O_15
REMARK    6  A    between atoms: C_12  and  O_14
REMARK                            x       y       z     vdW  Elec       q    Type
REMARK                         _______ _______ _______ _____ _____    ______ ____
ROOT
ATOM      1  C   LIG A   1      -3.360   5.305 130.445  0.00  0.00    +0.164 C 
ATOM      2  C   LIG A   1      -3.520   4.987 129.152  0.00  0.00    +0.038 C 
ATOM      3  C   LIG A   1      -3.948   3.633 128.598  0.00  0.00    +0.036 C 
ATOM      4  C   LIG A   1      -5.231   3.825 127.768  0.00  0.00    -0.023 A 
ATOM      5  C   LIG A   1      -5.206   3.932 126.350  0.00  0.00    +0.003 A 
ATOM      6  C   LIG A   1      -6.404   4.207 125.641  0.00  0.00    +0.168 A 
ATOM      7  C   LIG A   1      -7.592   4.401 126.350  0.00  0.00    +0.201 A 
ATOM      8  C   LIG A   1      -7.619   4.252 127.731  0.00  0.00    +0.162 A 
ATOM      9  C   LIG A   1      -6.461   3.988 128.439  0.00  0.00    +0.054 A 
ATOM     10  C   LIG A   1      -3.928   3.691 125.573  0.00  0.00    +0.039 C 
ATOM     11  C   LIG A   1      -2.652   3.791 126.403  0.00  0.00    +0.006 C 
ATOM     12  C   LIG A   1      -2.804   3.054 127.727  0.00  0.00    +0.020 C 
ATOM     13  C   LIG A   1      -4.168   2.635 129.725  0.00  0.00    -0.007 C 
ATOM     14  C   LIG A   1      -4.013   2.911 131.027  0.00  0.00    +0.051 C 
ATOM     15  C   LIG A   1      -3.593   4.255 131.496  0.00  0.00    +0.220 C 
ATOM     16  O   LIG A   1      -3.451   4.447 132.695  0.00  0.00    -0.284 OA
ENDROOT
BRANCH   1  17
ATOM     17  O   LIG A   1      -2.935   6.591 130.751  0.00  0.00    -0.492 OA
ATOM     18  C   LIG A   1      -3.921   7.611 130.627  0.00  0.00    +0.277 C 
ENDBRANCH   1  17
BRANCH   6  19
ATOM     19  O   LIG A   1      -6.305   4.381 124.281  0.00  0.00    -0.491 OA
ATOM     20  C   LIG A   1      -6.790   3.303 123.479  0.00  0.00    +0.277 C 
ENDBRANCH   6  19
BRANCH   8  21
ATOM     21  O   LIG A   1      -8.789   4.426 128.414  0.00  0.00    -0.503 OA
ATOM     22  H   LIG A   1      -9.085   5.326 128.171  0.00  0.00    +0.292 HD
ENDBRANCH   8  21
BRANCH   7  23
ATOM     23  O   LIG A   1      -8.753   4.842 125.773  0.00  0.00    -0.501 OA
ATOM     24  H   LIG A   1      -9.350   5.024 126.523  0.00  0.00    +0.292 HD
ENDBRANCH   7  23
TORSDOF 4
ENDMDL
MODEL 8
REMARK VINA RESULT:      -5.9      2.507      6.984
REMARK  Name = NuBBE_2223
REMARK  6 active torsions:
REMARK  status: ('A' for Active; 'I' for Inactive)
REMARK    1  A    between atoms: O_1  and  C_2
REMARK    2  A    between atoms: O_1  and  C_3
REMARK    3  A    between atoms: C_8  and  O_9
REMARK    4  A    between atoms: O_9  and  C_10
REMARK    5  A    between atoms: C_11  and  O_15
REMARK    6  A    between atoms: C_12  and  O_14
REMARK                            x       y       z     vdW  Elec       q    Type
REMARK                         _______ _______ _______ _____ _____    ______ ____
ROOT
ATOM      1  C   LIG A   1      -4.782   4.817 128.214  0.00  0.00    +0.164 C 
ATOM      2  C   LIG A   1      -5.395   4.238 127.172  0.00  0.00    +0.038 C 
ATOM      3  C   LIG A   1      -4.727   3.460 126.045  0.00  0.00    +0.036 C 
ATOM      4  C   LIG A   1      -5.314   2.036 126.014  0.00  0.00    -0.023 A 
ATOM      5  C   LIG A   1      -6.341   1.660 125.106  0.00  0.00    +0.003 A 
ATOM      6  C   LIG A   1      -6.916   0.365 125.185  0.00  0.00    +0.168 A 
ATOM      7  C   LIG A   1      -6.485  -0.516 126.179  0.00  0.00    +0.201 A 
ATOM      8  C   LIG A   1      -5.451  -0.160 127.036  0.00  0.00    +0.162 A 
ATOM      9  C   LIG A   1      -4.882   1.098 126.976  0.00  0.00    +0.054 A 
ATOM     10  C   LIG A   1      -6.790   2.600 124.005  0.00  0.00    +0.039 C 
ATOM     11  C   LIG A   1      -6.419   4.063 124.228  0.00  0.00    +0.006 C 
ATOM     12  C   LIG A   1      -4.976   4.192 124.702  0.00  0.00    +0.020 C 
ATOM     13  C   LIG A   1      -3.218   3.427 126.235  0.00  0.00    -0.007 C 
ATOM     14  C   LIG A   1      -2.567   3.998 127.257  0.00  0.00    +0.051 C 
ATOM     15  C   LIG A   1      -3.284   4.742 128.321  0.00  0.00    +0.220 C 
ATOM     16  O   LIG A   1      -2.638   5.258 129.223  0.00  0.00    -0.284 OA
ENDROOT
BRANCH   1  17
ATOM     17  O   LIG A   1      -5.566   5.509 129.128  0.00  0.00    -0.492 OA
ATOM     18  C   LIG A   1      -6.086   4.735 130.204  0.00  0.00    +0.277 C 
ENDBRANCH   1  17
BRANCH   6  19
ATOM     19  O   LIG A   1      -7.960   0.087 124.336  0.00  0.00    -0.491 OA
ATOM     20  C   LIG A   1      -7.675  -0.830 123.278  0.00  0.00    +0.277 C 
ENDBRANCH   6  19
BRANCH   8  21
ATOM     21  O   LIG A   1      -5.025  -1.036 127.994  0.00  0.00    -0.503 OA
ATOM     22  H   LIG A   1      -4.099  -0.775 128.172  0.00  0.00    +0.292 HD
ENDBRANCH   8  21
BRANCH   7  23
ATOM     23  O   LIG A   1      -7.098  -1.711 126.446  0.00  0.00    -0.501 OA
ATOM     24  H   LIG A   1      -7.267  -2.106 125.570  0.00  0.00    +0.292 HD
ENDBRANCH   7  23
TORSDOF 4
ENDMDL
MODEL 9
REMARK VINA RESULT:      -5.9      3.419      4.109
REMARK  Name = NuBBE_2223
REMARK  6 active torsions:
REMARK  status: ('A' for Active; 'I' for Inactive)
REMARK    1  A    between atoms: O_1  and  C_2
REMARK    2  A    between atoms: O_1  and  C_3
REMARK    3  A    between atoms: C_8  and  O_9
REMARK    4  A    between atoms: O_9  and  C_10
REMARK    5  A    between atoms: C_11  and  O_15
REMARK    6  A    between atoms: C_12  and  O_14
REMARK                            x       y       z     vdW  Elec       q    Type
REMARK                         _______ _______ _______ _____ _____    ______ ____
ROOT
ATOM      1  C   LIG A   1      -7.585  -2.859 125.386  0.00  0.00    +0.164 C 
ATOM      2  C   LIG A   1      -7.586  -2.489 126.675  0.00  0.00    +0.038 C 
ATOM      3  C   LIG A   1      -6.529  -1.645 127.377  0.00  0.00    +0.036 C 
ATOM      4  C   LIG A   1      -7.208  -0.392 127.961  0.00  0.00    -0.023 A 
ATOM      5  C   LIG A   1      -7.589  -0.306 129.329  0.00  0.00    +0.003 A 
ATOM      6  C   LIG A   1      -8.301   0.830 129.794  0.00  0.00    +0.168 A 
ATOM      7  C   LIG A   1      -8.646   1.839 128.892  0.00  0.00    +0.201 A 
ATOM      8  C   LIG A   1      -8.234   1.771 127.567  0.00  0.00    +0.162 A 
ATOM      9  C   LIG A   1      -7.544   0.670 127.095  0.00  0.00    +0.054 A 
ATOM     10  C   LIG A   1      -7.189  -1.382 130.318  0.00  0.00    +0.039 C 
ATOM     11  C   LIG A   1      -6.787  -2.710 129.685  0.00  0.00    +0.006 C 
ATOM     12  C   LIG A   1      -5.862  -2.487 128.494  0.00  0.00    +0.020 C 
ATOM     13  C   LIG A   1      -5.415  -1.265 126.412  0.00  0.00    -0.007 C 
ATOM     14  C   LIG A   1      -5.374  -1.620 125.121  0.00  0.00    +0.051 C 
ATOM     15  C   LIG A   1      -6.440  -2.445 124.503  0.00  0.00    +0.220 C 
ATOM     16  O   LIG A   1      -6.344  -2.754 123.324  0.00  0.00    -0.284 OA
ENDROOT
BRANCH   1  17
ATOM     17  O   LIG A   1      -8.629  -3.657 124.938  0.00  0.00    -0.492 OA
ATOM     18  C   LIG A   1      -9.445  -3.089 123.919  0.00  0.00    +0.277 C 
ENDBRANCH   1  17
BRANCH   6  19
ATOM     19  O   LIG A   1      -8.714   0.822 131.105  0.00  0.00    -0.491 OA
ATOM     20  C   LIG A   1      -7.989   1.676 131.991  0.00  0.00    +0.277 C 
ENDBRANCH   6  19
BRANCH   8  21
ATOM     21  O   LIG A   1      -8.563   2.771 126.696  0.00  0.00    -0.503 OA
ATOM     22  H   LIG A   1      -7.871   2.734 126.006  0.00  0.00    +0.292 HD
ENDBRANCH   8  21
BRANCH   7  23
ATOM     23  O   LIG A   1      -9.479   2.880 129.206  0.00  0.00    -0.501 OA
ATOM     24  H   LIG A   1     -10.063   2.530 129.905  0.00  0.00    +0.292 HD
ENDBRANCH   7  23
TORSDOF 4
ENDMDL
