MODEL 1
REMARK VINA RESULT:      -7.6      0.000      0.000
REMARK  Name = NuBBE_2434
REMARK  6 active torsions:
REMARK  status: ('A' for Active; 'I' for Inactive)
REMARK    1  A    between atoms: O_1  and  C_2
REMARK    2  A    between atoms: O_1  and  C_3
REMARK    3  A    between atoms: C_7  and  C_14
REMARK    4  A    between atoms: C_9  and  O_13
REMARK    5  A    between atoms: C_21  and  O_23
REMARK    6  A    between atoms: O_23  and  C_24
REMARK                            x       y       z     vdW  Elec       q    Type
REMARK                         _______ _______ _______ _____ _____    ______ ____
ROOT
ATOM      1  C   LIG A   1      -7.924  -0.307 125.793  0.00  0.00    +0.138 A 
ATOM      2  C   LIG A   1      -7.707   0.719 124.861  0.00  0.00    +0.103 A 
ATOM      3  C   LIG A   1      -7.129   0.411 123.625  0.00  0.00    +0.139 A 
ATOM      4  O   LIG A   1      -6.860   1.315 122.638  0.00  0.00    -0.480 OA
ATOM      5  C   LIG A   1      -7.461   2.614 122.768  0.00  0.00    +0.240 C 
ATOM      6  C   LIG A   1      -7.361   3.149 124.196  0.00  0.00    +0.230 C 
ATOM      7  C   LIG A   1      -8.047   2.138 125.114  0.00  0.00    +0.202 C 
ATOM      8  O   LIG A   1      -8.795   2.503 126.010  0.00  0.00    -0.289 OA
ATOM      9  C   LIG A   1      -6.717  -0.890 123.330  0.00  0.00    +0.092 A 
ATOM     10  C   LIG A   1      -6.903  -1.905 124.259  0.00  0.00    +0.127 A 
ATOM     11  C   LIG A   1      -7.495  -1.610 125.489  0.00  0.00    +0.092 A 
ENDROOT
BRANCH   5  12
ATOM     12  C   LIG A   1      -6.777   3.510 121.741  0.00  0.00    -0.004 A 
ATOM     13  C   LIG A   1      -7.407   3.782 120.517  0.00  0.00    +0.007 A 
ATOM     14  C   LIG A   1      -6.769   4.554 119.542  0.00  0.00    +0.000 A 
ATOM     15  C   LIG A   1      -5.496   5.068 119.777  0.00  0.00    +0.000 A 
ATOM     16  C   LIG A   1      -4.864   4.824 120.993  0.00  0.00    +0.000 A 
ATOM     17  C   LIG A   1      -5.503   4.059 121.971  0.00  0.00    +0.007 A 
ENDBRANCH   5  12
BRANCH   1  18
ATOM     18  O   LIG A   1      -8.435   0.016 127.022  0.00  0.00    -0.494 OA
ATOM     19  C   LIG A   1      -7.598  -0.257 128.144  0.00  0.00    +0.277 C 
ENDBRANCH   1  18
BRANCH   6  20
ATOM     20  O   LIG A   1      -8.028   4.408 124.343  0.00  0.00    -0.380 OA
ATOM     21  H   LIG A   1      -8.982   4.199 124.430  0.00  0.00    +0.210 HD
ENDBRANCH   6  20
BRANCH  10  22
ATOM     22  O   LIG A   1      -6.490  -3.199 124.105  0.00  0.00    -0.495 OA
ATOM     23  C   LIG A   1      -5.105  -3.378 123.828  0.00  0.00    +0.277 C 
ENDBRANCH  10  22
TORSDOF 4
ENDMDL
MODEL 2
REMARK VINA RESULT:      -7.2      6.672      8.511
REMARK  Name = NuBBE_2434
REMARK  6 active torsions:
REMARK  status: ('A' for Active; 'I' for Inactive)
REMARK    1  A    between atoms: O_1  and  C_2
REMARK    2  A    between atoms: O_1  and  C_3
REMARK    3  A    between atoms: C_7  and  C_14
REMARK    4  A    between atoms: C_9  and  O_13
REMARK    5  A    between atoms: C_21  and  O_23
REMARK    6  A    between atoms: O_23  and  C_24
REMARK                            x       y       z     vdW  Elec       q    Type
REMARK                         _______ _______ _______ _____ _____    ______ ____
ROOT
ATOM      1  C   LIG A   1      -8.320   1.982 132.138  0.00  0.00    +0.138 A 
ATOM      2  C   LIG A   1      -9.016   3.139 131.756  0.00  0.00    +0.103 A 
ATOM      3  C   LIG A   1      -9.396   3.301 130.420  0.00  0.00    +0.139 A 
ATOM      4  O   LIG A   1     -10.068   4.379 129.921  0.00  0.00    -0.480 OA
ATOM      5  C   LIG A   1     -10.664   5.270 130.878  0.00  0.00    +0.240 C 
ATOM      6  C   LIG A   1      -9.724   5.564 132.047  0.00  0.00    +0.230 C 
ATOM      7  C   LIG A   1      -9.369   4.227 132.697  0.00  0.00    +0.202 C 
ATOM      8  O   LIG A   1      -9.352   4.100 133.913  0.00  0.00    -0.289 OA
ATOM      9  C   LIG A   1      -9.046   2.354 129.455  0.00  0.00    +0.092 A 
ATOM     10  C   LIG A   1      -8.332   1.221 129.821  0.00  0.00    +0.127 A 
ATOM     11  C   LIG A   1      -7.964   1.042 131.155  0.00  0.00    +0.092 A 
ENDROOT
BRANCH   5  12
ATOM     12  C   LIG A   1     -11.072   6.522 130.106  0.00  0.00    -0.004 A 
ATOM     13  C   LIG A   1     -12.388   7.000 130.192  0.00  0.00    +0.007 A 
ATOM     14  C   LIG A   1     -12.794   8.110 129.446  0.00  0.00    +0.000 A 
ATOM     15  C   LIG A   1     -11.890   8.761 128.609  0.00  0.00    +0.000 A 
ATOM     16  C   LIG A   1     -10.575   8.311 128.527  0.00  0.00    +0.000 A 
ATOM     17  C   LIG A   1     -10.166   7.206 129.276  0.00  0.00    +0.007 A 
ENDBRANCH   5  12
BRANCH   1  18
ATOM     18  O   LIG A   1      -7.901   1.863 133.436  0.00  0.00    -0.494 OA
ATOM     19  C   LIG A   1      -6.491   1.864 133.645  0.00  0.00    +0.277 C 
ENDBRANCH   1  18
BRANCH   6  20
ATOM     20  O   LIG A   1     -10.346   6.390 133.038  0.00  0.00    -0.380 OA
ATOM     21  H   LIG A   1      -9.656   7.022 133.333  0.00  0.00    +0.210 HD
ENDBRANCH   6  20
BRANCH  10  22
ATOM     22  O   LIG A   1      -7.886   0.259 128.958  0.00  0.00    -0.495 OA
ATOM     23  C   LIG A   1      -7.589  -1.006 129.541  0.00  0.00    +0.277 C 
ENDBRANCH  10  22
TORSDOF 4
ENDMDL
MODEL 3
REMARK VINA RESULT:      -7.0      8.604     10.594
REMARK  Name = NuBBE_2434
REMARK  6 active torsions:
REMARK  status: ('A' for Active; 'I' for Inactive)
REMARK    1  A    between atoms: O_1  and  C_2
REMARK    2  A    between atoms: O_1  and  C_3
REMARK    3  A    between atoms: C_7  and  C_14
REMARK    4  A    between atoms: C_9  and  O_13
REMARK    5  A    between atoms: C_21  and  O_23
REMARK    6  A    between atoms: O_23  and  C_24
REMARK                            x       y       z     vdW  Elec       q    Type
REMARK                         _______ _______ _______ _____ _____    ______ ____
ROOT
ATOM      1  C   LIG A   1      -7.830   3.317 133.704  0.00  0.00    +0.138 A 
ATOM      2  C   LIG A   1      -8.561   4.114 132.810  0.00  0.00    +0.103 A 
ATOM      3  C   LIG A   1      -8.685   5.485 133.058  0.00  0.00    +0.139 A 
ATOM      4  O   LIG A   1      -9.372   6.365 132.273  0.00  0.00    -0.480 OA
ATOM      5  C   LIG A   1      -9.757   5.904 130.967  0.00  0.00    +0.240 C 
ATOM      6  C   LIG A   1     -10.314   4.481 131.005  0.00  0.00    +0.230 C 
ATOM      7  C   LIG A   1      -9.233   3.581 131.604  0.00  0.00    +0.202 C 
ATOM      8  O   LIG A   1      -8.984   2.486 131.120  0.00  0.00    -0.289 OA
ATOM      9  C   LIG A   1      -8.138   6.058 134.208  0.00  0.00    +0.092 A 
ATOM     10  C   LIG A   1      -7.438   5.270 135.112  0.00  0.00    +0.127 A 
ATOM     11  C   LIG A   1      -7.294   3.904 134.864  0.00  0.00    +0.092 A 
ENDROOT
BRANCH   5  12
ATOM     12  C   LIG A   1     -10.752   6.925 130.426  0.00  0.00    -0.004 A 
ATOM     13  C   LIG A   1     -11.980   7.120 131.077  0.00  0.00    +0.007 A 
ATOM     14  C   LIG A   1     -12.928   8.009 130.562  0.00  0.00    +0.000 A 
ATOM     15  C   LIG A   1     -12.662   8.716 129.392  0.00  0.00    +0.000 A 
ATOM     16  C   LIG A   1     -11.443   8.547 128.742  0.00  0.00    +0.000 A 
ATOM     17  C   LIG A   1     -10.491   7.666 129.259  0.00  0.00    +0.007 A 
ENDBRANCH   5  12
BRANCH   1  18
ATOM     18  O   LIG A   1      -7.766   1.967 133.483  0.00  0.00    -0.494 OA
ATOM     19  C   LIG A   1      -6.489   1.359 133.659  0.00  0.00    +0.277 C 
ENDBRANCH   1  18
BRANCH   6  20
ATOM     20  O   LIG A   1     -10.626   3.994 129.695  0.00  0.00    -0.380 OA
ATOM     21  H   LIG A   1     -11.101   4.722 129.243  0.00  0.00    +0.210 HD
ENDBRANCH   6  20
BRANCH  10  22
ATOM     22  O   LIG A   1      -6.910   5.707 136.294  0.00  0.00    -0.495 OA
ATOM     23  C   LIG A   1      -7.787   6.468 137.119  0.00  0.00    +0.277 C 
ENDBRANCH  10  22
TORSDOF 4
ENDMDL
MODEL 4
REMARK VINA RESULT:      -6.9      9.324     10.344
REMARK  Name = NuBBE_2434
REMARK  6 active torsions:
REMARK  status: ('A' for Active; 'I' for Inactive)
REMARK    1  A    between atoms: O_1  and  C_2
REMARK    2  A    between atoms: O_1  and  C_3
REMARK    3  A    between atoms: C_7  and  C_14
REMARK    4  A    between atoms: C_9  and  O_13
REMARK    5  A    between atoms: C_21  and  O_23
REMARK    6  A    between atoms: O_23  and  C_24
REMARK                            x       y       z     vdW  Elec       q    Type
REMARK                         _______ _______ _______ _____ _____    ______ ____
ROOT
ATOM      1  C   LIG A   1      -6.310   5.651 133.143  0.00  0.00    +0.138 A 
ATOM      2  C   LIG A   1      -7.468   5.961 132.413  0.00  0.00    +0.103 A 
ATOM      3  C   LIG A   1      -7.355   6.694 131.227  0.00  0.00    +0.139 A 
ATOM      4  O   LIG A   1      -8.400   7.065 130.432  0.00  0.00    -0.480 OA
ATOM      5  C   LIG A   1      -9.662   6.425 130.681  0.00  0.00    +0.240 C 
ATOM      6  C   LIG A   1      -9.972   6.335 132.176  0.00  0.00    +0.230 C 
ATOM      7  C   LIG A   1      -8.829   5.562 132.835  0.00  0.00    +0.202 C 
ATOM      8  O   LIG A   1      -9.051   4.701 133.675  0.00  0.00    -0.289 OA
ATOM      9  C   LIG A   1      -6.115   7.166 130.791  0.00  0.00    +0.092 A 
ATOM     10  C   LIG A   1      -4.969   6.888 131.524  0.00  0.00    +0.127 A 
ATOM     11  C   LIG A   1      -5.069   6.141 132.699  0.00  0.00    +0.092 A 
ENDROOT
BRANCH   5  12
ATOM     12  C   LIG A   1     -10.708   7.212 129.898  0.00  0.00    -0.004 A 
ATOM     13  C   LIG A   1     -10.362   7.818 128.680  0.00  0.00    +0.007 A 
ATOM     14  C   LIG A   1     -11.291   8.592 127.979  0.00  0.00    +0.000 A 
ATOM     15  C   LIG A   1     -12.578   8.768 128.481  0.00  0.00    +0.000 A 
ATOM     16  C   LIG A   1     -12.943   8.159 129.679  0.00  0.00    +0.000 A 
ATOM     17  C   LIG A   1     -12.019   7.380 130.377  0.00  0.00    +0.007 A 
ENDBRANCH   5  12
BRANCH   1  18
ATOM     18  O   LIG A   1      -6.439   4.984 134.332  0.00  0.00    -0.494 OA
ATOM     19  C   LIG A   1      -6.139   5.732 135.509  0.00  0.00    +0.277 C 
ENDBRANCH   1  18
BRANCH   6  20
ATOM     20  O   LIG A   1     -11.192   5.629 132.428  0.00  0.00    -0.380 OA
ATOM     21  H   LIG A   1     -11.436   5.836 133.355  0.00  0.00    +0.210 HD
ENDBRANCH   6  20
BRANCH  10  22
ATOM     22  O   LIG A   1      -3.715   7.344 131.228  0.00  0.00    -0.495 OA
ATOM     23  C   LIG A   1      -3.646   8.368 130.241  0.00  0.00    +0.277 C 
ENDBRANCH  10  22
TORSDOF 4
ENDMDL
MODEL 5
REMARK VINA RESULT:      -6.8      8.193      9.487
REMARK  Name = NuBBE_2434
REMARK  6 active torsions:
REMARK  status: ('A' for Active; 'I' for Inactive)
REMARK    1  A    between atoms: O_1  and  C_2
REMARK    2  A    between atoms: O_1  and  C_3
REMARK    3  A    between atoms: C_7  and  C_14
REMARK    4  A    between atoms: C_9  and  O_13
REMARK    5  A    between atoms: C_21  and  O_23
REMARK    6  A    between atoms: O_23  and  C_24
REMARK                            x       y       z     vdW  Elec       q    Type
REMARK                         _______ _______ _______ _____ _____    ______ ____
ROOT
ATOM      1  C   LIG A   1      -6.772   4.097 131.900  0.00  0.00    +0.138 A 
ATOM      2  C   LIG A   1      -7.835   4.725 131.232  0.00  0.00    +0.103 A 
ATOM      3  C   LIG A   1      -7.710   6.067 130.855  0.00  0.00    +0.139 A 
ATOM      4  O   LIG A   1      -8.669   6.792 130.209  0.00  0.00    -0.480 OA
ATOM      5  C   LIG A   1      -9.761   6.055 129.635  0.00  0.00    +0.240 C 
ATOM      6  C   LIG A   1     -10.281   4.973 130.582  0.00  0.00    +0.230 C 
ATOM      7  C   LIG A   1      -9.109   4.046 130.906  0.00  0.00    +0.202 C 
ATOM      8  O   LIG A   1      -9.250   2.831 130.920  0.00  0.00    -0.289 OA
ATOM      9  C   LIG A   1      -6.568   6.801 131.182  0.00  0.00    +0.092 A 
ATOM     10  C   LIG A   1      -5.525   6.194 131.869  0.00  0.00    +0.127 A 
ATOM     11  C   LIG A   1      -5.633   4.850 132.233  0.00  0.00    +0.092 A 
ENDROOT
BRANCH   5  12
ATOM     12  C   LIG A   1     -10.824   7.082 129.257  0.00  0.00    -0.004 A 
ATOM     13  C   LIG A   1     -11.656   7.626 130.248  0.00  0.00    +0.007 A 
ATOM     14  C   LIG A   1     -12.672   8.524 129.911  0.00  0.00    +0.000 A 
ATOM     15  C   LIG A   1     -12.870   8.894 128.583  0.00  0.00    +0.000 A 
ATOM     16  C   LIG A   1     -12.042   8.378 127.590  0.00  0.00    +0.000 A 
ATOM     17  C   LIG A   1     -11.021   7.487 127.925  0.00  0.00    +0.007 A 
ENDBRANCH   5  12
BRANCH   1  18
ATOM     18  O   LIG A   1      -6.929   2.802 132.317  0.00  0.00    -0.494 OA
ATOM     19  C   LIG A   1      -6.997   2.598 133.726  0.00  0.00    +0.277 C 
ENDBRANCH   1  18
BRANCH   6  20
ATOM     20  O   LIG A   1     -11.317   4.189 129.981  0.00  0.00    -0.380 OA
ATOM     21  H   LIG A   1     -10.863   3.457 129.512  0.00  0.00    +0.210 HD
ENDBRANCH   6  20
BRANCH  10  22
ATOM     22  O   LIG A   1      -4.388   6.824 132.291  0.00  0.00    -0.495 OA
ATOM     23  C   LIG A   1      -3.700   7.587 131.305  0.00  0.00    +0.277 C 
ENDBRANCH  10  22
TORSDOF 4
ENDMDL
MODEL 6
REMARK VINA RESULT:      -6.7      7.907     10.096
REMARK  Name = NuBBE_2434
REMARK  6 active torsions:
REMARK  status: ('A' for Active; 'I' for Inactive)
REMARK    1  A    between atoms: O_1  and  C_2
REMARK    2  A    between atoms: O_1  and  C_3
REMARK    3  A    between atoms: C_7  and  C_14
REMARK    4  A    between atoms: C_9  and  O_13
REMARK    5  A    between atoms: C_21  and  O_23
REMARK    6  A    between atoms: O_23  and  C_24
REMARK                            x       y       z     vdW  Elec       q    Type
REMARK                         _______ _______ _______ _____ _____    ______ ____
ROOT
ATOM      1  C   LIG A   1      -6.744   3.961 132.612  0.00  0.00    +0.138 A 
ATOM      2  C   LIG A   1      -7.611   4.744 131.835  0.00  0.00    +0.103 A 
ATOM      3  C   LIG A   1      -8.377   5.738 132.453  0.00  0.00    +0.139 A 
ATOM      4  O   LIG A   1      -9.259   6.560 131.814  0.00  0.00    -0.480 OA
ATOM      5  C   LIG A   1      -9.191   6.592 130.379  0.00  0.00    +0.240 C 
ATOM      6  C   LIG A   1      -9.045   5.192 129.783  0.00  0.00    +0.230 C 
ATOM      7  C   LIG A   1      -7.779   4.572 130.374  0.00  0.00    +0.202 C 
ATOM      8  O   LIG A   1      -6.992   3.952 129.672  0.00  0.00    -0.289 OA
ATOM      9  C   LIG A   1      -8.329   5.924 133.837  0.00  0.00    +0.092 A 
ATOM     10  C   LIG A   1      -7.494   5.133 134.615  0.00  0.00    +0.127 A 
ATOM     11  C   LIG A   1      -6.713   4.150 134.004  0.00  0.00    +0.092 A 
ENDROOT
BRANCH   5  12
ATOM     12  C   LIG A   1     -10.445   7.319 129.904  0.00  0.00    -0.004 A 
ATOM     13  C   LIG A   1     -11.648   7.178 130.613  0.00  0.00    +0.007 A 
ATOM     14  C   LIG A   1     -12.820   7.790 130.159  0.00  0.00    +0.000 A 
ATOM     15  C   LIG A   1     -12.807   8.552 128.994  0.00  0.00    +0.000 A 
ATOM     16  C   LIG A   1     -11.618   8.717 128.287  0.00  0.00    +0.000 A 
ATOM     17  C   LIG A   1     -10.445   8.113 128.743  0.00  0.00    +0.007 A 
ENDBRANCH   5  12
BRANCH   1  18
ATOM     18  O   LIG A   1      -6.045   2.951 132.005  0.00  0.00    -0.494 OA
ATOM     19  C   LIG A   1      -6.281   1.635 132.500  0.00  0.00    +0.277 C 
ENDBRANCH   1  18
BRANCH   6  20
ATOM     20  O   LIG A   1      -8.900   5.229 128.358  0.00  0.00    -0.380 OA
ATOM     21  H   LIG A   1      -7.999   4.891 128.171  0.00  0.00    +0.210 HD
ENDBRANCH   6  20
BRANCH  10  22
ATOM     22  O   LIG A   1      -7.407   5.184 135.978  0.00  0.00    -0.495 OA
ATOM     23  C   LIG A   1      -7.725   6.438 136.572  0.00  0.00    +0.277 C 
ENDBRANCH  10  22
TORSDOF 4
ENDMDL
MODEL 7
REMARK VINA RESULT:      -6.3      2.802      7.534
REMARK  Name = NuBBE_2434
REMARK  6 active torsions:
REMARK  status: ('A' for Active; 'I' for Inactive)
REMARK    1  A    between atoms: O_1  and  C_2
REMARK    2  A    between atoms: O_1  and  C_3
REMARK    3  A    between atoms: C_7  and  C_14
REMARK    4  A    between atoms: C_9  and  O_13
REMARK    5  A    between atoms: C_21  and  O_23
REMARK    6  A    between atoms: O_23  and  C_24
REMARK                            x       y       z     vdW  Elec       q    Type
REMARK                         _______ _______ _______ _____ _____    ______ ____
ROOT
ATOM      1  C   LIG A   1      -7.824   0.906 124.264  0.00  0.00    +0.138 A 
ATOM      2  C   LIG A   1      -7.542  -0.022 125.279  0.00  0.00    +0.103 A 
ATOM      3  C   LIG A   1      -6.544   0.268 126.215  0.00  0.00    +0.139 A 
ATOM      4  O   LIG A   1      -6.171  -0.549 127.242  0.00  0.00    -0.480 OA
ATOM      5  C   LIG A   1      -7.045  -1.648 127.546  0.00  0.00    +0.240 C 
ATOM      6  C   LIG A   1      -7.529  -2.359 126.281  0.00  0.00    +0.230 C 
ATOM      7  C   LIG A   1      -8.241  -1.320 125.415  0.00  0.00    +0.202 C 
ATOM      8  O   LIG A   1      -9.298  -1.580 124.857  0.00  0.00    -0.289 OA
ATOM      9  C   LIG A   1      -5.791   1.441 126.121  0.00  0.00    +0.092 A 
ATOM     10  C   LIG A   1      -6.045   2.350 125.102  0.00  0.00    +0.127 A 
ATOM     11  C   LIG A   1      -7.051   2.076 124.173  0.00  0.00    +0.092 A 
ENDROOT
BRANCH   5  12
ATOM     12  C   LIG A   1      -6.274  -2.564 128.491  0.00  0.00    -0.004 A 
ATOM     13  C   LIG A   1      -6.959  -3.281 129.484  0.00  0.00    +0.007 A 
ATOM     14  C   LIG A   1      -6.262  -4.080 130.396  0.00  0.00    +0.000 A 
ATOM     15  C   LIG A   1      -4.874  -4.176 130.326  0.00  0.00    +0.000 A 
ATOM     16  C   LIG A   1      -4.181  -3.486 129.335  0.00  0.00    +0.000 A 
ATOM     17  C   LIG A   1      -4.876  -2.694 128.419  0.00  0.00    +0.007 A 
ENDBRANCH   5  12
BRANCH   1  18
ATOM     18  O   LIG A   1      -8.761   0.584 123.319  0.00  0.00    -0.494 OA
ATOM     19  C   LIG A   1      -9.837   1.506 123.158  0.00  0.00    +0.277 C 
ENDBRANCH   1  18
BRANCH   6  20
ATOM     20  O   LIG A   1      -8.460  -3.406 126.579  0.00  0.00    -0.380 OA
ATOM     21  H   LIG A   1      -8.334  -4.084 125.882  0.00  0.00    +0.210 HD
ENDBRANCH   6  20
BRANCH  10  22
ATOM     22  O   LIG A   1      -5.338   3.497 124.876  0.00  0.00    -0.495 OA
ATOM     23  C   LIG A   1      -6.113   4.683 124.730  0.00  0.00    +0.277 C 
ENDBRANCH  10  22
TORSDOF 4
ENDMDL
MODEL 8
REMARK VINA RESULT:      -6.2      6.713      8.859
REMARK  Name = NuBBE_2434
REMARK  6 active torsions:
REMARK  status: ('A' for Active; 'I' for Inactive)
REMARK    1  A    between atoms: O_1  and  C_2
REMARK    2  A    between atoms: O_1  and  C_3
REMARK    3  A    between atoms: C_7  and  C_14
REMARK    4  A    between atoms: C_9  and  O_13
REMARK    5  A    between atoms: C_21  and  O_23
REMARK    6  A    between atoms: O_23  and  C_24
REMARK                            x       y       z     vdW  Elec       q    Type
REMARK                         _______ _______ _______ _____ _____    ______ ____
ROOT
ATOM      1  C   LIG A   1      -6.605   4.127 131.723  0.00  0.00    +0.138 A 
ATOM      2  C   LIG A   1      -7.806   4.740 131.330  0.00  0.00    +0.103 A 
ATOM      3  C   LIG A   1      -8.068   4.923 129.968  0.00  0.00    +0.139 A 
ATOM      4  O   LIG A   1      -9.190   5.509 129.458  0.00  0.00    -0.480 OA
ATOM      5  C   LIG A   1     -10.291   5.697 130.362  0.00  0.00    +0.240 C 
ATOM      6  C   LIG A   1      -9.830   6.228 131.720  0.00  0.00    +0.230 C 
ATOM      7  C   LIG A   1      -8.825   5.225 132.287  0.00  0.00    +0.202 C 
ATOM      8  O   LIG A   1      -8.862   4.890 133.463  0.00  0.00    -0.289 OA
ATOM      9  C   LIG A   1      -7.130   4.554 129.001  0.00  0.00    +0.092 A 
ATOM     10  C   LIG A   1      -5.929   3.974 129.384  0.00  0.00    +0.127 A 
ATOM     11  C   LIG A   1      -5.666   3.771 130.740  0.00  0.00    +0.092 A 
ENDROOT
BRANCH   5  12
ATOM     12  C   LIG A   1     -11.275   6.625 129.657  0.00  0.00    -0.004 A 
ATOM     13  C   LIG A   1     -12.570   6.176 129.357  0.00  0.00    +0.007 A 
ATOM     14  C   LIG A   1     -13.464   6.993 128.660  0.00  0.00    +0.000 A 
ATOM     15  C   LIG A   1     -13.080   8.270 128.257  0.00  0.00    +0.000 A 
ATOM     16  C   LIG A   1     -11.805   8.738 128.562  0.00  0.00    +0.000 A 
ATOM     17  C   LIG A   1     -10.912   7.927 129.265  0.00  0.00    +0.007 A 
ENDBRANCH   5  12
BRANCH   1  18
ATOM     18  O   LIG A   1      -6.333   4.008 133.059  0.00  0.00    -0.494 OA
ATOM     19  C   LIG A   1      -4.956   3.903 133.415  0.00  0.00    +0.277 C 
ENDBRANCH   1  18
BRANCH   6  20
ATOM     20  O   LIG A   1     -10.917   6.342 132.646  0.00  0.00    -0.380 OA
ATOM     21  H   LIG A   1     -11.073   7.303 132.760  0.00  0.00    +0.210 HD
ENDBRANCH   6  20
BRANCH  10  22
ATOM     22  O   LIG A   1      -4.916   3.626 128.535  0.00  0.00    -0.495 OA
ATOM     23  C   LIG A   1      -4.777   4.437 127.372  0.00  0.00    +0.277 C 
ENDBRANCH  10  22
TORSDOF 4
ENDMDL
MODEL 9
REMARK VINA RESULT:      -6.2      6.048      8.087
REMARK  Name = NuBBE_2434
REMARK  6 active torsions:
REMARK  status: ('A' for Active; 'I' for Inactive)
REMARK    1  A    between atoms: O_1  and  C_2
REMARK    2  A    between atoms: O_1  and  C_3
REMARK    3  A    between atoms: C_7  and  C_14
REMARK    4  A    between atoms: C_9  and  O_13
REMARK    5  A    between atoms: C_21  and  O_23
REMARK    6  A    between atoms: O_23  and  C_24
REMARK                            x       y       z     vdW  Elec       q    Type
REMARK                         _______ _______ _______ _____ _____    ______ ____
ROOT
ATOM      1  C   LIG A   1      -5.871   3.670 129.365  0.00  0.00    +0.138 A 
ATOM      2  C   LIG A   1      -7.023   4.448 129.563  0.00  0.00    +0.103 A 
ATOM      3  C   LIG A   1      -7.936   4.599 128.514  0.00  0.00    +0.139 A 
ATOM      4  O   LIG A   1      -9.086   5.331 128.576  0.00  0.00    -0.480 OA
ATOM      5  C   LIG A   1      -9.523   5.743 129.882  0.00  0.00    +0.240 C 
ATOM      6  C   LIG A   1      -8.365   6.263 130.734  0.00  0.00    +0.230 C 
ATOM      7  C   LIG A   1      -7.330   5.142 130.834  0.00  0.00    +0.202 C 
ATOM      8  O   LIG A   1      -6.784   4.880 131.896  0.00  0.00    -0.289 OA
ATOM      9  C   LIG A   1      -7.691   4.032 127.262  0.00  0.00    +0.092 A 
ATOM     10  C   LIG A   1      -6.539   3.286 127.051  0.00  0.00    +0.127 A 
ATOM     11  C   LIG A   1      -5.630   3.115 128.096  0.00  0.00    +0.092 A 
ENDROOT
BRANCH   5  12
ATOM     12  C   LIG A   1     -10.620   6.780 129.663  0.00  0.00    -0.004 A 
ATOM     13  C   LIG A   1     -10.500   7.718 128.627  0.00  0.00    +0.007 A 
ATOM     14  C   LIG A   1     -11.467   8.712 128.449  0.00  0.00    +0.000 A 
ATOM     15  C   LIG A   1     -12.568   8.779 129.300  0.00  0.00    +0.000 A 
ATOM     16  C   LIG A   1     -12.712   7.844 130.321  0.00  0.00    +0.000 A 
ATOM     17  C   LIG A   1     -11.751   6.847 130.496  0.00  0.00    +0.007 A 
ENDBRANCH   5  12
BRANCH   1  18
ATOM     18  O   LIG A   1      -4.955   3.579 130.379  0.00  0.00    -0.494 OA
ATOM     19  C   LIG A   1      -3.668   4.136 130.117  0.00  0.00    +0.277 C 
ENDBRANCH   1  18
BRANCH   6  20
ATOM     20  O   LIG A   1      -8.786   6.601 132.060  0.00  0.00    -0.380 OA
ATOM     21  H   LIG A   1      -9.313   7.423 131.974  0.00  0.00    +0.210 HD
ENDBRANCH   6  20
BRANCH  10  22
ATOM     22  O   LIG A   1      -6.166   2.734 125.857  0.00  0.00    -0.495 OA
ATOM     23  C   LIG A   1      -5.766   3.656 124.848  0.00  0.00    +0.277 C 
ENDBRANCH  10  22
TORSDOF 4
ENDMDL
