MODEL 1
REMARK VINA RESULT:      -6.8      0.000      0.000
REMARK  Name = NuBBE_966
REMARK  5 active torsions:
REMARK  status: ('A' for Active; 'I' for Inactive)
REMARK    1  A    between atoms: C_1  and  C_2
REMARK    2  A    between atoms: C_11  and  C_15
REMARK    3  A    between atoms: C_15  and  C_16
REMARK    4  A    between atoms: C_15  and  O_17
REMARK    5  A    between atoms: C_15  and  C_18
REMARK                            x       y       z     vdW  Elec       q    Type
REMARK                         _______ _______ _______ _____ _____    ______ ____
ROOT
ATOM      1  C   LIG A   1      -9.048  -1.124 125.406  0.00  0.00    +0.012 C 
ATOM      2  C   LIG A   1      -8.527  -1.315 123.960  0.00  0.00    -0.025 C 
ATOM      3  C   LIG A   1      -7.064  -0.814 123.786  0.00  0.00    +0.021 C 
ATOM      4  C   LIG A   1      -6.108  -1.670 124.611  0.00  0.00    -0.073 C 
ATOM      5  C   LIG A   1      -6.165  -3.141 124.263  0.00  0.00    +0.030 C 
ATOM      6  C   LIG A   1      -7.589  -3.683 124.369  0.00  0.00    +0.005 C 
ATOM      7  C   LIG A   1      -8.595  -2.825 123.595  0.00  0.00    +0.007 C 
ATOM      8  C   LIG A   1      -5.281  -1.218 125.569  0.00  0.00    +0.008 C 
ATOM      9  C   LIG A   1      -6.950   0.712 123.981  0.00  0.00    +0.014 C 
ATOM     10  C   LIG A   1      -7.870   1.501 123.019  0.00  0.00    +0.021 C 
ATOM     11  C   LIG A   1      -9.322   0.989 123.131  0.00  0.00    +0.007 C 
ATOM     12  C   LIG A   1      -9.433  -0.530 122.985  0.00  0.00    +0.007 C 
ENDROOT
BRANCH  10  13
ATOM     13  C   LIG A   1      -7.769   3.046 123.236  0.00  0.00    +0.063 C 
ATOM     14  C   LIG A   1      -6.328   3.555 123.077  0.00  0.00    +0.041 C 
ATOM     15  C   LIG A   1      -8.287   3.467 124.619  0.00  0.00    +0.041 C 
BRANCH  13  16
ATOM     16  O   LIG A   1      -8.572   3.704 122.251  0.00  0.00    -0.389 OA
ATOM     17  H   LIG A   1      -7.977   4.110 121.598  0.00  0.00    +0.210 HD
ENDBRANCH  13  16
ENDBRANCH  10  13
TORSDOF 2
ENDMDL
MODEL 2
REMARK VINA RESULT:      -6.8      3.681      5.263
REMARK  Name = NuBBE_966
REMARK  5 active torsions:
REMARK  status: ('A' for Active; 'I' for Inactive)
REMARK    1  A    between atoms: C_1  and  C_2
REMARK    2  A    between atoms: C_11  and  C_15
REMARK    3  A    between atoms: C_15  and  C_16
REMARK    4  A    between atoms: C_15  and  O_17
REMARK    5  A    between atoms: C_15  and  C_18
REMARK                            x       y       z     vdW  Elec       q    Type
REMARK                         _______ _______ _______ _____ _____    ______ ____
ROOT
ATOM      1  C   LIG A   1      -8.178  -4.014 124.917  0.00  0.00    +0.012 C 
ATOM      2  C   LIG A   1      -8.024  -2.473 124.973  0.00  0.00    -0.025 C 
ATOM      3  C   LIG A   1      -6.535  -2.029 125.036  0.00  0.00    +0.021 C 
ATOM      4  C   LIG A   1      -5.813  -2.399 123.744  0.00  0.00    -0.073 C 
ATOM      5  C   LIG A   1      -6.449  -1.800 122.509  0.00  0.00    +0.030 C 
ATOM      6  C   LIG A   1      -7.930  -2.162 122.414  0.00  0.00    +0.005 C 
ATOM      7  C   LIG A   1      -8.687  -1.853 123.710  0.00  0.00    +0.007 C 
ATOM      8  C   LIG A   1      -4.725  -3.180 123.651  0.00  0.00    +0.008 C 
ATOM      9  C   LIG A   1      -5.854  -2.478 126.346  0.00  0.00    +0.014 C 
ATOM     10  C   LIG A   1      -6.589  -1.956 127.603  0.00  0.00    +0.021 C 
ATOM     11  C   LIG A   1      -8.084  -2.337 127.543  0.00  0.00    +0.007 C 
ATOM     12  C   LIG A   1      -8.750  -1.934 126.226  0.00  0.00    +0.007 C 
ENDROOT
BRANCH  10  13
ATOM     13  C   LIG A   1      -5.910  -2.434 128.929  0.00  0.00    +0.063 C 
ATOM     14  C   LIG A   1      -4.490  -2.968 128.685  0.00  0.00    +0.041 C 
ATOM     15  C   LIG A   1      -6.729  -3.526 129.633  0.00  0.00    +0.041 C 
BRANCH  13  16
ATOM     16  O   LIG A   1      -5.807  -1.321 129.823  0.00  0.00    -0.389 OA
ATOM     17  H   LIG A   1      -4.883  -1.252 130.114  0.00  0.00    +0.210 HD
ENDBRANCH  13  16
ENDBRANCH  10  13
TORSDOF 2
ENDMDL
MODEL 3
REMARK VINA RESULT:      -6.7      1.314      1.926
REMARK  Name = NuBBE_966
REMARK  5 active torsions:
REMARK  status: ('A' for Active; 'I' for Inactive)
REMARK    1  A    between atoms: C_1  and  C_2
REMARK    2  A    between atoms: C_11  and  C_15
REMARK    3  A    between atoms: C_15  and  C_16
REMARK    4  A    between atoms: C_15  and  O_17
REMARK    5  A    between atoms: C_15  and  C_18
REMARK                            x       y       z     vdW  Elec       q    Type
REMARK                         _______ _______ _______ _____ _____    ______ ____
ROOT
ATOM      1  C   LIG A   1      -7.407  -0.562 126.416  0.00  0.00    +0.012 C 
ATOM      2  C   LIG A   1      -8.599  -0.850 125.469  0.00  0.00    -0.025 C 
ATOM      3  C   LIG A   1      -8.156  -0.984 123.984  0.00  0.00    +0.021 C 
ATOM      4  C   LIG A   1      -7.268  -2.211 123.801  0.00  0.00    -0.073 C 
ATOM      5  C   LIG A   1      -7.930  -3.501 124.231  0.00  0.00    +0.030 C 
ATOM      6  C   LIG A   1      -8.430  -3.417 125.671  0.00  0.00    +0.005 C 
ATOM      7  C   LIG A   1      -9.289  -2.171 125.915  0.00  0.00    +0.007 C 
ATOM      8  C   LIG A   1      -6.014  -2.205 123.320  0.00  0.00    +0.008 C 
ATOM      9  C   LIG A   1      -7.603   0.344 123.425  0.00  0.00    +0.014 C 
ATOM     10  C   LIG A   1      -8.619   1.504 123.545  0.00  0.00    +0.021 C 
ATOM     11  C   LIG A   1      -9.117   1.627 125.001  0.00  0.00    +0.007 C 
ATOM     12  C   LIG A   1      -9.623   0.301 125.573  0.00  0.00    +0.007 C 
ENDROOT
BRANCH  10  13
ATOM     13  C   LIG A   1      -8.045   2.854 123.000  0.00  0.00    +0.063 C 
ATOM     14  C   LIG A   1      -8.688   3.251 121.663  0.00  0.00    +0.041 C 
ATOM     15  C   LIG A   1      -6.522   2.798 122.815  0.00  0.00    +0.041 C 
BRANCH  13  16
ATOM     16  O   LIG A   1      -8.331   3.891 123.944  0.00  0.00    -0.389 OA
ATOM     17  H   LIG A   1      -9.154   3.659 124.407  0.00  0.00    +0.210 HD
ENDBRANCH  13  16
ENDBRANCH  10  13
TORSDOF 2
ENDMDL
MODEL 4
REMARK VINA RESULT:      -6.4      2.462      3.752
REMARK  Name = NuBBE_966
REMARK  5 active torsions:
REMARK  status: ('A' for Active; 'I' for Inactive)
REMARK    1  A    between atoms: C_1  and  C_2
REMARK    2  A    between atoms: C_11  and  C_15
REMARK    3  A    between atoms: C_15  and  C_16
REMARK    4  A    between atoms: C_15  and  O_17
REMARK    5  A    between atoms: C_15  and  C_18
REMARK                            x       y       z     vdW  Elec       q    Type
REMARK                         _______ _______ _______ _____ _____    ______ ____
ROOT
ATOM      1  C   LIG A   1      -6.244  -1.304 127.058  0.00  0.00    +0.012 C 
ATOM      2  C   LIG A   1      -7.671  -1.098 127.623  0.00  0.00    -0.025 C 
ATOM      3  C   LIG A   1      -8.775  -1.521 126.611  0.00  0.00    +0.021 C 
ATOM      4  C   LIG A   1      -8.719  -3.025 126.359  0.00  0.00    -0.073 C 
ATOM      5  C   LIG A   1      -8.868  -3.851 127.618  0.00  0.00    +0.030 C 
ATOM      6  C   LIG A   1      -7.838  -3.450 128.672  0.00  0.00    +0.005 C 
ATOM      7  C   LIG A   1      -7.825  -1.938 128.923  0.00  0.00    +0.007 C 
ATOM      8  C   LIG A   1      -8.547  -3.612 125.163  0.00  0.00    +0.008 C 
ATOM      9  C   LIG A   1      -8.783  -0.623 125.358  0.00  0.00    +0.014 C 
ATOM     10  C   LIG A   1      -8.964   0.874 125.704  0.00  0.00    +0.021 C 
ATOM     11  C   LIG A   1      -7.913   1.310 126.748  0.00  0.00    +0.007 C 
ATOM     12  C   LIG A   1      -7.872   0.393 127.972  0.00  0.00    +0.007 C 
ENDROOT
BRANCH  10  13
ATOM     13  C   LIG A   1      -8.947   1.784 124.432  0.00  0.00    +0.063 C 
ATOM     14  C   LIG A   1      -9.968   1.321 123.382  0.00  0.00    +0.041 C 
ATOM     15  C   LIG A   1      -7.558   1.831 123.778  0.00  0.00    +0.041 C 
BRANCH  13  16
ATOM     16  O   LIG A   1      -9.293   3.119 124.815  0.00  0.00    -0.389 OA
ATOM     17  H   LIG A   1      -9.956   3.067 125.523  0.00  0.00    +0.210 HD
ENDBRANCH  13  16
ENDBRANCH  10  13
TORSDOF 2
ENDMDL
MODEL 5
REMARK VINA RESULT:      -6.2      1.451      1.972
REMARK  Name = NuBBE_966
REMARK  5 active torsions:
REMARK  status: ('A' for Active; 'I' for Inactive)
REMARK    1  A    between atoms: C_1  and  C_2
REMARK    2  A    between atoms: C_11  and  C_15
REMARK    3  A    between atoms: C_15  and  C_16
REMARK    4  A    between atoms: C_15  and  O_17
REMARK    5  A    between atoms: C_15  and  C_18
REMARK                            x       y       z     vdW  Elec       q    Type
REMARK                         _______ _______ _______ _____ _____    ______ ____
ROOT
ATOM      1  C   LIG A   1      -9.229   0.073 125.194  0.00  0.00    +0.012 C 
ATOM      2  C   LIG A   1      -8.790   0.322 123.729  0.00  0.00    -0.025 C 
ATOM      3  C   LIG A   1      -7.244   0.300 123.562  0.00  0.00    +0.021 C 
ATOM      4  C   LIG A   1      -6.697  -1.095 123.852  0.00  0.00    -0.073 C 
ATOM      5  C   LIG A   1      -7.298  -2.170 122.974  0.00  0.00    +0.030 C 
ATOM      6  C   LIG A   1      -8.823  -2.169 123.058  0.00  0.00    +0.005 C 
ATOM      7  C   LIG A   1      -9.416  -0.776 122.822  0.00  0.00    +0.007 C 
ATOM      8  C   LIG A   1      -5.780  -1.397 124.786  0.00  0.00    +0.008 C 
ATOM      9  C   LIG A   1      -6.566   1.464 124.313  0.00  0.00    +0.014 C 
ATOM     10  C   LIG A   1      -7.101   2.846 123.867  0.00  0.00    +0.021 C 
ATOM     11  C   LIG A   1      -8.641   2.880 123.972  0.00  0.00    +0.007 C 
ATOM     12  C   LIG A   1      -9.314   1.700 123.267  0.00  0.00    +0.007 C 
ENDROOT
BRANCH  10  13
ATOM     13  C   LIG A   1      -6.429   4.023 124.649  0.00  0.00    +0.063 C 
ATOM     14  C   LIG A   1      -5.243   3.542 125.499  0.00  0.00    +0.041 C 
ATOM     15  C   LIG A   1      -7.426   4.749 125.563  0.00  0.00    +0.041 C 
BRANCH  13  16
ATOM     16  O   LIG A   1      -5.928   4.976 123.706  0.00  0.00    -0.389 OA
ATOM     17  H   LIG A   1      -6.468   5.782 123.776  0.00  0.00    +0.210 HD
ENDBRANCH  13  16
ENDBRANCH  10  13
TORSDOF 2
ENDMDL
MODEL 6
REMARK VINA RESULT:      -6.1      3.140      5.289
REMARK  Name = NuBBE_966
REMARK  5 active torsions:
REMARK  status: ('A' for Active; 'I' for Inactive)
REMARK    1  A    between atoms: C_1  and  C_2
REMARK    2  A    between atoms: C_11  and  C_15
REMARK    3  A    between atoms: C_15  and  C_16
REMARK    4  A    between atoms: C_15  and  O_17
REMARK    5  A    between atoms: C_15  and  C_18
REMARK                            x       y       z     vdW  Elec       q    Type
REMARK                         _______ _______ _______ _____ _____    ______ ____
ROOT
ATOM      1  C   LIG A   1      -8.088  -0.113 125.138  0.00  0.00    +0.012 C 
ATOM      2  C   LIG A   1      -7.246  -1.300 124.605  0.00  0.00    -0.025 C 
ATOM      3  C   LIG A   1      -7.531  -2.621 125.375  0.00  0.00    +0.021 C 
ATOM      4  C   LIG A   1      -8.966  -3.080 125.132  0.00  0.00    -0.073 C 
ATOM      5  C   LIG A   1      -9.289  -3.289 123.669  0.00  0.00    +0.030 C 
ATOM      6  C   LIG A   1      -8.986  -2.037 122.848  0.00  0.00    +0.005 C 
ATOM      7  C   LIG A   1      -7.569  -1.510 123.098  0.00  0.00    +0.007 C 
ATOM      8  C   LIG A   1      -9.893  -3.287 126.081  0.00  0.00    +0.008 C 
ATOM      9  C   LIG A   1      -7.087  -2.536 126.850  0.00  0.00    +0.014 C 
ATOM     10  C   LIG A   1      -5.588  -2.182 126.996  0.00  0.00    +0.021 C 
ATOM     11  C   LIG A   1      -5.264  -0.901 126.197  0.00  0.00    +0.007 C 
ATOM     12  C   LIG A   1      -5.745  -0.964 124.746  0.00  0.00    +0.007 C 
ENDROOT
BRANCH  10  13
ATOM     13  C   LIG A   1      -5.147  -2.072 128.493  0.00  0.00    +0.063 C 
ATOM     14  C   LIG A   1      -4.137  -3.165 128.873  0.00  0.00    +0.041 C 
ATOM     15  C   LIG A   1      -6.343  -2.155 129.452  0.00  0.00    +0.041 C 
BRANCH  13  16
ATOM     16  O   LIG A   1      -4.512  -0.806 128.695  0.00  0.00    -0.389 OA
ATOM     17  H   LIG A   1      -3.860  -0.906 129.409  0.00  0.00    +0.210 HD
ENDBRANCH  13  16
ENDBRANCH  10  13
TORSDOF 2
ENDMDL
MODEL 7
REMARK VINA RESULT:      -6.0      3.561      5.512
REMARK  Name = NuBBE_966
REMARK  5 active torsions:
REMARK  status: ('A' for Active; 'I' for Inactive)
REMARK    1  A    between atoms: C_1  and  C_2
REMARK    2  A    between atoms: C_11  and  C_15
REMARK    3  A    between atoms: C_15  and  C_16
REMARK    4  A    between atoms: C_15  and  O_17
REMARK    5  A    between atoms: C_15  and  C_18
REMARK                            x       y       z     vdW  Elec       q    Type
REMARK                         _______ _______ _______ _____ _____    ______ ____
ROOT
ATOM      1  C   LIG A   1      -6.058  -0.483 127.532  0.00  0.00    +0.012 C 
ATOM      2  C   LIG A   1      -7.583  -0.353 127.767  0.00  0.00    -0.025 C 
ATOM      3  C   LIG A   1      -8.265  -1.730 128.010  0.00  0.00    +0.021 C 
ATOM      4  C   LIG A   1      -7.768  -2.348 129.313  0.00  0.00    -0.073 C 
ATOM      5  C   LIG A   1      -8.001  -1.469 130.522  0.00  0.00    +0.030 C 
ATOM      6  C   LIG A   1      -7.393  -0.081 130.326  0.00  0.00    +0.005 C 
ATOM      7  C   LIG A   1      -7.826   0.560 129.003  0.00  0.00    +0.007 C 
ATOM      8  C   LIG A   1      -7.169  -3.544 129.434  0.00  0.00    +0.008 C 
ATOM      9  C   LIG A   1      -8.198  -2.634 126.762  0.00  0.00    +0.014 C 
ATOM     10  C   LIG A   1      -8.834  -1.970 125.517  0.00  0.00    +0.021 C 
ATOM     11  C   LIG A   1      -8.213  -0.576 125.282  0.00  0.00    +0.007 C 
ATOM     12  C   LIG A   1      -8.235   0.306 126.532  0.00  0.00    +0.007 C 
ENDROOT
BRANCH  10  13
ATOM     13  C   LIG A   1      -8.742  -2.880 124.248  0.00  0.00    +0.063 C 
ATOM     14  C   LIG A   1      -7.871  -4.121 124.494  0.00  0.00    +0.041 C 
ATOM     15  C   LIG A   1      -8.183  -2.121 123.036  0.00  0.00    +0.041 C 
BRANCH  13  16
ATOM     16  O   LIG A   1     -10.057  -3.333 123.909  0.00  0.00    -0.389 OA
ATOM     17  H   LIG A   1     -10.138  -3.326 122.941  0.00  0.00    +0.210 HD
ENDBRANCH  13  16
ENDBRANCH  10  13
TORSDOF 2
ENDMDL
MODEL 8
REMARK VINA RESULT:      -5.9      8.756     10.619
REMARK  Name = NuBBE_966
REMARK  5 active torsions:
REMARK  status: ('A' for Active; 'I' for Inactive)
REMARK    1  A    between atoms: C_1  and  C_2
REMARK    2  A    between atoms: C_11  and  C_15
REMARK    3  A    between atoms: C_15  and  C_16
REMARK    4  A    between atoms: C_15  and  O_17
REMARK    5  A    between atoms: C_15  and  C_18
REMARK                            x       y       z     vdW  Elec       q    Type
REMARK                         _______ _______ _______ _____ _____    ______ ____
ROOT
ATOM      1  C   LIG A   1     -10.292   4.611 131.089  0.00  0.00    +0.012 C 
ATOM      2  C   LIG A   1     -10.168   6.011 131.739  0.00  0.00    -0.025 C 
ATOM      3  C   LIG A   1      -9.571   7.066 130.763  0.00  0.00    +0.021 C 
ATOM      4  C   LIG A   1     -10.523   7.312 129.597  0.00  0.00    -0.073 C 
ATOM      5  C   LIG A   1     -11.897   7.771 130.031  0.00  0.00    +0.030 C 
ATOM      6  C   LIG A   1     -12.520   6.798 131.029  0.00  0.00    +0.005 C 
ATOM      7  C   LIG A   1     -11.578   6.482 132.196  0.00  0.00    +0.007 C 
ATOM      8  C   LIG A   1     -10.229   7.145 128.297  0.00  0.00    +0.008 C 
ATOM      9  C   LIG A   1      -8.109   6.743 130.389  0.00  0.00    +0.014 C 
ATOM     10  C   LIG A   1      -7.193   6.630 131.630  0.00  0.00    +0.021 C 
ATOM     11  C   LIG A   1      -7.789   5.628 132.642  0.00  0.00    +0.007 C 
ATOM     12  C   LIG A   1      -9.253   5.918 132.980  0.00  0.00    +0.007 C 
ENDROOT
BRANCH  10  13
ATOM     13  C   LIG A   1      -5.717   6.279 131.249  0.00  0.00    +0.063 C 
ATOM     14  C   LIG A   1      -5.566   4.805 130.843  0.00  0.00    +0.041 C 
ATOM     15  C   LIG A   1      -4.741   6.573 132.397  0.00  0.00    +0.041 C 
BRANCH  13  16
ATOM     16  O   LIG A   1      -5.327   7.080 130.129  0.00  0.00    -0.389 OA
ATOM     17  H   LIG A   1      -4.524   6.690 129.744  0.00  0.00    +0.210 HD
ENDBRANCH  13  16
ENDBRANCH  10  13
TORSDOF 2
ENDMDL
MODEL 9
REMARK VINA RESULT:      -5.8      3.458      5.286
REMARK  Name = NuBBE_966
REMARK  5 active torsions:
REMARK  status: ('A' for Active; 'I' for Inactive)
REMARK    1  A    between atoms: C_1  and  C_2
REMARK    2  A    between atoms: C_11  and  C_15
REMARK    3  A    between atoms: C_15  and  C_16
REMARK    4  A    between atoms: C_15  and  O_17
REMARK    5  A    between atoms: C_15  and  C_18
REMARK                            x       y       z     vdW  Elec       q    Type
REMARK                         _______ _______ _______ _____ _____    ______ ____
ROOT
ATOM      1  C   LIG A   1      -7.041  -3.425 124.891  0.00  0.00    +0.012 C 
ATOM      2  C   LIG A   1      -8.439  -2.860 125.246  0.00  0.00    -0.025 C 
ATOM      3  C   LIG A   1      -8.393  -1.349 125.611  0.00  0.00    +0.021 C 
ATOM      4  C   LIG A   1      -7.986  -0.520 124.396  0.00  0.00    -0.073 C 
ATOM      5  C   LIG A   1      -8.902  -0.707 123.208  0.00  0.00    +0.030 C 
ATOM      6  C   LIG A   1      -9.027  -2.181 122.828  0.00  0.00    +0.005 C 
ATOM      7  C   LIG A   1      -9.388  -3.061 124.029  0.00  0.00    +0.007 C 
ATOM      8  C   LIG A   1      -6.926   0.302 124.329  0.00  0.00    +0.008 C 
ATOM      9  C   LIG A   1      -7.594  -1.093 126.906  0.00  0.00    +0.014 C 
ATOM     10  C   LIG A   1      -8.153  -1.884 128.112  0.00  0.00    +0.021 C 
ATOM     11  C   LIG A   1      -8.261  -3.384 127.760  0.00  0.00    +0.007 C 
ATOM     12  C   LIG A   1      -9.013  -3.638 126.451  0.00  0.00    +0.007 C 
ENDROOT
BRANCH  10  13
ATOM     13  C   LIG A   1      -7.326  -1.641 129.416  0.00  0.00    +0.063 C 
ATOM     14  C   LIG A   1      -7.370  -2.854 130.358  0.00  0.00    +0.041 C 
ATOM     15  C   LIG A   1      -7.816  -0.406 130.186  0.00  0.00    +0.041 C 
BRANCH  13  16
ATOM     16  O   LIG A   1      -5.957  -1.418 129.060  0.00  0.00    -0.389 OA
ATOM     17  H   LIG A   1      -5.404  -1.994 129.613  0.00  0.00    +0.210 HD
ENDBRANCH  13  16
ENDBRANCH  10  13
TORSDOF 2
ENDMDL
