MODEL 1
REMARK VINA RESULT:      -6.7      0.000      0.000
REMARK  Name = NuBBE_1308
REMARK  15 active torsions:
REMARK  status: ('A' for Active; 'I' for Inactive)
REMARK    1  A    between atoms: C_3  and  O_4
REMARK    2  A    between atoms: O_4  and  C_5
REMARK    3  A    between atoms: C_6  and  C_7
REMARK    4  A    between atoms: C_9  and  O_10
REMARK    5  A    between atoms: O_10  and  C_11
REMARK    6  A    between atoms: C_12  and  O_13
REMARK    7  A    between atoms: O_13  and  C_14
REMARK    8  A    between atoms: C_15  and  O_16
REMARK    9  A    between atoms: O_16  and  C_17
REMARK   10  A    between atoms: C_22  and  O_23
REMARK   11  A    between atoms: O_23  and  C_24
REMARK   12  A    between atoms: C_25  and  O_26
REMARK   13  A    between atoms: O_26  and  C_27
REMARK   14  A    between atoms: C_29  and  O_30
REMARK   15  A    between atoms: O_30  and  C_31
REMARK                            x       y       z     vdW  Elec       q    Type
REMARK                         _______ _______ _______ _____ _____    ______ ____
ROOT
ATOM      1  O   LIG A   1      -6.152   4.978 130.779  0.00  0.00    -0.283 OA
ATOM      2  C   LIG A   1      -7.188   4.590 130.158  0.00  0.00    +0.238 A 
ATOM      3  C   LIG A   1      -7.141   3.483 129.174  0.00  0.00    +0.211 A 
ATOM      4  C   LIG A   1      -7.886   3.744 128.055  0.00  0.00    +0.181 A 
ATOM      5  O   LIG A   1      -8.597   4.987 128.031  0.00  0.00    -0.447 OA
ATOM      6  C   LIG A   1      -8.478   5.237 130.370  0.00  0.00    +0.113 A 
ATOM      7  C   LIG A   1      -9.132   5.500 129.188  0.00  0.00    +0.188 A 
ATOM      8  C   LIG A   1     -10.291   6.296 129.193  0.00  0.00    +0.205 A 
ATOM      9  C   LIG A   1     -10.798   6.780 130.420  0.00  0.00    +0.169 A 
ATOM     10  C   LIG A   1     -10.147   6.435 131.615  0.00  0.00    +0.096 A 
ATOM     11  C   LIG A   1      -8.999   5.638 131.607  0.00  0.00    +0.138 A 
ENDROOT
BRANCH   4  12
ATOM     12  C   LIG A   1      -8.116   3.027 126.739  0.00  0.00    +0.028 A 
ATOM     13  C   LIG A   1      -8.131   3.502 125.440  0.00  0.00    +0.061 A 
ATOM     14  C   LIG A   1      -8.500   2.743 124.290  0.00  0.00    +0.166 A 
ATOM     15  C   LIG A   1      -8.861   1.399 124.395  0.00  0.00    +0.203 A 
ATOM     16  C   LIG A   1      -8.837   0.877 125.689  0.00  0.00    +0.166 A 
ATOM     17  C   LIG A   1      -8.397   1.662 126.774  0.00  0.00    +0.061 A 
BRANCH  14  18
ATOM     18  O   LIG A   1      -8.321   3.459 123.136  0.00  0.00    -0.491 OA
ATOM     19  C   LIG A   1      -7.073   3.214 122.504  0.00  0.00    +0.277 C 
ENDBRANCH  14  18
BRANCH  15  20
ATOM     20  O   LIG A   1      -9.073   0.464 123.422  0.00  0.00    -0.488 OA
ATOM     21  C   LIG A   1     -10.181   0.521 122.545  0.00  0.00    +0.277 C 
ENDBRANCH  15  20
BRANCH  16  22
ATOM     22  O   LIG A   1      -9.252  -0.425 125.877  0.00  0.00    -0.491 OA
ATOM     23  C   LIG A   1      -8.268  -1.250 126.495  0.00  0.00    +0.277 C 
ENDBRANCH  16  22
ENDBRANCH   4  12
BRANCH   3  24
ATOM     24  O   LIG A   1      -6.424   2.407 129.599  0.00  0.00    -0.488 OA
ATOM     25  C   LIG A   1      -6.985   1.325 130.299  0.00  0.00    +0.277 C 
ENDBRANCH   3  24
BRANCH   8  26
ATOM     26  O   LIG A   1     -11.054   6.604 128.096  0.00  0.00    -0.488 OA
ATOM     27  C   LIG A   1     -10.641   7.687 127.292  0.00  0.00    +0.277 C 
ENDBRANCH   8  26
BRANCH   9  28
ATOM     28  O   LIG A   1     -11.977   7.484 130.365  0.00  0.00    -0.491 OA
ATOM     29  C   LIG A   1     -12.864   7.423 131.478  0.00  0.00    +0.277 C 
ENDBRANCH   9  28
BRANCH  11  30
ATOM     30  O   LIG A   1      -8.470   5.360 132.839  0.00  0.00    -0.494 OA
ATOM     31  C   LIG A   1      -8.965   4.196 133.505  0.00  0.00    +0.277 C 
ENDBRANCH  11  30
TORSDOF 8
ENDMDL
MODEL 2
REMARK VINA RESULT:      -6.6      1.897      7.761
REMARK  Name = NuBBE_1308
REMARK  15 active torsions:
REMARK  status: ('A' for Active; 'I' for Inactive)
REMARK    1  A    between atoms: C_3  and  O_4
REMARK    2  A    between atoms: O_4  and  C_5
REMARK    3  A    between atoms: C_6  and  C_7
REMARK    4  A    between atoms: C_9  and  O_10
REMARK    5  A    between atoms: O_10  and  C_11
REMARK    6  A    between atoms: C_12  and  O_13
REMARK    7  A    between atoms: O_13  and  C_14
REMARK    8  A    between atoms: C_15  and  O_16
REMARK    9  A    between atoms: O_16  and  C_17
REMARK   10  A    between atoms: C_22  and  O_23
REMARK   11  A    between atoms: O_23  and  C_24
REMARK   12  A    between atoms: C_25  and  O_26
REMARK   13  A    between atoms: O_26  and  C_27
REMARK   14  A    between atoms: C_29  and  O_30
REMARK   15  A    between atoms: O_30  and  C_31
REMARK                            x       y       z     vdW  Elec       q    Type
REMARK                         _______ _______ _______ _____ _____    ______ ____
ROOT
ATOM      1  O   LIG A   1      -8.407  -1.712 126.612  0.00  0.00    -0.283 OA
ATOM      2  C   LIG A   1      -8.034  -0.512 126.784  0.00  0.00    +0.238 A 
ATOM      3  C   LIG A   1      -7.877   0.071 128.137  0.00  0.00    +0.211 A 
ATOM      4  C   LIG A   1      -8.364   1.348 128.218  0.00  0.00    +0.181 A 
ATOM      5  O   LIG A   1      -8.895   1.911 127.013  0.00  0.00    -0.447 OA
ATOM      6  C   LIG A   1      -7.762   0.361 125.649  0.00  0.00    +0.113 A 
ATOM      7  C   LIG A   1      -8.327   1.607 125.799  0.00  0.00    +0.188 A 
ATOM      8  C   LIG A   1      -8.336   2.506 124.717  0.00  0.00    +0.205 A 
ATOM      9  C   LIG A   1      -7.721   2.136 123.500  0.00  0.00    +0.169 A 
ATOM     10  C   LIG A   1      -7.091   0.886 123.401  0.00  0.00    +0.096 A 
ATOM     11  C   LIG A   1      -7.079  -0.003 124.480  0.00  0.00    +0.138 A 
ENDROOT
BRANCH   4  12
ATOM     12  C   LIG A   1      -8.537   2.352 129.340  0.00  0.00    +0.028 A 
ATOM     13  C   LIG A   1      -8.791   2.168 130.688  0.00  0.00    +0.061 A 
ATOM     14  C   LIG A   1      -9.071   3.209 131.622  0.00  0.00    +0.166 A 
ATOM     15  C   LIG A   1      -9.081   4.549 131.232  0.00  0.00    +0.203 A 
ATOM     16  C   LIG A   1      -8.807   4.776 129.883  0.00  0.00    +0.166 A 
ATOM     17  C   LIG A   1      -8.472   3.709 129.026  0.00  0.00    +0.061 A 
BRANCH  14  18
ATOM     18  O   LIG A   1      -9.183   2.723 132.898  0.00  0.00    -0.491 OA
ATOM     19  C   LIG A   1      -7.996   2.866 133.666  0.00  0.00    +0.277 C 
ENDBRANCH  14  18
BRANCH  15  20
ATOM     20  O   LIG A   1      -9.150   5.687 131.985  0.00  0.00    -0.488 OA
ATOM     21  C   LIG A   1     -10.350   6.120 132.595  0.00  0.00    +0.277 C 
ENDBRANCH  15  20
BRANCH  16  22
ATOM     22  O   LIG A   1      -8.873   6.072 129.411  0.00  0.00    -0.491 OA
ATOM     23  C   LIG A   1     -10.137   6.405 128.844  0.00  0.00    +0.277 C 
ENDBRANCH  16  22
ENDBRANCH   4  12
BRANCH   3  24
ATOM     24  O   LIG A   1      -7.229  -0.747 129.011  0.00  0.00    -0.488 OA
ATOM     25  C   LIG A   1      -7.861  -1.395 130.085  0.00  0.00    +0.277 C 
ENDBRANCH   3  24
BRANCH   8  26
ATOM     26  O   LIG A   1      -8.832   3.784 124.744  0.00  0.00    -0.488 OA
ATOM     27  C   LIG A   1      -8.115   4.751 125.480  0.00  0.00    +0.277 C 
ENDBRANCH   8  26
BRANCH   9  28
ATOM     28  O   LIG A   1      -7.692   3.088 122.510  0.00  0.00    -0.491 OA
ATOM     29  C   LIG A   1      -6.435   3.460 121.952  0.00  0.00    +0.277 C 
ENDBRANCH   9  28
BRANCH  11  30
ATOM     30  O   LIG A   1      -6.417  -1.181 124.261  0.00  0.00    -0.494 OA
ATOM     31  C   LIG A   1      -6.839  -1.959 123.139  0.00  0.00    +0.277 C 
ENDBRANCH  11  30
TORSDOF 8
ENDMDL
MODEL 3
REMARK VINA RESULT:      -6.6      3.153      8.332
REMARK  Name = NuBBE_1308
REMARK  15 active torsions:
REMARK  status: ('A' for Active; 'I' for Inactive)
REMARK    1  A    between atoms: C_3  and  O_4
REMARK    2  A    between atoms: O_4  and  C_5
REMARK    3  A    between atoms: C_6  and  C_7
REMARK    4  A    between atoms: C_9  and  O_10
REMARK    5  A    between atoms: O_10  and  C_11
REMARK    6  A    between atoms: C_12  and  O_13
REMARK    7  A    between atoms: O_13  and  C_14
REMARK    8  A    between atoms: C_15  and  O_16
REMARK    9  A    between atoms: O_16  and  C_17
REMARK   10  A    between atoms: C_22  and  O_23
REMARK   11  A    between atoms: O_23  and  C_24
REMARK   12  A    between atoms: C_25  and  O_26
REMARK   13  A    between atoms: O_26  and  C_27
REMARK   14  A    between atoms: C_29  and  O_30
REMARK   15  A    between atoms: O_30  and  C_31
REMARK                            x       y       z     vdW  Elec       q    Type
REMARK                         _______ _______ _______ _____ _____    ______ ____
ROOT
ATOM      1  O   LIG A   1      -7.014  -0.640 122.878  0.00  0.00    -0.283 OA
ATOM      2  C   LIG A   1      -7.162  -0.140 124.035  0.00  0.00    +0.238 A 
ATOM      3  C   LIG A   1      -6.817   1.272 124.326  0.00  0.00    +0.211 A 
ATOM      4  C   LIG A   1      -6.173   1.418 125.525  0.00  0.00    +0.181 A 
ATOM      5  O   LIG A   1      -5.974   0.228 126.297  0.00  0.00    -0.447 OA
ATOM      6  C   LIG A   1      -7.659  -0.945 125.143  0.00  0.00    +0.113 A 
ATOM      7  C   LIG A   1      -6.923  -0.766 126.292  0.00  0.00    +0.188 A 
ATOM      8  C   LIG A   1      -7.136  -1.609 127.398  0.00  0.00    +0.205 A 
ATOM      9  C   LIG A   1      -8.139  -2.603 127.332  0.00  0.00    +0.169 A 
ATOM     10  C   LIG A   1      -8.921  -2.714 126.172  0.00  0.00    +0.096 A 
ATOM     11  C   LIG A   1      -8.710  -1.870 125.077  0.00  0.00    +0.138 A 
ENDROOT
BRANCH   4  12
ATOM     12  C   LIG A   1      -5.536   2.583 126.256  0.00  0.00    +0.028 A 
ATOM     13  C   LIG A   1      -4.213   2.971 126.361  0.00  0.00    +0.061 A 
ATOM     14  C   LIG A   1      -3.725   4.017 127.199  0.00  0.00    +0.166 A 
ATOM     15  C   LIG A   1      -4.593   4.776 127.987  0.00  0.00    +0.203 A 
ATOM     16  C   LIG A   1      -5.940   4.428 127.892  0.00  0.00    +0.166 A 
ATOM     17  C   LIG A   1      -6.364   3.429 126.993  0.00  0.00    +0.061 A 
BRANCH  14  18
ATOM     18  O   LIG A   1      -2.385   4.229 127.012  0.00  0.00    -0.491 OA
ATOM     19  C   LIG A   1      -1.670   3.056 126.653  0.00  0.00    +0.277 C 
ENDBRANCH  14  18
BRANCH  15  20
ATOM     20  O   LIG A   1      -4.361   5.912 128.710  0.00  0.00    -0.488 OA
ATOM     21  C   LIG A   1      -3.669   5.898 129.943  0.00  0.00    +0.277 C 
ENDBRANCH  15  20
BRANCH  16  22
ATOM     22  O   LIG A   1      -6.844   5.088 128.698  0.00  0.00    -0.491 OA
ATOM     23  C   LIG A   1      -7.428   4.254 129.696  0.00  0.00    +0.277 C 
ENDBRANCH  16  22
ENDBRANCH   4  12
BRANCH   3  24
ATOM     24  O   LIG A   1      -7.261   2.146 123.382  0.00  0.00    -0.488 OA
ATOM     25  C   LIG A   1      -8.328   3.038 123.587  0.00  0.00    +0.277 C 
ENDBRANCH   3  24
BRANCH   8  26
ATOM     26  O   LIG A   1      -6.499  -1.516 128.608  0.00  0.00    -0.488 OA
ATOM     27  C   LIG A   1      -5.195  -2.046 128.706  0.00  0.00    +0.277 C 
ENDBRANCH   8  26
BRANCH   9  28
ATOM     28  O   LIG A   1      -8.352  -3.339 128.473  0.00  0.00    -0.491 OA
ATOM     29  C   LIG A   1      -9.427  -4.274 128.494  0.00  0.00    +0.277 C 
ENDBRANCH   9  28
BRANCH  11  30
ATOM     30  O   LIG A   1      -9.550  -2.069 124.014  0.00  0.00    -0.494 OA
ATOM     31  C   LIG A   1      -9.463  -3.333 123.351  0.00  0.00    +0.277 C 
ENDBRANCH  11  30
TORSDOF 8
ENDMDL
MODEL 4
REMARK VINA RESULT:      -6.4      3.177      8.460
REMARK  Name = NuBBE_1308
REMARK  15 active torsions:
REMARK  status: ('A' for Active; 'I' for Inactive)
REMARK    1  A    between atoms: C_3  and  O_4
REMARK    2  A    between atoms: O_4  and  C_5
REMARK    3  A    between atoms: C_6  and  C_7
REMARK    4  A    between atoms: C_9  and  O_10
REMARK    5  A    between atoms: O_10  and  C_11
REMARK    6  A    between atoms: C_12  and  O_13
REMARK    7  A    between atoms: O_13  and  C_14
REMARK    8  A    between atoms: C_15  and  O_16
REMARK    9  A    between atoms: O_16  and  C_17
REMARK   10  A    between atoms: C_22  and  O_23
REMARK   11  A    between atoms: O_23  and  C_24
REMARK   12  A    between atoms: C_25  and  O_26
REMARK   13  A    between atoms: O_26  and  C_27
REMARK   14  A    between atoms: C_29  and  O_30
REMARK   15  A    between atoms: O_30  and  C_31
REMARK                            x       y       z     vdW  Elec       q    Type
REMARK                         _______ _______ _______ _____ _____    ______ ____
ROOT
ATOM      1  O   LIG A   1      -6.865  -0.305 123.101  0.00  0.00    -0.283 OA
ATOM      2  C   LIG A   1      -7.059   0.070 124.298  0.00  0.00    +0.238 A 
ATOM      3  C   LIG A   1      -6.758   1.452 124.742  0.00  0.00    +0.211 A 
ATOM      4  C   LIG A   1      -6.152   1.488 125.969  0.00  0.00    +0.181 A 
ATOM      5  O   LIG A   1      -5.947   0.230 126.622  0.00  0.00    -0.447 OA
ATOM      6  C   LIG A   1      -7.568  -0.855 125.302  0.00  0.00    +0.113 A 
ATOM      7  C   LIG A   1      -6.870  -0.778 126.486  0.00  0.00    +0.188 A 
ATOM      8  C   LIG A   1      -7.095  -1.735 127.493  0.00  0.00    +0.205 A 
ATOM      9  C   LIG A   1      -8.070  -2.738 127.295  0.00  0.00    +0.169 A 
ATOM     10  C   LIG A   1      -8.815  -2.746 126.106  0.00  0.00    +0.096 A 
ATOM     11  C   LIG A   1      -8.593  -1.791 125.109  0.00  0.00    +0.138 A 
ENDROOT
BRANCH   4  12
ATOM     12  C   LIG A   1      -5.567   2.586 126.834  0.00  0.00    +0.028 A 
ATOM     13  C   LIG A   1      -6.176   3.483 127.694  0.00  0.00    +0.061 A 
ATOM     14  C   LIG A   1      -5.522   4.567 128.351  0.00  0.00    +0.166 A 
ATOM     15  C   LIG A   1      -4.154   4.793 128.188  0.00  0.00    +0.203 A 
ATOM     16  C   LIG A   1      -3.500   3.895 127.344  0.00  0.00    +0.166 A 
ATOM     17  C   LIG A   1      -4.191   2.804 126.778  0.00  0.00    +0.061 A 
BRANCH  14  18
ATOM     18  O   LIG A   1      -6.366   5.216 129.212  0.00  0.00    -0.491 OA
ATOM     19  C   LIG A   1      -7.617   4.564 129.380  0.00  0.00    +0.277 C 
ENDBRANCH  14  18
BRANCH  15  20
ATOM     20  O   LIG A   1      -3.316   5.647 128.848  0.00  0.00    -0.488 OA
ATOM     21  C   LIG A   1      -3.328   7.043 128.625  0.00  0.00    +0.277 C 
ENDBRANCH  15  20
BRANCH  16  22
ATOM     22  O   LIG A   1      -2.162   4.102 127.079  0.00  0.00    -0.491 OA
ATOM     23  C   LIG A   1      -1.520   2.976 126.486  0.00  0.00    +0.277 C 
ENDBRANCH  16  22
ENDBRANCH   4  12
BRANCH   3  24
ATOM     24  O   LIG A   1      -7.196   2.408 123.878  0.00  0.00    -0.488 OA
ATOM     25  C   LIG A   1      -6.355   3.367 123.288  0.00  0.00    +0.277 C 
ENDBRANCH   3  24
BRANCH   8  26
ATOM     26  O   LIG A   1      -6.496  -1.752 128.726  0.00  0.00    -0.488 OA
ATOM     27  C   LIG A   1      -5.185  -2.269 128.812  0.00  0.00    +0.277 C 
ENDBRANCH   8  26
BRANCH   9  28
ATOM     28  O   LIG A   1      -8.298  -3.591 128.348  0.00  0.00    -0.491 OA
ATOM     29  C   LIG A   1      -9.522  -4.320 128.388  0.00  0.00    +0.277 C 
ENDBRANCH   9  28
BRANCH  11  30
ATOM     30  O   LIG A   1      -9.397  -1.898 124.006  0.00  0.00    -0.494 OA
ATOM     31  C   LIG A   1      -9.391  -3.155 123.324  0.00  0.00    +0.277 C 
ENDBRANCH  11  30
TORSDOF 8
ENDMDL
MODEL 5
REMARK VINA RESULT:      -6.4      2.087      7.673
REMARK  Name = NuBBE_1308
REMARK  15 active torsions:
REMARK  status: ('A' for Active; 'I' for Inactive)
REMARK    1  A    between atoms: C_3  and  O_4
REMARK    2  A    between atoms: O_4  and  C_5
REMARK    3  A    between atoms: C_6  and  C_7
REMARK    4  A    between atoms: C_9  and  O_10
REMARK    5  A    between atoms: O_10  and  C_11
REMARK    6  A    between atoms: C_12  and  O_13
REMARK    7  A    between atoms: O_13  and  C_14
REMARK    8  A    between atoms: C_15  and  O_16
REMARK    9  A    between atoms: O_16  and  C_17
REMARK   10  A    between atoms: C_22  and  O_23
REMARK   11  A    between atoms: O_23  and  C_24
REMARK   12  A    between atoms: C_25  and  O_26
REMARK   13  A    between atoms: O_26  and  C_27
REMARK   14  A    between atoms: C_29  and  O_30
REMARK   15  A    between atoms: O_30  and  C_31
REMARK                            x       y       z     vdW  Elec       q    Type
REMARK                         _______ _______ _______ _____ _____    ______ ____
ROOT
ATOM      1  O   LIG A   1      -8.492  -1.769 126.328  0.00  0.00    -0.283 OA
ATOM      2  C   LIG A   1      -8.071  -0.603 126.599  0.00  0.00    +0.238 A 
ATOM      3  C   LIG A   1      -7.835  -0.162 127.994  0.00  0.00    +0.211 A 
ATOM      4  C   LIG A   1      -8.274   1.114 128.221  0.00  0.00    +0.181 A 
ATOM      5  O   LIG A   1      -8.838   1.809 127.103  0.00  0.00    -0.447 OA
ATOM      6  C   LIG A   1      -7.820   0.369 125.542  0.00  0.00    +0.113 A 
ATOM      7  C   LIG A   1      -8.335   1.610 125.840  0.00  0.00    +0.188 A 
ATOM      8  C   LIG A   1      -8.361   2.612 124.853  0.00  0.00    +0.205 A 
ATOM      9  C   LIG A   1      -7.813   2.346 123.578  0.00  0.00    +0.169 A 
ATOM     10  C   LIG A   1      -7.231   1.094 123.328  0.00  0.00    +0.096 A 
ATOM     11  C   LIG A   1      -7.202   0.102 124.313  0.00  0.00    +0.138 A 
ENDROOT
BRANCH   4  12
ATOM     12  C   LIG A   1      -8.363   2.007 129.443  0.00  0.00    +0.028 A 
ATOM     13  C   LIG A   1      -9.335   2.909 129.836  0.00  0.00    +0.061 A 
ATOM     14  C   LIG A   1      -9.233   3.797 130.949  0.00  0.00    +0.166 A 
ATOM     15  C   LIG A   1      -8.108   3.796 131.774  0.00  0.00    +0.203 A 
ATOM     16  C   LIG A   1      -7.114   2.883 131.422  0.00  0.00    +0.166 A 
ATOM     17  C   LIG A   1      -7.304   1.987 130.351  0.00  0.00    +0.061 A 
BRANCH  14  18
ATOM     18  O   LIG A   1     -10.395   4.498 131.141  0.00  0.00    -0.491 OA
ATOM     19  C   LIG A   1     -10.305   5.861 130.753  0.00  0.00    +0.277 C 
ENDBRANCH  14  18
BRANCH  15  20
ATOM     20  O   LIG A   1      -7.888   4.425 132.967  0.00  0.00    -0.488 OA
ATOM     21  C   LIG A   1      -8.579   4.070 134.149  0.00  0.00    +0.277 C 
ENDBRANCH  15  20
BRANCH  16  22
ATOM     22  O   LIG A   1      -5.942   2.879 132.150  0.00  0.00    -0.491 OA
ATOM     23  C   LIG A   1      -4.817   3.356 131.416  0.00  0.00    +0.277 C 
ENDBRANCH  16  22
ENDBRANCH   4  12
BRANCH   3  24
ATOM     24  O   LIG A   1      -7.177  -1.082 128.751  0.00  0.00    -0.488 OA
ATOM     25  C   LIG A   1      -7.757  -1.749 129.844  0.00  0.00    +0.277 C 
ENDBRANCH   3  24
BRANCH   8  26
ATOM     26  O   LIG A   1      -8.812   3.895 125.028  0.00  0.00    -0.488 OA
ATOM     27  C   LIG A   1      -8.000   4.781 125.768  0.00  0.00    +0.277 C 
ENDBRANCH   8  26
BRANCH   9  28
ATOM     28  O   LIG A   1      -7.796   3.391 122.685  0.00  0.00    -0.491 OA
ATOM     29  C   LIG A   1      -6.685   3.521 121.803  0.00  0.00    +0.277 C 
ENDBRANCH   9  28
BRANCH  11  30
ATOM     30  O   LIG A   1      -6.591  -1.067 123.949  0.00  0.00    -0.494 OA
ATOM     31  C   LIG A   1      -7.146  -1.763 122.830  0.00  0.00    +0.277 C 
ENDBRANCH  11  30
TORSDOF 8
ENDMDL
MODEL 6
REMARK VINA RESULT:      -6.3      2.543      4.575
REMARK  Name = NuBBE_1308
REMARK  15 active torsions:
REMARK  status: ('A' for Active; 'I' for Inactive)
REMARK    1  A    between atoms: C_3  and  O_4
REMARK    2  A    between atoms: O_4  and  C_5
REMARK    3  A    between atoms: C_6  and  C_7
REMARK    4  A    between atoms: C_9  and  O_10
REMARK    5  A    between atoms: O_10  and  C_11
REMARK    6  A    between atoms: C_12  and  O_13
REMARK    7  A    between atoms: O_13  and  C_14
REMARK    8  A    between atoms: C_15  and  O_16
REMARK    9  A    between atoms: O_16  and  C_17
REMARK   10  A    between atoms: C_22  and  O_23
REMARK   11  A    between atoms: O_23  and  C_24
REMARK   12  A    between atoms: C_25  and  O_26
REMARK   13  A    between atoms: O_26  and  C_27
REMARK   14  A    between atoms: C_29  and  O_30
REMARK   15  A    between atoms: O_30  and  C_31
REMARK                            x       y       z     vdW  Elec       q    Type
REMARK                         _______ _______ _______ _____ _____    ______ ____
ROOT
ATOM      1  O   LIG A   1      -8.552   5.347 127.540  0.00  0.00    -0.283 OA
ATOM      2  C   LIG A   1      -8.229   4.244 128.077  0.00  0.00    +0.238 A 
ATOM      3  C   LIG A   1      -7.833   3.067 127.267  0.00  0.00    +0.211 A 
ATOM      4  C   LIG A   1      -8.374   1.901 127.739  0.00  0.00    +0.181 A 
ATOM      5  O   LIG A   1      -9.177   1.996 128.921  0.00  0.00    -0.447 OA
ATOM      6  C   LIG A   1      -8.253   4.077 129.525  0.00  0.00    +0.113 A 
ATOM      7  C   LIG A   1      -8.854   2.899 129.905  0.00  0.00    +0.188 A 
ATOM      8  C   LIG A   1      -9.143   2.669 131.263  0.00  0.00    +0.205 A 
ATOM      9  C   LIG A   1      -8.770   3.632 132.227  0.00  0.00    +0.169 A 
ATOM     10  C   LIG A   1      -8.096   4.791 131.814  0.00  0.00    +0.096 A 
ATOM     11  C   LIG A   1      -7.805   5.015 130.465  0.00  0.00    +0.138 A 
ENDROOT
BRANCH   4  12
ATOM     12  C   LIG A   1      -8.375   0.461 127.266  0.00  0.00    +0.028 A 
ATOM     13  C   LIG A   1      -7.761  -0.664 127.788  0.00  0.00    +0.061 A 
ATOM     14  C   LIG A   1      -7.727  -1.947 127.165  0.00  0.00    +0.166 A 
ATOM     15  C   LIG A   1      -8.363  -2.176 125.945  0.00  0.00    +0.203 A 
ATOM     16  C   LIG A   1      -9.012  -1.069 125.396  0.00  0.00    +0.166 A 
ATOM     17  C   LIG A   1      -9.066   0.154 126.095  0.00  0.00    +0.061 A 
BRANCH  14  18
ATOM     18  O   LIG A   1      -7.130  -2.881 127.971  0.00  0.00    -0.491 OA
ATOM     19  C   LIG A   1      -7.983  -3.379 128.991  0.00  0.00    +0.277 C 
ENDBRANCH  14  18
BRANCH  15  20
ATOM     20  O   LIG A   1      -8.597  -3.345 125.277  0.00  0.00    -0.488 OA
ATOM     21  C   LIG A   1      -7.617  -3.965 124.468  0.00  0.00    +0.277 C 
ENDBRANCH  15  20
BRANCH  16  22
ATOM     22  O   LIG A   1      -9.599  -1.204 124.155  0.00  0.00    -0.491 OA
ATOM     23  C   LIG A   1      -8.897  -0.524 123.118  0.00  0.00    +0.277 C 
ENDBRANCH  16  22
ENDBRANCH   4  12
BRANCH   3  24
ATOM     24  O   LIG A   1      -6.968   3.366 126.260  0.00  0.00    -0.488 OA
ATOM     25  C   LIG A   1      -5.622   3.711 126.467  0.00  0.00    +0.277 C 
ENDBRANCH   3  24
BRANCH   8  26
ATOM     26  O   LIG A   1      -9.704   1.528 131.778  0.00  0.00    -0.488 OA
ATOM     27  C   LIG A   1      -8.917   0.357 131.789  0.00  0.00    +0.277 C 
ENDBRANCH   8  26
BRANCH   9  28
ATOM     28  O   LIG A   1      -9.008   3.311 133.542  0.00  0.00    -0.491 OA
ATOM     29  C   LIG A   1      -8.599   4.225 134.555  0.00  0.00    +0.277 C 
ENDBRANCH   9  28
BRANCH  11  30
ATOM     30  O   LIG A   1      -7.129   6.174 130.196  0.00  0.00    -0.494 OA
ATOM     31  C   LIG A   1      -6.524   6.841 131.307  0.00  0.00    +0.277 C 
ENDBRANCH  11  30
TORSDOF 8
ENDMDL
MODEL 7
REMARK VINA RESULT:      -6.3      2.168      7.631
REMARK  Name = NuBBE_1308
REMARK  15 active torsions:
REMARK  status: ('A' for Active; 'I' for Inactive)
REMARK    1  A    between atoms: C_3  and  O_4
REMARK    2  A    between atoms: O_4  and  C_5
REMARK    3  A    between atoms: C_6  and  C_7
REMARK    4  A    between atoms: C_9  and  O_10
REMARK    5  A    between atoms: O_10  and  C_11
REMARK    6  A    between atoms: C_12  and  O_13
REMARK    7  A    between atoms: O_13  and  C_14
REMARK    8  A    between atoms: C_15  and  O_16
REMARK    9  A    between atoms: O_16  and  C_17
REMARK   10  A    between atoms: C_22  and  O_23
REMARK   11  A    between atoms: O_23  and  C_24
REMARK   12  A    between atoms: C_25  and  O_26
REMARK   13  A    between atoms: O_26  and  C_27
REMARK   14  A    between atoms: C_29  and  O_30
REMARK   15  A    between atoms: O_30  and  C_31
REMARK                            x       y       z     vdW  Elec       q    Type
REMARK                         _______ _______ _______ _____ _____    ______ ____
ROOT
ATOM      1  O   LIG A   1      -4.080   3.800 125.094  0.00  0.00    -0.283 OA
ATOM      2  C   LIG A   1      -5.247   4.021 125.541  0.00  0.00    +0.238 A 
ATOM      3  C   LIG A   1      -5.471   4.663 126.857  0.00  0.00    +0.211 A 
ATOM      4  C   LIG A   1      -6.482   4.069 127.565  0.00  0.00    +0.181 A 
ATOM      5  O   LIG A   1      -7.163   2.984 126.926  0.00  0.00    -0.447 OA
ATOM      6  C   LIG A   1      -6.428   3.628 124.782  0.00  0.00    +0.113 A 
ATOM      7  C   LIG A   1      -7.369   3.001 125.568  0.00  0.00    +0.188 A 
ATOM      8  C   LIG A   1      -8.479   2.379 124.966  0.00  0.00    +0.205 A 
ATOM      9  C   LIG A   1      -8.639   2.447 123.564  0.00  0.00    +0.169 A 
ATOM     10  C   LIG A   1      -7.700   3.155 122.799  0.00  0.00    +0.096 A 
ATOM     11  C   LIG A   1      -6.601   3.776 123.400  0.00  0.00    +0.138 A 
ENDROOT
BRANCH   4  12
ATOM     12  C   LIG A   1      -7.058   4.253 128.955  0.00  0.00    +0.028 A 
ATOM     13  C   LIG A   1      -6.434   4.396 130.181  0.00  0.00    +0.061 A 
ATOM     14  C   LIG A   1      -7.097   4.423 131.444  0.00  0.00    +0.166 A 
ATOM     15  C   LIG A   1      -8.487   4.334 131.533  0.00  0.00    +0.203 A 
ATOM     16  C   LIG A   1      -9.154   4.211 130.314  0.00  0.00    +0.166 A 
ATOM     17  C   LIG A   1      -8.445   4.258 129.097  0.00  0.00    +0.061 A 
BRANCH  14  18
ATOM     18  O   LIG A   1      -6.221   4.674 132.467  0.00  0.00    -0.491 OA
ATOM     19  C   LIG A   1      -5.569   5.931 132.361  0.00  0.00    +0.277 C 
ENDBRANCH  14  18
BRANCH  15  20
ATOM     20  O   LIG A   1      -9.316   4.514 132.605  0.00  0.00    -0.488 OA
ATOM     21  C   LIG A   1      -9.232   3.716 133.769  0.00  0.00    +0.277 C 
ENDBRANCH  15  20
BRANCH  16  22
ATOM     22  O   LIG A   1     -10.523   4.044 130.332  0.00  0.00    -0.491 OA
ATOM     23  C   LIG A   1     -11.244   5.245 130.066  0.00  0.00    +0.277 C 
ENDBRANCH  16  22
ENDBRANCH   4  12
BRANCH   3  24
ATOM     24  O   LIG A   1      -4.677   5.746 127.076  0.00  0.00    -0.488 OA
ATOM     25  C   LIG A   1      -3.645   5.774 128.030  0.00  0.00    +0.277 C 
ENDBRANCH   3  24
BRANCH   8  26
ATOM     26  O   LIG A   1      -9.502   1.754 125.631  0.00  0.00    -0.488 OA
ATOM     27  C   LIG A   1      -9.266   0.451 126.122  0.00  0.00    +0.277 C 
ENDBRANCH   8  26
BRANCH   9  28
ATOM     28  O   LIG A   1      -9.785   1.891 123.048  0.00  0.00    -0.491 OA
ATOM     29  C   LIG A   1      -9.719   0.583 122.486  0.00  0.00    +0.277 C 
ENDBRANCH   9  28
BRANCH  11  30
ATOM     30  O   LIG A   1      -5.769   4.449 122.545  0.00  0.00    -0.494 OA
ATOM     31  C   LIG A   1      -5.541   3.854 121.266  0.00  0.00    +0.277 C 
ENDBRANCH  11  30
TORSDOF 8
ENDMDL
MODEL 8
REMARK VINA RESULT:      -6.2      3.269      4.575
REMARK  Name = NuBBE_1308
REMARK  15 active torsions:
REMARK  status: ('A' for Active; 'I' for Inactive)
REMARK    1  A    between atoms: C_3  and  O_4
REMARK    2  A    between atoms: O_4  and  C_5
REMARK    3  A    between atoms: C_6  and  C_7
REMARK    4  A    between atoms: C_9  and  O_10
REMARK    5  A    between atoms: O_10  and  C_11
REMARK    6  A    between atoms: C_12  and  O_13
REMARK    7  A    between atoms: O_13  and  C_14
REMARK    8  A    between atoms: C_15  and  O_16
REMARK    9  A    between atoms: O_16  and  C_17
REMARK   10  A    between atoms: C_22  and  O_23
REMARK   11  A    between atoms: O_23  and  C_24
REMARK   12  A    between atoms: C_25  and  O_26
REMARK   13  A    between atoms: O_26  and  C_27
REMARK   14  A    between atoms: C_29  and  O_30
REMARK   15  A    between atoms: O_30  and  C_31
REMARK                            x       y       z     vdW  Elec       q    Type
REMARK                         _______ _______ _______ _____ _____    ______ ____
ROOT
ATOM      1  O   LIG A   1      -1.902   6.551 128.560  0.00  0.00    -0.283 OA
ATOM      2  C   LIG A   1      -2.857   5.719 128.626  0.00  0.00    +0.238 A 
ATOM      3  C   LIG A   1      -3.229   4.863 127.476  0.00  0.00    +0.211 A 
ATOM      4  C   LIG A   1      -4.585   4.766 127.310  0.00  0.00    +0.181 A 
ATOM      5  O   LIG A   1      -5.400   5.454 128.266  0.00  0.00    -0.447 OA
ATOM      6  C   LIG A   1      -3.653   5.584 129.840  0.00  0.00    +0.113 A 
ATOM      7  C   LIG A   1      -5.004   5.540 129.579  0.00  0.00    +0.188 A 
ATOM      8  C   LIG A   1      -5.923   5.613 130.640  0.00  0.00    +0.205 A 
ATOM      9  C   LIG A   1      -5.449   5.684 131.969  0.00  0.00    +0.169 A 
ATOM     10  C   LIG A   1      -4.066   5.656 132.207  0.00  0.00    +0.096 A 
ATOM     11  C   LIG A   1      -3.154   5.577 131.150  0.00  0.00    +0.138 A 
ENDROOT
BRANCH   4  12
ATOM     12  C   LIG A   1      -5.487   4.117 126.280  0.00  0.00    +0.028 A 
ATOM     13  C   LIG A   1      -5.425   4.111 124.898  0.00  0.00    +0.061 A 
ATOM     14  C   LIG A   1      -6.422   3.574 124.031  0.00  0.00    +0.166 A 
ATOM     15  C   LIG A   1      -7.569   2.962 124.539  0.00  0.00    +0.203 A 
ATOM     16  C   LIG A   1      -7.658   2.930 125.931  0.00  0.00    +0.166 A 
ATOM     17  C   LIG A   1      -6.606   3.418 126.732  0.00  0.00    +0.061 A 
BRANCH  14  18
ATOM     18  O   LIG A   1      -6.031   3.628 122.719  0.00  0.00    -0.491 OA
ATOM     19  C   LIG A   1      -4.968   4.539 122.481  0.00  0.00    +0.277 C 
ENDBRANCH  14  18
BRANCH  15  20
ATOM     20  O   LIG A   1      -8.541   2.243 123.903  0.00  0.00    -0.488 OA
ATOM     21  C   LIG A   1      -8.321   0.931 123.423  0.00  0.00    +0.277 C 
ENDBRANCH  15  20
BRANCH  16  22
ATOM     22  O   LIG A   1      -8.800   2.406 126.502  0.00  0.00    -0.491 OA
ATOM     23  C   LIG A   1      -8.537   1.382 127.458  0.00  0.00    +0.277 C 
ENDBRANCH  16  22
ENDBRANCH   4  12
BRANCH   3  24
ATOM     24  O   LIG A   1      -2.161   4.295 126.853  0.00  0.00    -0.488 OA
ATOM     25  C   LIG A   1      -1.865   2.922 126.911  0.00  0.00    +0.277 C 
ENDBRANCH   3  24
BRANCH   8  26
ATOM     26  O   LIG A   1      -7.288   5.544 130.521  0.00  0.00    -0.488 OA
ATOM     27  C   LIG A   1      -7.857   4.293 130.201  0.00  0.00    +0.277 C 
ENDBRANCH   8  26
BRANCH   9  28
ATOM     28  O   LIG A   1      -6.398   5.671 132.963  0.00  0.00    -0.491 OA
ATOM     29  C   LIG A   1      -6.452   4.554 133.845  0.00  0.00    +0.277 C 
ENDBRANCH   9  28
BRANCH  11  30
ATOM     30  O   LIG A   1      -1.835   5.540 131.516  0.00  0.00    -0.494 OA
ATOM     31  C   LIG A   1      -1.500   4.713 132.633  0.00  0.00    +0.277 C 
ENDBRANCH  11  30
TORSDOF 8
ENDMDL
MODEL 9
REMARK VINA RESULT:      -6.2      4.379      5.960
REMARK  Name = NuBBE_1308
REMARK  15 active torsions:
REMARK  status: ('A' for Active; 'I' for Inactive)
REMARK    1  A    between atoms: C_3  and  O_4
REMARK    2  A    between atoms: O_4  and  C_5
REMARK    3  A    between atoms: C_6  and  C_7
REMARK    4  A    between atoms: C_9  and  O_10
REMARK    5  A    between atoms: O_10  and  C_11
REMARK    6  A    between atoms: C_12  and  O_13
REMARK    7  A    between atoms: O_13  and  C_14
REMARK    8  A    between atoms: C_15  and  O_16
REMARK    9  A    between atoms: O_16  and  C_17
REMARK   10  A    between atoms: C_22  and  O_23
REMARK   11  A    between atoms: O_23  and  C_24
REMARK   12  A    between atoms: C_25  and  O_26
REMARK   13  A    between atoms: O_26  and  C_27
REMARK   14  A    between atoms: C_29  and  O_30
REMARK   15  A    between atoms: O_30  and  C_31
REMARK                            x       y       z     vdW  Elec       q    Type
REMARK                         _______ _______ _______ _____ _____    ______ ____
ROOT
ATOM      1  O   LIG A   1      -5.726   5.665 126.048  0.00  0.00    -0.283 OA
ATOM      2  C   LIG A   1      -5.396   4.456 126.246  0.00  0.00    +0.238 A 
ATOM      3  C   LIG A   1      -5.622   3.407 125.224  0.00  0.00    +0.211 A 
ATOM      4  C   LIG A   1      -6.090   2.239 125.765  0.00  0.00    +0.181 A 
ATOM      5  O   LIG A   1      -6.245   2.207 127.188  0.00  0.00    -0.447 OA
ATOM      6  C   LIG A   1      -4.797   4.037 127.507  0.00  0.00    +0.113 A 
ATOM      7  C   LIG A   1      -5.360   2.880 127.996  0.00  0.00    +0.188 A 
ATOM      8  C   LIG A   1      -5.044   2.444 129.295  0.00  0.00    +0.205 A 
ATOM      9  C   LIG A   1      -4.114   3.174 130.068  0.00  0.00    +0.169 A 
ATOM     10  C   LIG A   1      -3.503   4.310 129.514  0.00  0.00    +0.096 A 
ATOM     11  C   LIG A   1      -3.815   4.738 128.220  0.00  0.00    +0.138 A 
ENDROOT
BRANCH   4  12
ATOM     12  C   LIG A   1      -6.559   0.916 125.195  0.00  0.00    +0.028 A 
ATOM     13  C   LIG A   1      -5.964  -0.334 125.201  0.00  0.00    +0.061 A 
ATOM     14  C   LIG A   1      -6.449  -1.480 124.504  0.00  0.00    +0.166 A 
ATOM     15  C   LIG A   1      -7.627  -1.427 123.757  0.00  0.00    +0.203 A 
ATOM     16  C   LIG A   1      -8.268  -0.188 123.744  0.00  0.00    +0.166 A 
ATOM     17  C   LIG A   1      -7.773   0.887 124.510  0.00  0.00    +0.061 A 
BRANCH  14  18
ATOM     18  O   LIG A   1      -5.700  -2.593 124.782  0.00  0.00    -0.491 OA
ATOM     19  C   LIG A   1      -4.946  -3.061 123.673  0.00  0.00    +0.277 C 
ENDBRANCH  14  18
BRANCH  15  20
ATOM     20  O   LIG A   1      -8.345  -2.431 123.170  0.00  0.00    -0.488 OA
ATOM     21  C   LIG A   1      -9.078  -3.378 123.923  0.00  0.00    +0.277 C 
ENDBRANCH  15  20
BRANCH  16  22
ATOM     22  O   LIG A   1      -9.398  -0.044 122.966  0.00  0.00    -0.491 OA
ATOM     23  C   LIG A   1      -9.932   1.277 122.980  0.00  0.00    +0.277 C 
ENDBRANCH  16  22
ENDBRANCH   4  12
BRANCH   3  24
ATOM     24  O   LIG A   1      -5.265   3.786 123.967  0.00  0.00    -0.488 OA
ATOM     25  C   LIG A   1      -6.156   3.820 122.881  0.00  0.00    +0.277 C 
ENDBRANCH   3  24
BRANCH   8  26
ATOM     26  O   LIG A   1      -5.506   1.296 129.887  0.00  0.00    -0.488 OA
ATOM     27  C   LIG A   1      -4.962   0.069 129.451  0.00  0.00    +0.277 C 
ENDBRANCH   8  26
BRANCH   9  28
ATOM     28  O   LIG A   1      -3.787   2.651 131.296  0.00  0.00    -0.491 OA
ATOM     29  C   LIG A   1      -4.096   3.404 132.465  0.00  0.00    +0.277 C 
ENDBRANCH   9  28
BRANCH  11  30
ATOM     30  O   LIG A   1      -3.138   5.849 127.792  0.00  0.00    -0.494 OA
ATOM     31  C   LIG A   1      -3.431   7.079 128.458  0.00  0.00    +0.277 C 
ENDBRANCH  11  30
TORSDOF 8
ENDMDL
