MODEL 1
REMARK VINA RESULT:      -7.3      0.000      0.000
REMARK  Name = NuBBE_1392
REMARK  3 active torsions:
REMARK  status: ('A' for Active; 'I' for Inactive)
REMARK    1  A    between atoms: C_1  and  C_2
REMARK    2  A    between atoms: C_12  and  C_13
REMARK    3  A    between atoms: C_12  and  C_14
REMARK                            x       y       z     vdW  Elec       q    Type
REMARK                         _______ _______ _______ _____ _____    ______ ____
ROOT
ATOM      1  C   LIG A   1      -9.771  -3.359 123.276  0.00  0.00    +0.044 C 
ATOM      2  C   LIG A   1      -8.676  -2.383 123.631  0.00  0.00    +0.093 C 
ATOM      3  C   LIG A   1      -7.262  -2.588 123.085  0.00  0.00    +0.151 C 
ATOM      4  C   LIG A   1      -6.018  -1.834 123.446  0.00  0.00    +0.039 C 
ATOM      5  C   LIG A   1      -5.338  -2.324 124.723  0.00  0.00    +0.033 C 
ATOM      6  C   LIG A   1      -5.768  -1.559 125.949  0.00  0.00    -0.073 C 
ATOM      7  C   LIG A   1      -6.582  -2.294 126.947  0.00  0.00    +0.019 C 
ATOM      8  C   LIG A   1      -8.049  -1.907 127.212  0.00  0.00    +0.002 C 
ATOM      9  C   LIG A   1      -7.835  -2.797 128.727  0.00  0.00    -0.031 C 
ATOM     10  C   LIG A   1      -7.030  -3.537 129.848  0.00  0.00    +0.011 C 
ATOM     11  C   LIG A   1      -8.800  -3.954 128.349  0.00  0.00    +0.011 C 
ATOM     12  C   LIG A   1      -6.405  -1.970 128.421  0.00  0.00    +0.014 C 
ATOM     13  C   LIG A   1      -9.048  -2.293 126.105  0.00  0.00    +0.007 C 
ATOM     14  C   LIG A   1      -8.929  -1.474 124.811  0.00  0.00    +0.037 C 
ATOM     15  C   LIG A   1      -5.364  -0.280 126.154  0.00  0.00    +0.008 C 
ATOM     16  O   LIG A   1      -8.209  -1.721 122.446  0.00  0.00    -0.365 OA
ENDROOT
TORSDOF 0
ENDMDL
MODEL 2
REMARK VINA RESULT:      -6.3      2.673      4.492
REMARK  Name = NuBBE_1392
REMARK  3 active torsions:
REMARK  status: ('A' for Active; 'I' for Inactive)
REMARK    1  A    between atoms: C_1  and  C_2
REMARK    2  A    between atoms: C_12  and  C_13
REMARK    3  A    between atoms: C_12  and  C_14
REMARK                            x       y       z     vdW  Elec       q    Type
REMARK                         _______ _______ _______ _____ _____    ______ ____
ROOT
ATOM      1  C   LIG A   1      -9.014   2.342 122.768  0.00  0.00    +0.044 C 
ATOM      2  C   LIG A   1      -8.591   1.932 124.157  0.00  0.00    +0.093 C 
ATOM      3  C   LIG A   1      -7.566   2.769 124.924  0.00  0.00    +0.151 C 
ATOM      4  C   LIG A   1      -6.904   2.447 126.230  0.00  0.00    +0.039 C 
ATOM      5  C   LIG A   1      -5.697   1.519 126.105  0.00  0.00    +0.033 C 
ATOM      6  C   LIG A   1      -6.050   0.066 126.296  0.00  0.00    -0.073 C 
ATOM      7  C   LIG A   1      -5.950  -0.811 125.104  0.00  0.00    +0.019 C 
ATOM      8  C   LIG A   1      -7.207  -1.448 124.482  0.00  0.00    +0.002 C 
ATOM      9  C   LIG A   1      -6.062  -2.570 123.732  0.00  0.00    -0.031 C 
ATOM     10  C   LIG A   1      -4.672  -3.256 123.507  0.00  0.00    +0.011 C 
ATOM     11  C   LIG A   1      -6.293  -2.062 122.283  0.00  0.00    +0.011 C 
ATOM     12  C   LIG A   1      -5.513  -2.255 125.288  0.00  0.00    +0.014 C 
ATOM     13  C   LIG A   1      -8.124  -0.486 123.704  0.00  0.00    +0.007 C 
ATOM     14  C   LIG A   1      -8.901   0.513 124.574  0.00  0.00    +0.037 C 
ATOM     15  C   LIG A   1      -6.374  -0.422 127.520  0.00  0.00    +0.008 C 
ATOM     16  O   LIG A   1      -8.978   2.940 125.103  0.00  0.00    -0.365 OA
ENDROOT
TORSDOF 0
ENDMDL
MODEL 3
REMARK VINA RESULT:      -6.2      5.272      7.662
REMARK  Name = NuBBE_1392
REMARK  3 active torsions:
REMARK  status: ('A' for Active; 'I' for Inactive)
REMARK    1  A    between atoms: C_1  and  C_2
REMARK    2  A    between atoms: C_12  and  C_13
REMARK    3  A    between atoms: C_12  and  C_14
REMARK                            x       y       z     vdW  Elec       q    Type
REMARK                         _______ _______ _______ _____ _____    ______ ____
ROOT
ATOM      1  C   LIG A   1      -9.910   1.684 123.968  0.00  0.00    +0.044 C 
ATOM      2  C   LIG A   1      -8.596   2.078 124.598  0.00  0.00    +0.093 C 
ATOM      3  C   LIG A   1      -8.547   3.219 125.616  0.00  0.00    +0.151 C 
ATOM      4  C   LIG A   1      -7.336   3.860 126.223  0.00  0.00    +0.039 C 
ATOM      5  C   LIG A   1      -6.692   4.934 125.348  0.00  0.00    +0.033 C 
ATOM      6  C   LIG A   1      -5.577   4.399 124.485  0.00  0.00    -0.073 C 
ATOM      7  C   LIG A   1      -5.820   4.360 123.023  0.00  0.00    +0.019 C 
ATOM      8  C   LIG A   1      -5.921   3.019 122.273  0.00  0.00    +0.002 C 
ATOM      9  C   LIG A   1      -5.597   3.994 120.831  0.00  0.00    -0.031 C 
ATOM     10  C   LIG A   1      -5.180   5.278 120.038  0.00  0.00    +0.011 C 
ATOM     11  C   LIG A   1      -7.007   3.801 120.210  0.00  0.00    +0.011 C 
ATOM     12  C   LIG A   1      -4.657   4.610 122.078  0.00  0.00    +0.014 C 
ATOM     13  C   LIG A   1      -7.215   2.219 122.514  0.00  0.00    +0.007 C 
ATOM     14  C   LIG A   1      -7.339   1.595 123.912  0.00  0.00    +0.037 C 
ATOM     15  C   LIG A   1      -4.385   4.040 125.024  0.00  0.00    +0.008 C 
ATOM     16  O   LIG A   1      -8.642   1.844 126.013  0.00  0.00    -0.365 OA
ENDROOT
TORSDOF 0
ENDMDL
MODEL 4
REMARK VINA RESULT:      -6.2      2.408      4.402
REMARK  Name = NuBBE_1392
REMARK  3 active torsions:
REMARK  status: ('A' for Active; 'I' for Inactive)
REMARK    1  A    between atoms: C_1  and  C_2
REMARK    2  A    between atoms: C_12  and  C_13
REMARK    3  A    between atoms: C_12  and  C_14
REMARK                            x       y       z     vdW  Elec       q    Type
REMARK                         _______ _______ _______ _____ _____    ______ ____
ROOT
ATOM      1  C   LIG A   1      -9.762  -3.306 123.222  0.00  0.00    +0.044 C 
ATOM      2  C   LIG A   1      -8.610  -3.024 124.155  0.00  0.00    +0.093 C 
ATOM      3  C   LIG A   1      -8.790  -3.187 125.665  0.00  0.00    +0.151 C 
ATOM      4  C   LIG A   1      -7.832  -2.806 126.754  0.00  0.00    +0.039 C 
ATOM      5  C   LIG A   1      -7.888  -1.331 127.147  0.00  0.00    +0.033 C 
ATOM      6  C   LIG A   1      -6.881  -0.486 126.409  0.00  0.00    -0.073 C 
ATOM      7  C   LIG A   1      -7.413   0.489 125.427  0.00  0.00    +0.019 C 
ATOM      8  C   LIG A   1      -7.138   0.326 123.920  0.00  0.00    +0.002 C 
ATOM      9  C   LIG A   1      -7.567   2.041 123.828  0.00  0.00    -0.031 C 
ATOM     10  C   LIG A   1      -7.889   3.466 124.392  0.00  0.00    +0.011 C 
ATOM     11  C   LIG A   1      -8.884   1.815 123.037  0.00  0.00    +0.011 C 
ATOM     12  C   LIG A   1      -6.694   1.815 125.245  0.00  0.00    +0.014 C 
ATOM     13  C   LIG A   1      -7.913  -0.808 123.223  0.00  0.00    +0.007 C 
ATOM     14  C   LIG A   1      -7.457  -2.227 123.592  0.00  0.00    +0.037 C 
ATOM     15  C   LIG A   1      -5.555  -0.572 126.689  0.00  0.00    +0.008 C 
ATOM     16  O   LIG A   1      -8.236  -4.225 124.847  0.00  0.00    -0.365 OA
ENDROOT
TORSDOF 0
ENDMDL
MODEL 5
REMARK VINA RESULT:      -6.1      2.666      5.098
REMARK  Name = NuBBE_1392
REMARK  3 active torsions:
REMARK  status: ('A' for Active; 'I' for Inactive)
REMARK    1  A    between atoms: C_1  and  C_2
REMARK    2  A    between atoms: C_12  and  C_13
REMARK    3  A    between atoms: C_12  and  C_14
REMARK                            x       y       z     vdW  Elec       q    Type
REMARK                         _______ _______ _______ _____ _____    ______ ____
ROOT
ATOM      1  C   LIG A   1      -7.460  -2.536 127.362  0.00  0.00    +0.044 C 
ATOM      2  C   LIG A   1      -8.414  -2.235 126.232  0.00  0.00    +0.093 C 
ATOM      3  C   LIG A   1      -8.381  -3.077 124.956  0.00  0.00    +0.151 C 
ATOM      4  C   LIG A   1      -9.123  -2.840 123.676  0.00  0.00    +0.039 C 
ATOM      5  C   LIG A   1      -8.453  -1.833 122.743  0.00  0.00    +0.033 C 
ATOM      6  C   LIG A   1      -8.967  -0.428 122.925  0.00  0.00    -0.073 C 
ATOM      7  C   LIG A   1      -8.028   0.561 123.507  0.00  0.00    +0.019 C 
ATOM      8  C   LIG A   1      -8.288   1.177 124.895  0.00  0.00    +0.002 C 
ATOM      9  C   LIG A   1      -7.158   2.432 124.362  0.00  0.00    -0.031 C 
ATOM     10  C   LIG A   1      -6.276   3.218 123.334  0.00  0.00    +0.011 C 
ATOM     11  C   LIG A   1      -6.037   2.049 125.366  0.00  0.00    +0.011 C 
ATOM     12  C   LIG A   1      -8.098   2.005 123.037  0.00  0.00    +0.014 C 
ATOM     13  C   LIG A   1      -8.050   0.239 126.093  0.00  0.00    +0.007 C 
ATOM     14  C   LIG A   1      -9.088  -0.882 126.252  0.00  0.00    +0.037 C 
ATOM     15  C   LIG A   1     -10.210  -0.078 122.506  0.00  0.00    +0.008 C 
ATOM     16  O   LIG A   1      -9.296  -3.348 126.027  0.00  0.00    -0.365 OA
ENDROOT
TORSDOF 0
ENDMDL
MODEL 6
REMARK VINA RESULT:      -5.9      3.550      5.331
REMARK  Name = NuBBE_1392
REMARK  3 active torsions:
REMARK  status: ('A' for Active; 'I' for Inactive)
REMARK    1  A    between atoms: C_1  and  C_2
REMARK    2  A    between atoms: C_12  and  C_13
REMARK    3  A    between atoms: C_12  and  C_14
REMARK                            x       y       z     vdW  Elec       q    Type
REMARK                         _______ _______ _______ _____ _____    ______ ____
ROOT
ATOM      1  C   LIG A   1      -6.010   3.814 121.977  0.00  0.00    +0.044 C 
ATOM      2  C   LIG A   1      -6.190   3.623 123.464  0.00  0.00    +0.093 C 
ATOM      3  C   LIG A   1      -5.039   3.939 124.421  0.00  0.00    +0.151 C 
ATOM      4  C   LIG A   1      -4.964   3.666 125.893  0.00  0.00    +0.039 C 
ATOM      5  C   LIG A   1      -4.547   2.239 126.243  0.00  0.00    +0.033 C 
ATOM      6  C   LIG A   1      -5.722   1.319 126.461  0.00  0.00    -0.073 C 
ATOM      7  C   LIG A   1      -5.935   0.252 125.454  0.00  0.00    +0.019 C 
ATOM      8  C   LIG A   1      -7.176   0.260 124.542  0.00  0.00    +0.002 C 
ATOM      9  C   LIG A   1      -6.802  -1.453 124.301  0.00  0.00    -0.031 C 
ATOM     10  C   LIG A   1      -6.079  -2.812 124.588  0.00  0.00    +0.011 C 
ATOM     11  C   LIG A   1      -6.403  -1.303 122.808  0.00  0.00    +0.011 C 
ATOM     12  C   LIG A   1      -6.485  -1.089 125.910  0.00  0.00    +0.014 C 
ATOM     13  C   LIG A   1      -7.172   1.321 123.425  0.00  0.00    +0.007 C 
ATOM     14  C   LIG A   1      -7.354   2.768 123.905  0.00  0.00    +0.037 C 
ATOM     15  C   LIG A   1      -6.500   1.427 127.568  0.00  0.00    +0.008 C 
ATOM     16  O   LIG A   1      -6.077   4.886 124.136  0.00  0.00    -0.365 OA
ENDROOT
TORSDOF 0
ENDMDL
MODEL 7
REMARK VINA RESULT:      -5.9      1.939      4.059
REMARK  Name = NuBBE_1392
REMARK  3 active torsions:
REMARK  status: ('A' for Active; 'I' for Inactive)
REMARK    1  A    between atoms: C_1  and  C_2
REMARK    2  A    between atoms: C_12  and  C_13
REMARK    3  A    between atoms: C_12  and  C_14
REMARK                            x       y       z     vdW  Elec       q    Type
REMARK                         _______ _______ _______ _____ _____    ______ ____
ROOT
ATOM      1  C   LIG A   1      -5.319   1.760 127.087  0.00  0.00    +0.044 C 
ATOM      2  C   LIG A   1      -6.069   1.166 125.920  0.00  0.00    +0.093 C 
ATOM      3  C   LIG A   1      -7.315   1.866 125.374  0.00  0.00    +0.151 C 
ATOM      4  C   LIG A   1      -8.278   1.361 124.342  0.00  0.00    +0.039 C 
ATOM      5  C   LIG A   1      -9.344   0.415 124.894  0.00  0.00    +0.033 C 
ATOM      6  C   LIG A   1      -8.959  -1.037 124.777  0.00  0.00    -0.073 C 
ATOM      7  C   LIG A   1      -8.679  -1.761 126.041  0.00  0.00    +0.019 C 
ATOM      8  C   LIG A   1      -7.262  -2.273 126.364  0.00  0.00    +0.002 C 
ATOM      9  C   LIG A   1      -8.089  -3.330 127.518  0.00  0.00    -0.031 C 
ATOM     10  C   LIG A   1      -9.320  -4.028 128.188  0.00  0.00    +0.011 C 
ATOM     11  C   LIG A   1      -7.514  -2.637 128.782  0.00  0.00    +0.011 C 
ATOM     12  C   LIG A   1      -9.053  -3.230 126.145  0.00  0.00    +0.014 C 
ATOM     13  C   LIG A   1      -6.237  -1.190 126.750  0.00  0.00    +0.007 C 
ATOM     14  C   LIG A   1      -5.788  -0.282 125.595  0.00  0.00    +0.037 C 
ATOM     15  C   LIG A   1      -8.941  -1.664 123.573  0.00  0.00    +0.008 C 
ATOM     16  O   LIG A   1      -6.016   2.060 124.798  0.00  0.00    -0.365 OA
ENDROOT
TORSDOF 0
ENDMDL
MODEL 8
REMARK VINA RESULT:      -5.8      2.454      5.210
REMARK  Name = NuBBE_1392
REMARK  3 active torsions:
REMARK  status: ('A' for Active; 'I' for Inactive)
REMARK    1  A    between atoms: C_1  and  C_2
REMARK    2  A    between atoms: C_12  and  C_13
REMARK    3  A    between atoms: C_12  and  C_14
REMARK                            x       y       z     vdW  Elec       q    Type
REMARK                         _______ _______ _______ _____ _____    ______ ____
ROOT
ATOM      1  C   LIG A   1      -5.766  -0.171 127.679  0.00  0.00    +0.044 C 
ATOM      2  C   LIG A   1      -6.458  -1.212 126.832  0.00  0.00    +0.093 C 
ATOM      3  C   LIG A   1      -5.648  -2.064 125.853  0.00  0.00    +0.151 C 
ATOM      4  C   LIG A   1      -6.163  -3.023 124.823  0.00  0.00    +0.039 C 
ATOM      5  C   LIG A   1      -6.597  -2.362 123.516  0.00  0.00    +0.033 C 
ATOM      6  C   LIG A   1      -8.069  -2.038 123.480  0.00  0.00    -0.073 C 
ATOM      7  C   LIG A   1      -8.441  -0.603 123.502  0.00  0.00    +0.019 C 
ATOM      8  C   LIG A   1      -9.186   0.004 124.706  0.00  0.00    +0.002 C 
ATOM      9  C   LIG A   1      -9.611   1.299 123.576  0.00  0.00    -0.031 C 
ATOM     10  C   LIG A   1      -9.740   1.988 122.176  0.00  0.00    +0.011 C 
ATOM     11  C   LIG A   1      -8.754   2.386 124.279  0.00  0.00    +0.011 C 
ATOM     12  C   LIG A   1      -9.667  -0.150 122.727  0.00  0.00    +0.014 C 
ATOM     13  C   LIG A   1      -8.343   0.198 125.980  0.00  0.00    +0.007 C 
ATOM     14  C   LIG A   1      -7.959  -1.101 126.706  0.00  0.00    +0.037 C 
ATOM     15  C   LIG A   1      -9.000  -3.019 123.363  0.00  0.00    +0.008 C 
ATOM     16  O   LIG A   1      -5.974  -2.520 127.173  0.00  0.00    -0.365 OA
ENDROOT
TORSDOF 0
ENDMDL
MODEL 9
REMARK VINA RESULT:      -5.8      2.102      3.823
REMARK  Name = NuBBE_1392
REMARK  3 active torsions:
REMARK  status: ('A' for Active; 'I' for Inactive)
REMARK    1  A    between atoms: C_1  and  C_2
REMARK    2  A    between atoms: C_12  and  C_13
REMARK    3  A    between atoms: C_12  and  C_14
REMARK                            x       y       z     vdW  Elec       q    Type
REMARK                         _______ _______ _______ _____ _____    ______ ____
ROOT
ATOM      1  C   LIG A   1      -8.689  -3.306 126.839  0.00  0.00    +0.044 C 
ATOM      2  C   LIG A   1      -8.783  -2.289 125.728  0.00  0.00    +0.093 C 
ATOM      3  C   LIG A   1      -8.235  -2.620 124.339  0.00  0.00    +0.151 C 
ATOM      4  C   LIG A   1      -8.087  -1.701 123.164  0.00  0.00    +0.039 C 
ATOM      5  C   LIG A   1      -6.823  -0.845 123.196  0.00  0.00    +0.033 C 
ATOM      6  C   LIG A   1      -7.045   0.510 123.817  0.00  0.00    -0.073 C 
ATOM      7  C   LIG A   1      -6.394   0.765 125.125  0.00  0.00    +0.019 C 
ATOM      8  C   LIG A   1      -7.234   0.966 126.401  0.00  0.00    +0.002 C 
ATOM      9  C   LIG A   1      -5.764   1.710 127.048  0.00  0.00    -0.031 C 
ATOM     10  C   LIG A   1      -4.322   2.318 126.983  0.00  0.00    +0.011 C 
ATOM     11  C   LIG A   1      -5.484   0.592 128.088  0.00  0.00    +0.011 C 
ATOM     12  C   LIG A   1      -5.891   2.164 125.436  0.00  0.00    +0.014 C 
ATOM     13  C   LIG A   1      -7.893  -0.305 126.969  0.00  0.00    +0.007 C 
ATOM     14  C   LIG A   1      -9.056  -0.860 126.135  0.00  0.00    +0.037 C 
ATOM     15  C   LIG A   1      -7.751   1.471 123.168  0.00  0.00    +0.008 C 
ATOM     16  O   LIG A   1      -9.619  -2.790 124.675  0.00  0.00    -0.365 OA
ENDROOT
TORSDOF 0
ENDMDL
