MODEL 1
REMARK VINA RESULT:      -7.0      0.000      0.000
REMARK  Name = NuBBE_1957
REMARK  5 active torsions:
REMARK  status: ('A' for Active; 'I' for Inactive)
REMARK    1  A    between atoms: C_1  and  N_2
REMARK    2  A    between atoms: C_10  and  C_12
REMARK    3  A    between atoms: C_12  and  C_14
REMARK    4  A    between atoms: C_18  and  O_19
REMARK    5  A    between atoms: O_19  and  C_20
REMARK                            x       y       z     vdW  Elec       q    Type
REMARK                         _______ _______ _______ _____ _____    ______ ____
ROOT
ATOM      1  C   LIG A   1      -8.066   3.961 128.583  0.00  0.00    +0.152 C 
ATOM      2  N   LIG A   1      -8.744   4.621 129.698  0.00  0.00    -0.311 N 
ATOM      3  C   LIG A   1      -8.599   4.108 131.025  0.00  0.00    +0.097 A 
ATOM      4  C   LIG A   1      -9.305   4.753 132.082  0.00  0.00    +0.049 A 
ATOM      5  C   LIG A   1     -10.143   5.950 131.805  0.00  0.00    +0.196 A 
ATOM      6  O   LIG A   1     -10.767   6.538 132.682  0.00  0.00    -0.287 OA
ATOM      7  C   LIG A   1     -10.187   6.401 130.425  0.00  0.00    +0.063 A 
ATOM      8  C   LIG A   1      -9.523   5.741 129.488  0.00  0.00    +0.203 A 
ATOM      9  O   LIG A   1      -9.685   6.272 128.212  0.00  0.00    -0.469 OA
ATOM     10  C   LIG A   1     -10.471   7.478 128.407  0.00  0.00    +0.205 C 
ATOM     11  C   LIG A   1     -10.917   7.548 129.878  0.00  0.00    +0.093 C 
ATOM     12  C   LIG A   1      -9.241   4.309 133.411  0.00  0.00    +0.014 A 
ATOM     13  C   LIG A   1      -8.455   3.216 133.736  0.00  0.00    +0.004 A 
ATOM     14  C   LIG A   1      -7.735   2.568 132.736  0.00  0.00    +0.048 A 
ATOM     15  C   LIG A   1      -7.806   2.987 131.393  0.00  0.00    +0.144 A 
ENDROOT
BRANCH  10  16
ATOM     16  C   LIG A   1     -11.609   7.489 127.403  0.00  0.00    -0.040 C 
ATOM     17  C   LIG A   1     -11.384   7.575 126.080  0.00  0.00    +0.011 C 
ATOM     18  C   LIG A   1     -13.011   7.379 127.943  0.00  0.00    +0.042 C 
ENDBRANCH  10  16
BRANCH  15  19
ATOM     19  O   LIG A   1      -7.050   2.361 130.431  0.00  0.00    -0.493 OA
ATOM     20  C   LIG A   1      -6.981   0.940 130.496  0.00  0.00    +0.277 C 
ENDBRANCH  15  19
TORSDOF 2
ENDMDL
MODEL 2
REMARK VINA RESULT:      -6.6      7.662      8.774
REMARK  Name = NuBBE_1957
REMARK  5 active torsions:
REMARK  status: ('A' for Active; 'I' for Inactive)
REMARK    1  A    between atoms: C_1  and  N_2
REMARK    2  A    between atoms: C_10  and  C_12
REMARK    3  A    between atoms: C_12  and  C_14
REMARK    4  A    between atoms: C_18  and  O_19
REMARK    5  A    between atoms: O_19  and  C_20
REMARK                            x       y       z     vdW  Elec       q    Type
REMARK                         _______ _______ _______ _____ _____    ______ ____
ROOT
ATOM      1  C   LIG A   1      -5.652   0.072 125.762  0.00  0.00    +0.152 C 
ATOM      2  N   LIG A   1      -6.835  -0.060 124.912  0.00  0.00    -0.311 N 
ATOM      3  C   LIG A   1      -7.568  -1.288 124.897  0.00  0.00    +0.097 A 
ATOM      4  C   LIG A   1      -8.692  -1.395 124.028  0.00  0.00    +0.049 A 
ATOM      5  C   LIG A   1      -9.105  -0.241 123.185  0.00  0.00    +0.196 A 
ATOM      6  O   LIG A   1     -10.066  -0.286 122.425  0.00  0.00    -0.287 OA
ATOM      7  C   LIG A   1      -8.306   0.966 123.310  0.00  0.00    +0.063 A 
ATOM      8  C   LIG A   1      -7.259   0.990 124.122  0.00  0.00    +0.203 A 
ATOM      9  O   LIG A   1      -6.575   2.201 124.113  0.00  0.00    -0.469 OA
ATOM     10  C   LIG A   1      -7.366   3.070 123.258  0.00  0.00    +0.205 C 
ATOM     11  C   LIG A   1      -8.492   2.242 122.614  0.00  0.00    +0.093 C 
ATOM     12  C   LIG A   1      -9.459  -2.566 123.929  0.00  0.00    +0.014 A 
ATOM     13  C   LIG A   1      -9.141  -3.666 124.708  0.00  0.00    +0.004 A 
ATOM     14  C   LIG A   1      -8.061  -3.597 125.584  0.00  0.00    +0.048 A 
ATOM     15  C   LIG A   1      -7.267  -2.436 125.678  0.00  0.00    +0.144 A 
ENDROOT
BRANCH  10  16
ATOM     16  C   LIG A   1      -6.443   3.755 122.267  0.00  0.00    -0.040 C 
ATOM     17  C   LIG A   1      -6.712   3.779 120.950  0.00  0.00    +0.011 C 
ATOM     18  C   LIG A   1      -5.216   4.433 122.818  0.00  0.00    +0.042 C 
ENDBRANCH  10  16
BRANCH  15  19
ATOM     19  O   LIG A   1      -6.234  -2.375 126.583  0.00  0.00    -0.493 OA
ATOM     20  C   LIG A   1      -6.580  -2.502 127.959  0.00  0.00    +0.277 C 
ENDBRANCH  15  19
TORSDOF 2
ENDMDL
MODEL 3
REMARK VINA RESULT:      -6.6      5.844      7.742
REMARK  Name = NuBBE_1957
REMARK  5 active torsions:
REMARK  status: ('A' for Active; 'I' for Inactive)
REMARK    1  A    between atoms: C_1  and  N_2
REMARK    2  A    between atoms: C_10  and  C_12
REMARK    3  A    between atoms: C_12  and  C_14
REMARK    4  A    between atoms: C_18  and  O_19
REMARK    5  A    between atoms: O_19  and  C_20
REMARK                            x       y       z     vdW  Elec       q    Type
REMARK                         _______ _______ _______ _____ _____    ______ ____
ROOT
ATOM      1  C   LIG A   1      -7.463   1.418 127.355  0.00  0.00    +0.152 C 
ATOM      2  N   LIG A   1      -8.073   0.465 126.430  0.00  0.00    -0.311 N 
ATOM      3  C   LIG A   1      -8.205  -0.908 126.806  0.00  0.00    +0.097 A 
ATOM      4  C   LIG A   1      -8.769  -1.818 125.866  0.00  0.00    +0.049 A 
ATOM      5  C   LIG A   1      -9.237  -1.335 124.539  0.00  0.00    +0.196 A 
ATOM      6  O   LIG A   1      -9.730  -2.079 123.699  0.00  0.00    -0.287 OA
ATOM      7  C   LIG A   1      -9.084   0.087 124.281  0.00  0.00    +0.063 A 
ATOM      8  C   LIG A   1      -8.530   0.873 125.193  0.00  0.00    +0.203 A 
ATOM      9  O   LIG A   1      -8.423   2.201 124.792  0.00  0.00    -0.469 OA
ATOM     10  C   LIG A   1      -9.092   2.257 123.503  0.00  0.00    +0.205 C 
ATOM     11  C   LIG A   1      -9.465   0.827 123.075  0.00  0.00    +0.093 C 
ATOM     12  C   LIG A   1      -8.919  -3.186 126.137  0.00  0.00    +0.014 A 
ATOM     13  C   LIG A   1      -8.527  -3.692 127.365  0.00  0.00    +0.004 A 
ATOM     14  C   LIG A   1      -7.988  -2.835 128.320  0.00  0.00    +0.048 A 
ATOM     15  C   LIG A   1      -7.810  -1.462 128.054  0.00  0.00    +0.144 A 
ENDROOT
BRANCH  10  16
ATOM     16  C   LIG A   1      -8.203   2.997 122.521  0.00  0.00    -0.040 C 
ATOM     17  C   LIG A   1      -8.664   3.422 121.332  0.00  0.00    +0.011 C 
ATOM     18  C   LIG A   1      -6.779   3.259 122.937  0.00  0.00    +0.042 C 
ENDBRANCH  10  16
BRANCH  15  19
ATOM     19  O   LIG A   1      -7.318  -0.626 129.029  0.00  0.00    -0.493 OA
ATOM     20  C   LIG A   1      -7.855  -0.784 130.338  0.00  0.00    +0.277 C 
ENDBRANCH  15  19
TORSDOF 2
ENDMDL
MODEL 4
REMARK VINA RESULT:      -6.5      6.893      9.286
REMARK  Name = NuBBE_1957
REMARK  5 active torsions:
REMARK  status: ('A' for Active; 'I' for Inactive)
REMARK    1  A    between atoms: C_1  and  N_2
REMARK    2  A    between atoms: C_10  and  C_12
REMARK    3  A    between atoms: C_12  and  C_14
REMARK    4  A    between atoms: C_18  and  O_19
REMARK    5  A    between atoms: O_19  and  C_20
REMARK                            x       y       z     vdW  Elec       q    Type
REMARK                         _______ _______ _______ _____ _____    ______ ____
ROOT
ATOM      1  C   LIG A   1      -5.574   0.774 126.668  0.00  0.00    +0.152 C 
ATOM      2  N   LIG A   1      -6.698   0.432 125.797  0.00  0.00    -0.311 N 
ATOM      3  C   LIG A   1      -7.108   1.342 124.773  0.00  0.00    +0.097 A 
ATOM      4  C   LIG A   1      -8.231   0.995 123.967  0.00  0.00    +0.049 A 
ATOM      5  C   LIG A   1      -8.932  -0.301 124.173  0.00  0.00    +0.196 A 
ATOM      6  O   LIG A   1      -9.901  -0.643 123.504  0.00  0.00    -0.287 OA
ATOM      7  C   LIG A   1      -8.405  -1.160 125.219  0.00  0.00    +0.063 A 
ATOM      8  C   LIG A   1      -7.370  -0.765 125.946  0.00  0.00    +0.203 A 
ATOM      9  O   LIG A   1      -6.998  -1.677 126.928  0.00  0.00    -0.469 OA
ATOM     10  C   LIG A   1      -7.854  -2.830 126.709  0.00  0.00    +0.205 C 
ATOM     11  C   LIG A   1      -8.889  -2.482 125.626  0.00  0.00    +0.093 C 
ATOM     12  C   LIG A   1      -8.719   1.833 122.954  0.00  0.00    +0.014 A 
ATOM     13  C   LIG A   1      -8.092   3.040 122.696  0.00  0.00    +0.004 A 
ATOM     14  C   LIG A   1      -6.980   3.409 123.447  0.00  0.00    +0.048 A 
ATOM     15  C   LIG A   1      -6.491   2.590 124.484  0.00  0.00    +0.144 A 
ENDROOT
BRANCH  10  16
ATOM     16  C   LIG A   1      -8.452  -3.257 128.037  0.00  0.00    -0.040 C 
ATOM     17  C   LIG A   1      -9.423  -4.184 128.110  0.00  0.00    +0.011 C 
ATOM     18  C   LIG A   1      -7.899  -2.617 129.283  0.00  0.00    +0.042 C 
ENDBRANCH  10  16
BRANCH  15  19
ATOM     19  O   LIG A   1      -5.364   2.954 125.182  0.00  0.00    -0.493 OA
ATOM     20  C   LIG A   1      -5.268   4.319 125.575  0.00  0.00    +0.277 C 
ENDBRANCH  15  19
TORSDOF 2
ENDMDL
MODEL 5
REMARK VINA RESULT:      -6.5      5.781      9.264
REMARK  Name = NuBBE_1957
REMARK  5 active torsions:
REMARK  status: ('A' for Active; 'I' for Inactive)
REMARK    1  A    between atoms: C_1  and  N_2
REMARK    2  A    between atoms: C_10  and  C_12
REMARK    3  A    between atoms: C_12  and  C_14
REMARK    4  A    between atoms: C_18  and  O_19
REMARK    5  A    between atoms: O_19  and  C_20
REMARK                            x       y       z     vdW  Elec       q    Type
REMARK                         _______ _______ _______ _____ _____    ______ ____
ROOT
ATOM      1  C   LIG A   1      -7.663   0.965 126.482  0.00  0.00    +0.152 C 
ATOM      2  N   LIG A   1      -7.966  -0.453 126.675  0.00  0.00    -0.311 N 
ATOM      3  C   LIG A   1      -8.399  -1.247 125.568  0.00  0.00    +0.097 A 
ATOM      4  C   LIG A   1      -8.723  -2.615 125.801  0.00  0.00    +0.049 A 
ATOM      5  C   LIG A   1      -8.579  -3.202 127.160  0.00  0.00    +0.196 A 
ATOM      6  O   LIG A   1      -8.844  -4.373 127.407  0.00  0.00    -0.287 OA
ATOM      7  C   LIG A   1      -8.098  -2.308 128.199  0.00  0.00    +0.063 A 
ATOM      8  C   LIG A   1      -7.836  -1.040 127.918  0.00  0.00    +0.203 A 
ATOM      9  O   LIG A   1      -7.413  -0.301 129.019  0.00  0.00    -0.469 OA
ATOM     10  C   LIG A   1      -7.305  -1.268 130.098  0.00  0.00    +0.205 C 
ATOM     11  C   LIG A   1      -7.855  -2.620 129.611  0.00  0.00    +0.093 C 
ATOM     12  C   LIG A   1      -9.176  -3.466 124.781  0.00  0.00    +0.014 A 
ATOM     13  C   LIG A   1      -9.304  -2.985 123.489  0.00  0.00    +0.004 A 
ATOM     14  C   LIG A   1      -8.980  -1.660 123.215  0.00  0.00    +0.048 A 
ATOM     15  C   LIG A   1      -8.546  -0.786 124.231  0.00  0.00    +0.144 A 
ENDROOT
BRANCH  10  16
ATOM     16  C   LIG A   1      -7.999  -0.712 131.327  0.00  0.00    -0.040 C 
ATOM     17  C   LIG A   1      -8.785   0.377 131.263  0.00  0.00    +0.011 C 
ATOM     18  C   LIG A   1      -7.793  -1.441 132.629  0.00  0.00    +0.042 C 
ENDBRANCH  10  16
BRANCH  15  19
ATOM     19  O   LIG A   1      -8.188   0.506 123.929  0.00  0.00    -0.493 OA
ATOM     20  C   LIG A   1      -9.111   1.259 123.148  0.00  0.00    +0.277 C 
ENDBRANCH  15  19
TORSDOF 2
ENDMDL
MODEL 6
REMARK VINA RESULT:      -6.3      1.989      2.473
REMARK  Name = NuBBE_1957
REMARK  5 active torsions:
REMARK  status: ('A' for Active; 'I' for Inactive)
REMARK    1  A    between atoms: C_1  and  N_2
REMARK    2  A    between atoms: C_10  and  C_12
REMARK    3  A    between atoms: C_12  and  C_14
REMARK    4  A    between atoms: C_18  and  O_19
REMARK    5  A    between atoms: O_19  and  C_20
REMARK                            x       y       z     vdW  Elec       q    Type
REMARK                         _______ _______ _______ _____ _____    ______ ____
ROOT
ATOM      1  C   LIG A   1      -7.344   6.836 131.014  0.00  0.00    +0.152 C 
ATOM      2  N   LIG A   1      -8.399   5.838 130.847  0.00  0.00    -0.311 N 
ATOM      3  C   LIG A   1      -8.118   4.457 131.087  0.00  0.00    +0.097 A 
ATOM      4  C   LIG A   1      -9.159   3.506 130.878  0.00  0.00    +0.049 A 
ATOM      5  C   LIG A   1     -10.512   3.955 130.451  0.00  0.00    +0.196 A 
ATOM      6  O   LIG A   1     -11.438   3.175 130.259  0.00  0.00    -0.287 OA
ATOM      7  C   LIG A   1     -10.689   5.385 130.271  0.00  0.00    +0.063 A 
ATOM      8  C   LIG A   1      -9.671   6.212 130.463  0.00  0.00    +0.203 A 
ATOM      9  O   LIG A   1      -9.984   7.546 130.224  0.00  0.00    -0.469 OA
ATOM     10  C   LIG A   1     -11.411   7.551 129.947  0.00  0.00    +0.205 C 
ATOM     11  C   LIG A   1     -11.906   6.096 129.871  0.00  0.00    +0.093 C 
ATOM     12  C   LIG A   1      -8.971   2.129 131.066  0.00  0.00    +0.014 A 
ATOM     13  C   LIG A   1      -7.742   1.653 131.490  0.00  0.00    +0.004 A 
ATOM     14  C   LIG A   1      -6.703   2.549 131.724  0.00  0.00    +0.048 A 
ATOM     15  C   LIG A   1      -6.868   3.933 131.517  0.00  0.00    +0.144 A 
ENDROOT
BRANCH  10  16
ATOM     16  C   LIG A   1     -11.665   8.369 128.695  0.00  0.00    -0.040 C 
ATOM     17  C   LIG A   1     -10.818   8.345 127.650  0.00  0.00    +0.011 C 
ATOM     18  C   LIG A   1     -12.920   9.200 128.654  0.00  0.00    +0.042 C 
ENDBRANCH  10  16
BRANCH  15  19
ATOM     19  O   LIG A   1      -5.842   4.803 131.799  0.00  0.00    -0.493 OA
ATOM     20  C   LIG A   1      -4.978   4.446 132.873  0.00  0.00    +0.277 C 
ENDBRANCH  15  19
TORSDOF 2
ENDMDL
MODEL 7
REMARK VINA RESULT:      -6.1      6.677      8.863
REMARK  Name = NuBBE_1957
REMARK  5 active torsions:
REMARK  status: ('A' for Active; 'I' for Inactive)
REMARK    1  A    between atoms: C_1  and  N_2
REMARK    2  A    between atoms: C_10  and  C_12
REMARK    3  A    between atoms: C_12  and  C_14
REMARK    4  A    between atoms: C_18  and  O_19
REMARK    5  A    between atoms: O_19  and  C_20
REMARK                            x       y       z     vdW  Elec       q    Type
REMARK                         _______ _______ _______ _____ _____    ______ ____
ROOT
ATOM      1  C   LIG A   1      -5.458  -0.016 127.144  0.00  0.00    +0.152 C 
ATOM      2  N   LIG A   1      -6.015   0.574 125.928  0.00  0.00    -0.311 N 
ATOM      3  C   LIG A   1      -5.860   1.974 125.680  0.00  0.00    +0.097 A 
ATOM      4  C   LIG A   1      -6.449   2.524 124.504  0.00  0.00    +0.049 A 
ATOM      5  C   LIG A   1      -7.176   1.648 123.547  0.00  0.00    +0.196 A 
ATOM      6  O   LIG A   1      -7.697   2.075 122.523  0.00  0.00    -0.287 OA
ATOM      7  C   LIG A   1      -7.239   0.237 123.886  0.00  0.00    +0.063 A 
ATOM      8  C   LIG A   1      -6.688  -0.204 125.008  0.00  0.00    +0.203 A 
ATOM      9  O   LIG A   1      -6.855  -1.570 125.212  0.00  0.00    -0.469 OA
ATOM     10  C   LIG A   1      -7.509  -2.050 124.005  0.00  0.00    +0.205 C 
ATOM     11  C   LIG A   1      -7.877  -0.842 123.126  0.00  0.00    +0.093 C 
ATOM     12  C   LIG A   1      -6.368   3.888 124.188  0.00  0.00    +0.014 A 
ATOM     13  C   LIG A   1      -5.680   4.750 125.026  0.00  0.00    +0.004 A 
ATOM     14  C   LIG A   1      -5.074   4.251 126.176  0.00  0.00    +0.048 A 
ATOM     15  C   LIG A   1      -5.166   2.888 126.519  0.00  0.00    +0.144 A 
ENDROOT
BRANCH  10  16
ATOM     16  C   LIG A   1      -8.686  -2.924 124.399  0.00  0.00    -0.040 C 
ATOM     17  C   LIG A   1      -9.573  -3.364 123.491  0.00  0.00    +0.011 C 
ATOM     18  C   LIG A   1      -8.812  -3.302 125.852  0.00  0.00    +0.042 C 
ENDBRANCH  10  16
BRANCH  15  19
ATOM     19  O   LIG A   1      -4.521   2.410 127.635  0.00  0.00    -0.493 OA
ATOM     20  C   LIG A   1      -3.252   2.982 127.935  0.00  0.00    +0.277 C 
ENDBRANCH  15  19
TORSDOF 2
ENDMDL
MODEL 8
REMARK VINA RESULT:      -6.0      6.116      8.210
REMARK  Name = NuBBE_1957
REMARK  5 active torsions:
REMARK  status: ('A' for Active; 'I' for Inactive)
REMARK    1  A    between atoms: C_1  and  N_2
REMARK    2  A    between atoms: C_10  and  C_12
REMARK    3  A    between atoms: C_12  and  C_14
REMARK    4  A    between atoms: C_18  and  O_19
REMARK    5  A    between atoms: O_19  and  C_20
REMARK                            x       y       z     vdW  Elec       q    Type
REMARK                         _______ _______ _______ _____ _____    ______ ____
ROOT
ATOM      1  C   LIG A   1      -5.306  -0.346 125.681  0.00  0.00    +0.152 C 
ATOM      2  N   LIG A   1      -6.048   0.903 125.522  0.00  0.00    -0.311 N 
ATOM      3  C   LIG A   1      -7.230   0.933 124.719  0.00  0.00    +0.097 A 
ATOM      4  C   LIG A   1      -7.907   2.177 124.554  0.00  0.00    +0.049 A 
ATOM      5  C   LIG A   1      -7.405   3.402 125.233  0.00  0.00    +0.196 A 
ATOM      6  O   LIG A   1      -7.954   4.492 125.122  0.00  0.00    -0.287 OA
ATOM      7  C   LIG A   1      -6.215   3.243 126.051  0.00  0.00    +0.063 A 
ATOM      8  C   LIG A   1      -5.623   2.061 126.143  0.00  0.00    +0.203 A 
ATOM      9  O   LIG A   1      -4.480   2.071 126.936  0.00  0.00    -0.469 OA
ATOM     10  C   LIG A   1      -4.419   3.415 127.485  0.00  0.00    +0.205 C 
ATOM     11  C   LIG A   1      -5.519   4.269 126.832  0.00  0.00    +0.093 C 
ATOM     12  C   LIG A   1      -9.061   2.308 123.768  0.00  0.00    +0.014 A 
ATOM     13  C   LIG A   1      -9.593   1.198 123.133  0.00  0.00    +0.004 A 
ATOM     14  C   LIG A   1      -8.973  -0.039 123.283  0.00  0.00    +0.048 A 
ATOM     15  C   LIG A   1      -7.800  -0.184 124.050  0.00  0.00    +0.144 A 
ENDROOT
BRANCH  10  16
ATOM     16  C   LIG A   1      -3.011   3.955 127.305  0.00  0.00    -0.040 C 
ATOM     17  C   LIG A   1      -2.648   5.156 127.789  0.00  0.00    +0.011 C 
ATOM     18  C   LIG A   1      -2.022   3.082 126.579  0.00  0.00    +0.042 C 
ENDBRANCH  10  16
BRANCH  15  19
ATOM     19  O   LIG A   1      -7.232  -1.424 124.221  0.00  0.00    -0.493 OA
ATOM     20  C   LIG A   1      -8.081  -2.549 124.022  0.00  0.00    +0.277 C 
ENDBRANCH  15  19
TORSDOF 2
ENDMDL
MODEL 9
REMARK VINA RESULT:      -5.9      4.817      9.149
REMARK  Name = NuBBE_1957
REMARK  5 active torsions:
REMARK  status: ('A' for Active; 'I' for Inactive)
REMARK    1  A    between atoms: C_1  and  N_2
REMARK    2  A    between atoms: C_10  and  C_12
REMARK    3  A    between atoms: C_12  and  C_14
REMARK    4  A    between atoms: C_18  and  O_19
REMARK    5  A    between atoms: O_19  and  C_20
REMARK                            x       y       z     vdW  Elec       q    Type
REMARK                         _______ _______ _______ _____ _____    ______ ____
ROOT
ATOM      1  C   LIG A   1      -8.426   1.876 127.896  0.00  0.00    +0.152 C 
ATOM      2  N   LIG A   1      -7.805   1.051 126.862  0.00  0.00    -0.311 N 
ATOM      3  C   LIG A   1      -7.723   1.533 125.519  0.00  0.00    +0.097 A 
ATOM      4  C   LIG A   1      -7.146   0.687 124.528  0.00  0.00    +0.049 A 
ATOM      5  C   LIG A   1      -6.616  -0.653 124.899  0.00  0.00    +0.196 A 
ATOM      6  O   LIG A   1      -6.110  -1.414 124.082  0.00  0.00    -0.287 OA
ATOM      7  C   LIG A   1      -6.723  -1.022 126.300  0.00  0.00    +0.063 A 
ATOM      8  C   LIG A   1      -7.290  -0.194 127.165  0.00  0.00    +0.203 A 
ATOM      9  O   LIG A   1      -7.348  -0.697 128.461  0.00  0.00    -0.469 OA
ATOM     10  C   LIG A   1      -6.630  -1.958 128.404  0.00  0.00    +0.205 C 
ATOM     11  C   LIG A   1      -6.277  -2.263 126.938  0.00  0.00    +0.093 C 
ATOM     12  C   LIG A   1      -7.042   1.066 123.181  0.00  0.00    +0.014 A 
ATOM     13  C   LIG A   1      -7.493   2.312 122.778  0.00  0.00    +0.004 A 
ATOM     14  C   LIG A   1      -8.046   3.177 123.718  0.00  0.00    +0.048 A 
ATOM     15  C   LIG A   1      -8.179   2.803 125.070  0.00  0.00    +0.144 A 
ENDROOT
BRANCH  10  16
ATOM     16  C   LIG A   1      -7.462  -3.028 129.087  0.00  0.00    -0.040 C 
ATOM     17  C   LIG A   1      -7.202  -3.431 130.343  0.00  0.00    +0.011 C 
ATOM     18  C   LIG A   1      -8.612  -3.612 128.310  0.00  0.00    +0.042 C 
ENDBRANCH  10  16
BRANCH  15  19
ATOM     19  O   LIG A   1      -8.686   3.692 125.988  0.00  0.00    -0.493 OA
ATOM     20  C   LIG A   1      -8.193   5.026 125.926  0.00  0.00    +0.277 C 
ENDBRANCH  15  19
TORSDOF 2
ENDMDL
