MODEL 1
REMARK VINA RESULT:      -8.6      0.000      0.000
REMARK  Name = NuBBE_1196
REMARK  17 active torsions:
REMARK  status: ('A' for Active; 'I' for Inactive)
REMARK    1  A    between atoms: C_1  and  C_2
REMARK    2  A    between atoms: C_2  and  C_13
REMARK    3  A    between atoms: C_4  and  C_5
REMARK    4  A    between atoms: C_5  and  C_6
REMARK    5  A    between atoms: C_5  and  O_7
REMARK    6  A    between atoms: C_5  and  C_8
REMARK    7  A    between atoms: C_11  and  O_12
REMARK    8  A    between atoms: C_17  and  C_18
REMARK    9  A    between atoms: C_19  and  C_24
REMARK   10  A    between atoms: C_25  and  O_27
REMARK   11  A    between atoms: C_29  and  C_37
REMARK   12  A    between atoms: C_30  and  C_31
REMARK   13  A    between atoms: C_30  and  C_32
REMARK   14  A    between atoms: C_32  and  C_33
REMARK   15  A    between atoms: C_33  and  C_34
REMARK   16  A    between atoms: C_34  and  O_35
REMARK   17  A    between atoms: C_37  and  C_38
REMARK                            x       y       z     vdW  Elec       q    Type
REMARK                         _______ _______ _______ _____ _____    ______ ____
ROOT
ATOM      1  C   LIG A   1      -6.522   3.691 129.001  0.00  0.00    +0.027 C 
ATOM      2  C   LIG A   1      -5.567   2.892 129.899  0.00  0.00    +0.007 C 
ATOM      3  C   LIG A   1      -4.752   1.915 129.054  0.00  0.00    +0.008 C 
ATOM      4  C   LIG A   1      -5.321   1.872 127.613  0.00  0.00    -0.021 C 
ATOM      5  C   LIG A   1      -4.092   2.054 126.669  0.00  0.00    +0.012 C 
ATOM      6  C   LIG A   1      -6.156   0.545 127.193  0.00  0.00    +0.003 C 
ATOM      7  C   LIG A   1      -6.744   0.734 125.739  0.00  0.00    +0.004 C 
ATOM      8  C   LIG A   1      -7.151   2.195 125.402  0.00  0.00    +0.005 C 
ATOM      9  C   LIG A   1      -7.399   3.057 126.616  0.00  0.00    +0.005 C 
ATOM     10  C   LIG A   1      -6.212   3.167 127.555  0.00  0.00    +0.002 C 
ATOM     11  C   LIG A   1      -7.231   0.289 128.275  0.00  0.00    +0.014 C 
ATOM     12  C   LIG A   1      -5.304  -0.757 127.029  0.00  0.00    +0.122 C 
ATOM     13  C   LIG A   1      -6.161  -1.991 126.679  0.00  0.00    +0.040 C 
ATOM     14  C   LIG A   1      -7.219  -1.876 125.536  0.00  0.00    +0.023 C 
ATOM     15  C   LIG A   1      -7.757  -0.383 125.224  0.00  0.00    -0.022 C 
ATOM     16  C   LIG A   1      -9.160  -0.152 125.850  0.00  0.00    +0.012 C 
ENDROOT
BRANCH   1  18
ATOM     17  C   LIG A   1      -8.951   2.734 129.024  0.00  0.00    +0.044 C 
ATOM     18  C   LIG A   1      -7.991   3.814 129.584  0.00  0.00    +0.096 C 
ATOM     19  O   LIG A   1      -7.992   3.738 131.028  0.00  0.00    -0.365 OA
ATOM     20  C   LIG A   1      -9.196   4.380 131.521  0.00  0.00    +0.152 C 
ATOM     21  C   LIG A   1      -9.677   5.328 130.426  0.00  0.00    +0.068 C 
ATOM     22  C   LIG A   1      -8.616   5.214 129.342  0.00  0.00    +0.149 C 
BRANCH  20  23
ATOM     23  C   LIG A   1      -8.959   5.005 132.919  0.00  0.00    +0.087 C 
ATOM     24  C   LIG A   1      -7.608   5.723 132.989  0.00  0.00    +0.043 C 
ATOM     25  C   LIG A   1      -9.083   3.998 134.064  0.00  0.00    +0.043 C 
BRANCH  23  26
ATOM     26  O   LIG A   1      -9.969   6.006 133.131  0.00  0.00    -0.387 OA
ATOM     27  H   LIG A   1     -10.807   5.518 133.246  0.00  0.00    +0.210 HD
ENDBRANCH  23  26
ENDBRANCH  20  23
BRANCH  22  28
ATOM     28  O   LIG A   1      -9.156   5.418 128.045  0.00  0.00    -0.389 OA
ATOM     29  H   LIG A   1     -10.119   5.532 128.116  0.00  0.00    +0.210 HD
ENDBRANCH  22  28
ENDBRANCH   1  18
BRANCH  14  30
ATOM     30  C   LIG A   1      -8.266  -3.044 125.616  0.00  0.00    -0.076 C 
ATOM     31  C   LIG A   1      -8.765  -3.546 126.960  0.00  0.00    +0.038 C 
ATOM     32  C   LIG A   1      -8.691  -3.746 124.546  0.00  0.00    +0.007 C 
ENDBRANCH  14  30
BRANCH  12  33
ATOM     33  O   LIG A   1      -4.577  -1.045 128.220  0.00  0.00    -0.391 OA
ATOM     34  H   LIG A   1      -3.730  -1.446 127.961  0.00  0.00    +0.210 HD
ENDBRANCH  12  33
BRANCH  15  35
ATOM     35  C   LIG A   1      -7.934  -0.185 123.644  0.00  0.00    +0.018 C 
BRANCH  35  36
ATOM     36  C   LIG A   1      -9.334  -0.472 123.073  0.00  0.00    +0.121 C 
BRANCH  36  37
ATOM     37  C   LIG A   1     -10.097   0.781 122.706  0.00  0.00    +0.305 C 
ATOM     38  O   LIG A   1      -9.636   1.858 122.448  0.00  0.00    -0.251 OA
BRANCH  37  39
ATOM     39  O   LIG A   1     -11.436   0.569 122.745  0.00  0.00    -0.481 OA
ATOM     40  H   LIG A   1     -11.587   0.129 123.606  0.00  0.00    +0.295 HD
ENDBRANCH  37  39
ENDBRANCH  36  37
ENDBRANCH  35  36
ENDBRANCH  15  35
TORSDOF 10
ENDMDL
MODEL 2
REMARK VINA RESULT:      -8.1      2.516      7.314
REMARK  Name = NuBBE_1196
REMARK  17 active torsions:
REMARK  status: ('A' for Active; 'I' for Inactive)
REMARK    1  A    between atoms: C_1  and  C_2
REMARK    2  A    between atoms: C_2  and  C_13
REMARK    3  A    between atoms: C_4  and  C_5
REMARK    4  A    between atoms: C_5  and  C_6
REMARK    5  A    between atoms: C_5  and  O_7
REMARK    6  A    between atoms: C_5  and  C_8
REMARK    7  A    between atoms: C_11  and  O_12
REMARK    8  A    between atoms: C_17  and  C_18
REMARK    9  A    between atoms: C_19  and  C_24
REMARK   10  A    between atoms: C_25  and  O_27
REMARK   11  A    between atoms: C_29  and  C_37
REMARK   12  A    between atoms: C_30  and  C_31
REMARK   13  A    between atoms: C_30  and  C_32
REMARK   14  A    between atoms: C_32  and  C_33
REMARK   15  A    between atoms: C_33  and  C_34
REMARK   16  A    between atoms: C_34  and  O_35
REMARK   17  A    between atoms: C_37  and  C_38
REMARK                            x       y       z     vdW  Elec       q    Type
REMARK                         _______ _______ _______ _____ _____    ______ ____
ROOT
ATOM      1  C   LIG A   1      -7.516  -1.442 124.184  0.00  0.00    +0.027 C 
ATOM      2  C   LIG A   1      -8.821  -0.792 123.701  0.00  0.00    +0.007 C 
ATOM      3  C   LIG A   1      -8.641   0.721 123.593  0.00  0.00    +0.008 C 
ATOM      4  C   LIG A   1      -7.292   1.132 124.235  0.00  0.00    -0.021 C 
ATOM      5  C   LIG A   1      -6.587   2.045 123.185  0.00  0.00    +0.012 C 
ATOM      6  C   LIG A   1      -7.363   1.884 125.672  0.00  0.00    +0.003 C 
ATOM      7  C   LIG A   1      -5.898   2.122 126.212  0.00  0.00    +0.004 C 
ATOM      8  C   LIG A   1      -4.890   1.002 125.834  0.00  0.00    +0.005 C 
ATOM      9  C   LIG A   1      -5.542  -0.314 125.484  0.00  0.00    +0.005 C 
ATOM     10  C   LIG A   1      -6.522  -0.236 124.328  0.00  0.00    +0.002 C 
ATOM     11  C   LIG A   1      -8.249   1.038 126.617  0.00  0.00    +0.014 C 
ATOM     12  C   LIG A   1      -7.934   3.341 125.637  0.00  0.00    +0.122 C 
ATOM     13  C   LIG A   1      -8.021   3.981 127.038  0.00  0.00    +0.040 C 
ATOM     14  C   LIG A   1      -6.784   3.896 127.986  0.00  0.00    +0.023 C 
ATOM     15  C   LIG A   1      -5.763   2.675 127.701  0.00  0.00    -0.022 C 
ATOM     16  C   LIG A   1      -5.976   1.518 128.714  0.00  0.00    +0.012 C 
ENDROOT
BRANCH   1  18
ATOM     17  C   LIG A   1      -7.763  -3.978 124.755  0.00  0.00    +0.044 C 
ATOM     18  C   LIG A   1      -7.729  -2.533 125.314  0.00  0.00    +0.096 C 
ATOM     19  O   LIG A   1      -6.702  -2.448 126.328  0.00  0.00    -0.365 OA
ATOM     20  C   LIG A   1      -7.213  -3.038 127.551  0.00  0.00    +0.152 C 
ATOM     21  C   LIG A   1      -8.736  -3.003 127.460  0.00  0.00    +0.068 C 
ATOM     22  C   LIG A   1      -9.015  -2.288 126.147  0.00  0.00    +0.149 C 
BRANCH  20  23
ATOM     23  C   LIG A   1      -6.580  -2.369 128.797  0.00  0.00    +0.087 C 
ATOM     24  C   LIG A   1      -7.480  -1.264 129.356  0.00  0.00    +0.043 C 
ATOM     25  C   LIG A   1      -5.171  -1.828 128.546  0.00  0.00    +0.043 C 
BRANCH  23  26
ATOM     26  O   LIG A   1      -6.468  -3.368 129.825  0.00  0.00    -0.387 OA
ATOM     27  H   LIG A   1      -6.074  -2.914 130.595  0.00  0.00    +0.210 HD
ENDBRANCH  23  26
ENDBRANCH  20  23
BRANCH  22  28
ATOM     28  O   LIG A   1     -10.220  -2.735 125.544  0.00  0.00    -0.389 OA
ATOM     29  H   LIG A   1     -10.976  -2.358 126.026  0.00  0.00    +0.210 HD
ENDBRANCH  22  28
ENDBRANCH   1  18
BRANCH  14  30
ATOM     30  C   LIG A   1      -7.190   4.196 129.474  0.00  0.00    -0.076 C 
ATOM     31  C   LIG A   1      -8.558   3.793 129.998  0.00  0.00    +0.038 C 
ATOM     32  C   LIG A   1      -6.435   4.914 130.329  0.00  0.00    +0.007 C 
ENDBRANCH  14  30
BRANCH  12  33
ATOM     33  O   LIG A   1      -9.234   3.366 125.055  0.00  0.00    -0.391 OA
ATOM     34  H   LIG A   1      -9.476   4.296 124.910  0.00  0.00    +0.210 HD
ENDBRANCH  12  33
BRANCH  15  35
ATOM     35  C   LIG A   1      -4.251   3.169 127.898  0.00  0.00    +0.018 C 
BRANCH  35  36
ATOM     36  C   LIG A   1      -3.773   4.292 126.960  0.00  0.00    +0.121 C 
BRANCH  36  37
ATOM     37  C   LIG A   1      -3.468   5.584 127.684  0.00  0.00    +0.305 C 
ATOM     38  O   LIG A   1      -4.238   6.468 127.940  0.00  0.00    -0.251 OA
BRANCH  37  39
ATOM     39  O   LIG A   1      -2.151   5.674 127.994  0.00  0.00    -0.481 OA
ATOM     40  H   LIG A   1      -2.106   5.421 128.939  0.00  0.00    +0.295 HD
ENDBRANCH  37  39
ENDBRANCH  36  37
ENDBRANCH  35  36
ENDBRANCH  15  35
TORSDOF 10
ENDMDL
MODEL 3
REMARK VINA RESULT:      -8.1      2.293      7.100
REMARK  Name = NuBBE_1196
REMARK  17 active torsions:
REMARK  status: ('A' for Active; 'I' for Inactive)
REMARK    1  A    between atoms: C_1  and  C_2
REMARK    2  A    between atoms: C_2  and  C_13
REMARK    3  A    between atoms: C_4  and  C_5
REMARK    4  A    between atoms: C_5  and  C_6
REMARK    5  A    between atoms: C_5  and  O_7
REMARK    6  A    between atoms: C_5  and  C_8
REMARK    7  A    between atoms: C_11  and  O_12
REMARK    8  A    between atoms: C_17  and  C_18
REMARK    9  A    between atoms: C_19  and  C_24
REMARK   10  A    between atoms: C_25  and  O_27
REMARK   11  A    between atoms: C_29  and  C_37
REMARK   12  A    between atoms: C_30  and  C_31
REMARK   13  A    between atoms: C_30  and  C_32
REMARK   14  A    between atoms: C_32  and  C_33
REMARK   15  A    between atoms: C_33  and  C_34
REMARK   16  A    between atoms: C_34  and  O_35
REMARK   17  A    between atoms: C_37  and  C_38
REMARK                            x       y       z     vdW  Elec       q    Type
REMARK                         _______ _______ _______ _____ _____    ______ ____
ROOT
ATOM      1  C   LIG A   1      -6.214   2.990 124.287  0.00  0.00    +0.027 C 
ATOM      2  C   LIG A   1      -6.339   4.448 124.754  0.00  0.00    +0.007 C 
ATOM      3  C   LIG A   1      -5.673   4.617 126.118  0.00  0.00    +0.008 C 
ATOM      4  C   LIG A   1      -5.308   3.227 126.695  0.00  0.00    -0.021 C 
ATOM      5  C   LIG A   1      -3.817   3.336 127.143  0.00  0.00    +0.012 C 
ATOM      6  C   LIG A   1      -6.220   2.678 127.920  0.00  0.00    +0.003 C 
ATOM      7  C   LIG A   1      -5.768   1.212 128.296  0.00  0.00    +0.004 C 
ATOM      8  C   LIG A   1      -5.285   0.365 127.086  0.00  0.00    +0.005 C 
ATOM      9  C   LIG A   1      -5.789   0.861 125.752  0.00  0.00    +0.005 C 
ATOM     10  C   LIG A   1      -5.400   2.293 125.433  0.00  0.00    +0.002 C 
ATOM     11  C   LIG A   1      -7.706   2.787 127.502  0.00  0.00    +0.014 C 
ATOM     12  C   LIG A   1      -6.037   3.430 129.281  0.00  0.00    +0.122 C 
ATOM     13  C   LIG A   1      -6.967   2.894 130.389  0.00  0.00    +0.040 C 
ATOM     14  C   LIG A   1      -7.058   1.352 130.618  0.00  0.00    +0.023 C 
ATOM     15  C   LIG A   1      -6.673   0.429 129.348  0.00  0.00    -0.022 C 
ATOM     16  C   LIG A   1      -7.946  -0.117 128.646  0.00  0.00    +0.012 C 
ENDROOT
BRANCH   1  18
ATOM     17  C   LIG A   1      -8.033   3.149 122.420  0.00  0.00    +0.044 C 
ATOM     18  C   LIG A   1      -7.556   2.396 123.689  0.00  0.00    +0.096 C 
ATOM     19  O   LIG A   1      -7.415   0.992 123.373  0.00  0.00    -0.365 OA
ATOM     20  C   LIG A   1      -8.735   0.388 123.365  0.00  0.00    +0.152 C 
ATOM     21  C   LIG A   1      -9.642   1.288 124.200  0.00  0.00    +0.068 C 
ATOM     22  C   LIG A   1      -8.713   2.373 124.722  0.00  0.00    +0.149 C 
BRANCH  20  23
ATOM     23  C   LIG A   1      -8.667  -1.102 123.783  0.00  0.00    +0.087 C 
ATOM     24  C   LIG A   1      -8.876  -1.270 125.291  0.00  0.00    +0.043 C 
ATOM     25  C   LIG A   1      -7.375  -1.797 123.348  0.00  0.00    +0.043 C 
BRANCH  23  26
ATOM     26  O   LIG A   1      -9.751  -1.791 123.138  0.00  0.00    -0.387 OA
ATOM     27  H   LIG A   1      -9.334  -2.439 122.537  0.00  0.00    +0.210 HD
ENDBRANCH  23  26
ENDBRANCH  20  23
BRANCH  22  28
ATOM     28  O   LIG A   1      -9.387   3.609 124.902  0.00  0.00    -0.389 OA
ATOM     29  H   LIG A   1      -8.845   4.324 124.526  0.00  0.00    +0.210 HD
ENDBRANCH  22  28
ENDBRANCH   1  18
BRANCH  14  30
ATOM     30  C   LIG A   1      -8.337   0.980 131.451  0.00  0.00    -0.076 C 
ATOM     31  C   LIG A   1      -9.499   1.952 131.559  0.00  0.00    +0.038 C 
ATOM     32  C   LIG A   1      -8.446  -0.133 132.203  0.00  0.00    +0.007 C 
ENDBRANCH  14  30
BRANCH  12  33
ATOM     33  O   LIG A   1      -6.283   4.826 129.130  0.00  0.00    -0.391 OA
ATOM     34  H   LIG A   1      -5.647   5.301 129.690  0.00  0.00    +0.210 HD
ENDBRANCH  12  33
BRANCH  15  35
ATOM     35  C   LIG A   1      -5.846  -0.855 129.837  0.00  0.00    +0.018 C 
BRANCH  35  36
ATOM     36  C   LIG A   1      -4.582  -0.575 130.669  0.00  0.00    +0.121 C 
BRANCH  36  37
ATOM     37  C   LIG A   1      -3.524  -1.646 130.523  0.00  0.00    +0.305 C 
ATOM     38  O   LIG A   1      -2.775  -2.042 131.372  0.00  0.00    -0.251 OA
BRANCH  37  39
ATOM     39  O   LIG A   1      -3.468  -2.109 129.250  0.00  0.00    -0.481 OA
ATOM     40  H   LIG A   1      -2.564  -1.883 128.948  0.00  0.00    +0.295 HD
ENDBRANCH  37  39
ENDBRANCH  36  37
ENDBRANCH  35  36
ENDBRANCH  15  35
TORSDOF 10
ENDMDL
MODEL 4
REMARK VINA RESULT:      -7.9      2.768      6.659
REMARK  Name = NuBBE_1196
REMARK  17 active torsions:
REMARK  status: ('A' for Active; 'I' for Inactive)
REMARK    1  A    between atoms: C_1  and  C_2
REMARK    2  A    between atoms: C_2  and  C_13
REMARK    3  A    between atoms: C_4  and  C_5
REMARK    4  A    between atoms: C_5  and  C_6
REMARK    5  A    between atoms: C_5  and  O_7
REMARK    6  A    between atoms: C_5  and  C_8
REMARK    7  A    between atoms: C_11  and  O_12
REMARK    8  A    between atoms: C_17  and  C_18
REMARK    9  A    between atoms: C_19  and  C_24
REMARK   10  A    between atoms: C_25  and  O_27
REMARK   11  A    between atoms: C_29  and  C_37
REMARK   12  A    between atoms: C_30  and  C_31
REMARK   13  A    between atoms: C_30  and  C_32
REMARK   14  A    between atoms: C_32  and  C_33
REMARK   15  A    between atoms: C_33  and  C_34
REMARK   16  A    between atoms: C_34  and  O_35
REMARK   17  A    between atoms: C_37  and  C_38
REMARK                            x       y       z     vdW  Elec       q    Type
REMARK                         _______ _______ _______ _____ _____    ______ ____
ROOT
ATOM      1  C   LIG A   1      -6.772   4.111 127.962  0.00  0.00    +0.027 C 
ATOM      2  C   LIG A   1      -8.179   4.174 128.574  0.00  0.00    +0.007 C 
ATOM      3  C   LIG A   1      -8.193   3.464 129.926  0.00  0.00    +0.008 C 
ATOM      4  C   LIG A   1      -6.858   2.703 130.127  0.00  0.00    -0.021 C 
ATOM      5  C   LIG A   1      -6.352   3.110 131.546  0.00  0.00    +0.012 C 
ATOM      6  C   LIG A   1      -6.908   1.086 129.995  0.00  0.00    +0.003 C 
ATOM      7  C   LIG A   1      -5.445   0.504 130.121  0.00  0.00    +0.004 C 
ATOM      8  C   LIG A   1      -4.342   1.420 129.524  0.00  0.00    +0.005 C 
ATOM      9  C   LIG A   1      -4.854   2.413 128.509  0.00  0.00    +0.005 C 
ATOM     10  C   LIG A   1      -5.923   3.350 129.041  0.00  0.00    +0.002 C 
ATOM     11  C   LIG A   1      -7.610   0.732 128.662  0.00  0.00    +0.014 C 
ATOM     12  C   LIG A   1      -7.652   0.342 131.154  0.00  0.00    +0.122 C 
ATOM     13  C   LIG A   1      -7.708  -1.185 130.944  0.00  0.00    +0.040 C 
ATOM     14  C   LIG A   1      -6.400  -1.942 130.552  0.00  0.00    +0.023 C 
ATOM     15  C   LIG A   1      -5.263  -1.052 129.824  0.00  0.00    -0.022 C 
ATOM     16  C   LIG A   1      -5.257  -1.298 128.290  0.00  0.00    +0.012 C 
ENDROOT
BRANCH   1  18
ATOM     17  C   LIG A   1      -5.502   4.246 125.684  0.00  0.00    +0.044 C 
ATOM     18  C   LIG A   1      -6.763   3.731 126.423  0.00  0.00    +0.096 C 
ATOM     19  O   LIG A   1      -6.865   2.301 126.234  0.00  0.00    -0.365 OA
ATOM     20  C   LIG A   1      -7.392   2.050 124.905  0.00  0.00    +0.152 C 
ATOM     21  C   LIG A   1      -8.125   3.316 124.469  0.00  0.00    +0.068 C 
ATOM     22  C   LIG A   1      -8.024   4.238 125.675  0.00  0.00    +0.149 C 
BRANCH  20  23
ATOM     23  C   LIG A   1      -8.210   0.734 124.872  0.00  0.00    +0.087 C 
ATOM     24  C   LIG A   1      -9.490   0.850 125.705  0.00  0.00    +0.043 C 
ATOM     25  C   LIG A   1      -7.405  -0.492 125.306  0.00  0.00    +0.043 C 
BRANCH  23  26
ATOM     26  O   LIG A   1      -8.622   0.505 123.514  0.00  0.00    -0.387 OA
ATOM     27  H   LIG A   1      -9.577   0.306 123.556  0.00  0.00    +0.210 HD
ENDBRANCH  23  26
ENDBRANCH  20  23
BRANCH  22  28
ATOM     28  O   LIG A   1      -7.993   5.606 125.297  0.00  0.00    -0.389 OA
ATOM     29  H   LIG A   1      -8.646   5.756 124.591  0.00  0.00    +0.210 HD
ENDBRANCH  22  28
ENDBRANCH   1  18
BRANCH  14  30
ATOM     30  C   LIG A   1      -6.723  -3.363 129.965  0.00  0.00    -0.076 C 
ATOM     31  C   LIG A   1      -7.939  -3.575 129.079  0.00  0.00    +0.038 C 
ATOM     32  C   LIG A   1      -6.046  -4.482 130.290  0.00  0.00    +0.007 C 
ENDBRANCH  14  30
BRANCH  12  33
ATOM     33  O   LIG A   1      -8.987   0.821 131.294  0.00  0.00    -0.391 OA
ATOM     34  H   LIG A   1      -9.244   1.231 130.451  0.00  0.00    +0.210 HD
ENDBRANCH  12  33
BRANCH  15  35
ATOM     35  C   LIG A   1      -3.812  -1.479 130.352  0.00  0.00    +0.018 C 
BRANCH  35  36
ATOM     36  C   LIG A   1      -3.594  -1.413 131.874  0.00  0.00    +0.121 C 
BRANCH  36  37
ATOM     37  C   LIG A   1      -3.653  -2.767 132.544  0.00  0.00    +0.305 C 
ATOM     38  O   LIG A   1      -3.021  -3.744 132.255  0.00  0.00    -0.251 OA
BRANCH  37  39
ATOM     39  O   LIG A   1      -4.581  -2.784 133.533  0.00  0.00    -0.481 OA
ATOM     40  H   LIG A   1      -4.551  -3.700 133.878  0.00  0.00    +0.295 HD
ENDBRANCH  37  39
ENDBRANCH  36  37
ENDBRANCH  35  36
ENDBRANCH  15  35
TORSDOF 10
ENDMDL
MODEL 5
REMARK VINA RESULT:      -7.9      2.651      4.067
REMARK  Name = NuBBE_1196
REMARK  17 active torsions:
REMARK  status: ('A' for Active; 'I' for Inactive)
REMARK    1  A    between atoms: C_1  and  C_2
REMARK    2  A    between atoms: C_2  and  C_13
REMARK    3  A    between atoms: C_4  and  C_5
REMARK    4  A    between atoms: C_5  and  C_6
REMARK    5  A    between atoms: C_5  and  O_7
REMARK    6  A    between atoms: C_5  and  C_8
REMARK    7  A    between atoms: C_11  and  O_12
REMARK    8  A    between atoms: C_17  and  C_18
REMARK    9  A    between atoms: C_19  and  C_24
REMARK   10  A    between atoms: C_25  and  O_27
REMARK   11  A    between atoms: C_29  and  C_37
REMARK   12  A    between atoms: C_30  and  C_31
REMARK   13  A    between atoms: C_30  and  C_32
REMARK   14  A    between atoms: C_32  and  C_33
REMARK   15  A    between atoms: C_33  and  C_34
REMARK   16  A    between atoms: C_34  and  O_35
REMARK   17  A    between atoms: C_37  and  C_38
REMARK                            x       y       z     vdW  Elec       q    Type
REMARK                         _______ _______ _______ _____ _____    ______ ____
ROOT
ATOM      1  C   LIG A   1      -4.217   4.508 129.984  0.00  0.00    +0.027 C 
ATOM      2  C   LIG A   1      -4.150   3.044 130.445  0.00  0.00    +0.007 C 
ATOM      3  C   LIG A   1      -3.810   2.140 129.262  0.00  0.00    +0.008 C 
ATOM      4  C   LIG A   1      -3.885   2.954 127.946  0.00  0.00    -0.021 C 
ATOM      5  C   LIG A   1      -2.555   2.652 127.188  0.00  0.00    +0.012 C 
ATOM      6  C   LIG A   1      -5.156   2.670 126.978  0.00  0.00    +0.003 C 
ATOM      7  C   LIG A   1      -5.115   3.665 125.752  0.00  0.00    +0.004 C 
ATOM      8  C   LIG A   1      -4.541   5.068 126.090  0.00  0.00    +0.005 C 
ATOM      9  C   LIG A   1      -4.599   5.415 127.557  0.00  0.00    +0.005 C 
ATOM     10  C   LIG A   1      -3.860   4.442 128.457  0.00  0.00    +0.002 C 
ATOM     11  C   LIG A   1      -6.444   2.777 127.829  0.00  0.00    +0.014 C 
ATOM     12  C   LIG A   1      -5.155   1.277 126.263  0.00  0.00    +0.122 C 
ATOM     13  C   LIG A   1      -6.412   1.048 125.399  0.00  0.00    +0.040 C 
ATOM     14  C   LIG A   1      -6.868   2.173 124.416  0.00  0.00    +0.023 C 
ATOM     15  C   LIG A   1      -6.386   3.671 124.790  0.00  0.00    -0.022 C 
ATOM     16  C   LIG A   1      -7.538   4.482 125.443  0.00  0.00    +0.012 C 
ENDROOT
BRANCH   1  18
ATOM     17  C   LIG A   1      -5.202   6.817 130.703  0.00  0.00    +0.044 C 
ATOM     18  C   LIG A   1      -5.469   5.298 130.551  0.00  0.00    +0.096 C 
ATOM     19  O   LIG A   1      -6.633   5.108 129.715  0.00  0.00    -0.365 OA
ATOM     20  C   LIG A   1      -7.818   5.359 130.514  0.00  0.00    +0.152 C 
ATOM     21  C   LIG A   1      -7.418   5.177 131.976  0.00  0.00    +0.068 C 
ATOM     22  C   LIG A   1      -5.963   4.738 131.912  0.00  0.00    +0.149 C 
BRANCH  20  23
ATOM     23  C   LIG A   1      -9.014   4.510 130.015  0.00  0.00    +0.087 C 
ATOM     24  C   LIG A   1     -10.336   5.004 130.608  0.00  0.00    +0.043 C 
ATOM     25  C   LIG A   1      -8.844   3.011 130.274  0.00  0.00    +0.043 C 
BRANCH  23  26
ATOM     26  O   LIG A   1      -9.112   4.680 128.591  0.00  0.00    -0.387 OA
ATOM     27  H   LIG A   1      -8.405   4.126 128.208  0.00  0.00    +0.210 HD
ENDBRANCH  23  26
ENDBRANCH  20  23
BRANCH  22  28
ATOM     28  O   LIG A   1      -5.226   5.170 133.046  0.00  0.00    -0.389 OA
ATOM     29  H   LIG A   1      -4.947   6.092 132.911  0.00  0.00    +0.210 HD
ENDBRANCH  22  28
ENDBRANCH   1  18
BRANCH  14  30
ATOM     30  C   LIG A   1      -8.357   1.959 123.965  0.00  0.00    -0.076 C 
ATOM     31  C   LIG A   1      -9.347   1.253 124.875  0.00  0.00    +0.038 C 
ATOM     32  C   LIG A   1      -8.821   2.263 122.736  0.00  0.00    +0.007 C 
ENDBRANCH  14  30
BRANCH  12  33
ATOM     33  O   LIG A   1      -5.068   0.217 127.211  0.00  0.00    -0.391 OA
ATOM     34  H   LIG A   1      -5.320  -0.606 126.759  0.00  0.00    +0.210 HD
ENDBRANCH  12  33
BRANCH  15  35
ATOM     35  C   LIG A   1      -5.980   4.463 123.457  0.00  0.00    +0.018 C 
BRANCH  35  36
ATOM     36  C   LIG A   1      -5.605   3.600 122.239  0.00  0.00    +0.121 C 
BRANCH  36  37
ATOM     37  C   LIG A   1      -5.699   4.348 120.928  0.00  0.00    +0.305 C 
ATOM     38  O   LIG A   1      -5.071   5.316 120.601  0.00  0.00    -0.251 OA
BRANCH  37  39
ATOM     39  O   LIG A   1      -6.654   3.813 120.126  0.00  0.00    -0.481 OA
ATOM     40  H   LIG A   1      -7.078   4.588 119.703  0.00  0.00    +0.295 HD
ENDBRANCH  37  39
ENDBRANCH  36  37
ENDBRANCH  35  36
ENDBRANCH  15  35
TORSDOF 10
ENDMDL
MODEL 6
REMARK VINA RESULT:      -7.8      4.082      7.738
REMARK  Name = NuBBE_1196
REMARK  17 active torsions:
REMARK  status: ('A' for Active; 'I' for Inactive)
REMARK    1  A    between atoms: C_1  and  C_2
REMARK    2  A    between atoms: C_2  and  C_13
REMARK    3  A    between atoms: C_4  and  C_5
REMARK    4  A    between atoms: C_5  and  C_6
REMARK    5  A    between atoms: C_5  and  O_7
REMARK    6  A    between atoms: C_5  and  C_8
REMARK    7  A    between atoms: C_11  and  O_12
REMARK    8  A    between atoms: C_17  and  C_18
REMARK    9  A    between atoms: C_19  and  C_24
REMARK   10  A    between atoms: C_25  and  O_27
REMARK   11  A    between atoms: C_29  and  C_37
REMARK   12  A    between atoms: C_30  and  C_31
REMARK   13  A    between atoms: C_30  and  C_32
REMARK   14  A    between atoms: C_32  and  C_33
REMARK   15  A    between atoms: C_33  and  C_34
REMARK   16  A    between atoms: C_34  and  O_35
REMARK   17  A    between atoms: C_37  and  C_38
REMARK                            x       y       z     vdW  Elec       q    Type
REMARK                         _______ _______ _______ _____ _____    ______ ____
ROOT
ATOM      1  C   LIG A   1      -5.601   2.041 128.410  0.00  0.00    +0.027 C 
ATOM      2  C   LIG A   1      -4.775   1.017 129.203  0.00  0.00    +0.007 C 
ATOM      3  C   LIG A   1      -5.557   0.555 130.431  0.00  0.00    +0.008 C 
ATOM      4  C   LIG A   1      -6.815   1.441 130.611  0.00  0.00    -0.021 C 
ATOM      5  C   LIG A   1      -8.005   0.450 130.800  0.00  0.00    +0.012 C 
ATOM      6  C   LIG A   1      -6.786   2.517 131.826  0.00  0.00    +0.003 C 
ATOM      7  C   LIG A   1      -8.099   3.395 131.781  0.00  0.00    +0.004 C 
ATOM      8  C   LIG A   1      -8.629   3.673 130.347  0.00  0.00    +0.005 C 
ATOM      9  C   LIG A   1      -7.585   3.520 129.268  0.00  0.00    +0.005 C 
ATOM     10  C   LIG A   1      -6.947   2.144 129.210  0.00  0.00    +0.002 C 
ATOM     11  C   LIG A   1      -5.480   3.338 131.713  0.00  0.00    +0.014 C 
ATOM     12  C   LIG A   1      -6.858   1.904 133.265  0.00  0.00    +0.122 C 
ATOM     13  C   LIG A   1      -6.776   2.974 134.373  0.00  0.00    +0.040 C 
ATOM     14  C   LIG A   1      -7.681   4.242 134.268  0.00  0.00    +0.023 C 
ATOM     15  C   LIG A   1      -8.166   4.637 132.777  0.00  0.00    -0.022 C 
ATOM     16  C   LIG A   1      -7.328   5.815 132.209  0.00  0.00    +0.012 C 
ENDROOT
BRANCH   1  18
ATOM     17  C   LIG A   1      -5.295   3.916 126.619  0.00  0.00    +0.044 C 
ATOM     18  C   LIG A   1      -4.768   3.306 127.943  0.00  0.00    +0.096 C 
ATOM     19  O   LIG A   1      -4.758   4.334 128.960  0.00  0.00    -0.365 OA
ATOM     20  C   LIG A   1      -3.598   5.179 128.747  0.00  0.00    +0.152 C 
ATOM     21  C   LIG A   1      -2.595   4.365 127.934  0.00  0.00    +0.068 C 
ATOM     22  C   LIG A   1      -3.255   3.002 127.786  0.00  0.00    +0.149 C 
BRANCH  20  23
ATOM     23  C   LIG A   1      -3.085   5.766 130.086  0.00  0.00    +0.087 C 
ATOM     24  C   LIG A   1      -2.672   4.659 131.060  0.00  0.00    +0.043 C 
ATOM     25  C   LIG A   1      -4.082   6.715 130.755  0.00  0.00    +0.043 C 
BRANCH  23  26
ATOM     26  O   LIG A   1      -1.901   6.532 129.807  0.00  0.00    -0.387 OA
ATOM     27  H   LIG A   1      -1.812   7.163 130.547  0.00  0.00    +0.210 HD
ENDBRANCH  23  26
ENDBRANCH  20  23
BRANCH  22  28
ATOM     28  O   LIG A   1      -2.890   2.363 126.573  0.00  0.00    -0.389 OA
ATOM     29  H   LIG A   1      -2.072   1.854 126.715  0.00  0.00    +0.210 HD
ENDBRANCH  22  28
ENDBRANCH   1  18
BRANCH  14  30
ATOM     30  C   LIG A   1      -7.161   5.386 135.211  0.00  0.00    -0.076 C 
ATOM     31  C   LIG A   1      -5.674   5.672 135.333  0.00  0.00    +0.038 C 
ATOM     32  C   LIG A   1      -7.953   6.092 136.043  0.00  0.00    +0.007 C 
ENDBRANCH  14  30
BRANCH  12  33
ATOM     33  O   LIG A   1      -5.806   0.966 133.473  0.00  0.00    -0.391 OA
ATOM     34  H   LIG A   1      -5.908   0.257 132.817  0.00  0.00    +0.210 HD
ENDBRANCH  12  33
BRANCH  15  35
ATOM     35  C   LIG A   1      -9.685   5.146 132.814  0.00  0.00    +0.018 C 
BRANCH  35  36
ATOM     36  C   LIG A   1     -10.032   6.325 131.888  0.00  0.00    +0.121 C 
BRANCH  36  37
ATOM     37  C   LIG A   1     -11.326   6.128 131.130  0.00  0.00    +0.305 C 
ATOM     38  O   LIG A   1     -11.450   5.882 129.963  0.00  0.00    -0.251 OA
BRANCH  37  39
ATOM     39  O   LIG A   1     -12.400   6.314 131.937  0.00  0.00    -0.481 OA
ATOM     40  H   LIG A   1     -13.069   6.734 131.359  0.00  0.00    +0.295 HD
ENDBRANCH  37  39
ENDBRANCH  36  37
ENDBRANCH  35  36
ENDBRANCH  15  35
TORSDOF 10
ENDMDL
MODEL 7
REMARK VINA RESULT:      -7.7      2.720      5.022
REMARK  Name = NuBBE_1196
REMARK  17 active torsions:
REMARK  status: ('A' for Active; 'I' for Inactive)
REMARK    1  A    between atoms: C_1  and  C_2
REMARK    2  A    between atoms: C_2  and  C_13
REMARK    3  A    between atoms: C_4  and  C_5
REMARK    4  A    between atoms: C_5  and  C_6
REMARK    5  A    between atoms: C_5  and  O_7
REMARK    6  A    between atoms: C_5  and  C_8
REMARK    7  A    between atoms: C_11  and  O_12
REMARK    8  A    between atoms: C_17  and  C_18
REMARK    9  A    between atoms: C_19  and  C_24
REMARK   10  A    between atoms: C_25  and  O_27
REMARK   11  A    between atoms: C_29  and  C_37
REMARK   12  A    between atoms: C_30  and  C_31
REMARK   13  A    between atoms: C_30  and  C_32
REMARK   14  A    between atoms: C_32  and  C_33
REMARK   15  A    between atoms: C_33  and  C_34
REMARK   16  A    between atoms: C_34  and  O_35
REMARK   17  A    between atoms: C_37  and  C_38
REMARK                            x       y       z     vdW  Elec       q    Type
REMARK                         _______ _______ _______ _____ _____    ______ ____
ROOT
ATOM      1  C   LIG A   1      -6.849   3.362 132.910  0.00  0.00    +0.027 C 
ATOM      2  C   LIG A   1      -7.850   2.236 133.211  0.00  0.00    +0.007 C 
ATOM      3  C   LIG A   1      -7.443   0.965 132.470  0.00  0.00    +0.008 C 
ATOM      4  C   LIG A   1      -6.304   1.287 131.469  0.00  0.00    -0.021 C 
ATOM      5  C   LIG A   1      -5.201   0.214 131.727  0.00  0.00    +0.012 C 
ATOM      6  C   LIG A   1      -6.697   1.316 129.895  0.00  0.00    +0.003 C 
ATOM      7  C   LIG A   1      -5.442   1.767 129.049  0.00  0.00    +0.004 C 
ATOM      8  C   LIG A   1      -4.529   2.800 129.766  0.00  0.00    +0.005 C 
ATOM      9  C   LIG A   1      -5.219   3.563 130.870  0.00  0.00    +0.005 C 
ATOM     10  C   LIG A   1      -5.790   2.687 131.970  0.00  0.00    +0.002 C 
ATOM     11  C   LIG A   1      -7.931   2.234 129.723  0.00  0.00    +0.014 C 
ATOM     12  C   LIG A   1      -7.029  -0.076 129.262  0.00  0.00    +0.122 C 
ATOM     13  C   LIG A   1      -7.442   0.025 127.779  0.00  0.00    +0.040 C 
ATOM     14  C   LIG A   1      -6.568   0.879 126.808  0.00  0.00    +0.023 C 
ATOM     15  C   LIG A   1      -5.683   2.044 127.498  0.00  0.00    -0.022 C 
ATOM     16  C   LIG A   1      -6.344   3.436 127.307  0.00  0.00    +0.012 C 
ENDROOT
BRANCH   1  18
ATOM     17  C   LIG A   1      -6.562   5.951 132.736  0.00  0.00    +0.044 C 
ATOM     18  C   LIG A   1      -7.535   4.754 132.588  0.00  0.00    +0.096 C 
ATOM     19  O   LIG A   1      -8.095   4.768 131.256  0.00  0.00    -0.365 OA
ATOM     20  C   LIG A   1      -9.138   5.777 131.206  0.00  0.00    +0.152 C 
ATOM     21  C   LIG A   1      -9.596   6.015 132.642  0.00  0.00    +0.068 C 
ATOM     22  C   LIG A   1      -8.791   5.018 133.461  0.00  0.00    +0.149 C 
BRANCH  20  23
ATOM     23  C   LIG A   1     -10.238   5.389 130.186  0.00  0.00    +0.087 C 
ATOM     24  C   LIG A   1     -11.305   6.481 130.072  0.00  0.00    +0.043 C 
ATOM     25  C   LIG A   1     -10.892   4.038 130.483  0.00  0.00    +0.043 C 
BRANCH  23  26
ATOM     26  O   LIG A   1      -9.621   5.280 128.892  0.00  0.00    -0.387 OA
ATOM     27  H   LIG A   1     -10.318   5.503 128.245  0.00  0.00    +0.210 HD
ENDBRANCH  23  26
ENDBRANCH  20  23
BRANCH  22  28
ATOM     28  O   LIG A   1      -8.526   5.497 134.771  0.00  0.00    -0.389 OA
ATOM     29  H   LIG A   1      -8.681   6.457 134.796  0.00  0.00    +0.210 HD
ENDBRANCH  22  28
ENDBRANCH   1  18
BRANCH  14  30
ATOM     30  C   LIG A   1      -7.354   1.221 125.492  0.00  0.00    -0.076 C 
ATOM     31  C   LIG A   1      -8.860   1.425 125.522  0.00  0.00    +0.038 C 
ATOM     32  C   LIG A   1      -6.796   1.238 124.265  0.00  0.00    +0.007 C 
ENDBRANCH  14  30
BRANCH  12  33
ATOM     33  O   LIG A   1      -8.080  -0.723 129.973  0.00  0.00    -0.391 OA
ATOM     34  H   LIG A   1      -8.857  -0.140 129.948  0.00  0.00    +0.210 HD
ENDBRANCH  12  33
BRANCH  15  35
ATOM     35  C   LIG A   1      -4.247   2.130 126.792  0.00  0.00    +0.018 C 
BRANCH  35  36
ATOM     36  C   LIG A   1      -3.817   3.520 126.289  0.00  0.00    +0.121 C 
BRANCH  36  37
ATOM     37  C   LIG A   1      -2.535   4.013 126.922  0.00  0.00    +0.305 C 
ATOM     38  O   LIG A   1      -2.420   4.891 127.731  0.00  0.00    -0.251 OA
BRANCH  37  39
ATOM     39  O   LIG A   1      -1.458   3.358 126.423  0.00  0.00    -0.481 OA
ATOM     40  H   LIG A   1      -0.702   3.701 126.943  0.00  0.00    +0.295 HD
ENDBRANCH  37  39
ENDBRANCH  36  37
ENDBRANCH  35  36
ENDBRANCH  15  35
TORSDOF 10
ENDMDL
MODEL 8
REMARK VINA RESULT:      -7.6      2.324      8.100
REMARK  Name = NuBBE_1196
REMARK  17 active torsions:
REMARK  status: ('A' for Active; 'I' for Inactive)
REMARK    1  A    between atoms: C_1  and  C_2
REMARK    2  A    between atoms: C_2  and  C_13
REMARK    3  A    between atoms: C_4  and  C_5
REMARK    4  A    between atoms: C_5  and  C_6
REMARK    5  A    between atoms: C_5  and  O_7
REMARK    6  A    between atoms: C_5  and  C_8
REMARK    7  A    between atoms: C_11  and  O_12
REMARK    8  A    between atoms: C_17  and  C_18
REMARK    9  A    between atoms: C_19  and  C_24
REMARK   10  A    between atoms: C_25  and  O_27
REMARK   11  A    between atoms: C_29  and  C_37
REMARK   12  A    between atoms: C_30  and  C_31
REMARK   13  A    between atoms: C_30  and  C_32
REMARK   14  A    between atoms: C_32  and  C_33
REMARK   15  A    between atoms: C_33  and  C_34
REMARK   16  A    between atoms: C_34  and  O_35
REMARK   17  A    between atoms: C_37  and  C_38
REMARK                            x       y       z     vdW  Elec       q    Type
REMARK                         _______ _______ _______ _____ _____    ______ ____
ROOT
ATOM      1  C   LIG A   1      -5.218   1.185 127.728  0.00  0.00    +0.027 C 
ATOM      2  C   LIG A   1      -4.417   2.394 127.221  0.00  0.00    +0.007 C 
ATOM      3  C   LIG A   1      -4.170   3.373 128.366  0.00  0.00    +0.008 C 
ATOM      4  C   LIG A   1      -5.010   2.956 129.599  0.00  0.00    -0.021 C 
ATOM      5  C   LIG A   1      -4.018   2.954 130.803  0.00  0.00    +0.012 C 
ATOM      6  C   LIG A   1      -6.308   3.867 129.946  0.00  0.00    +0.003 C 
ATOM      7  C   LIG A   1      -7.091   3.224 131.158  0.00  0.00    +0.004 C 
ATOM      8  C   LIG A   1      -7.049   1.672 131.192  0.00  0.00    +0.005 C 
ATOM      9  C   LIG A   1      -6.736   1.040 129.857  0.00  0.00    +0.005 C 
ATOM     10  C   LIG A   1      -5.411   1.473 129.259  0.00  0.00    +0.002 C 
ATOM     11  C   LIG A   1      -7.154   4.011 128.659  0.00  0.00    +0.014 C 
ATOM     12  C   LIG A   1      -5.992   5.301 130.490  0.00  0.00    +0.122 C 
ATOM     13  C   LIG A   1      -7.265   6.132 130.753  0.00  0.00    +0.040 C 
ATOM     14  C   LIG A   1      -8.439   5.484 131.553  0.00  0.00    +0.023 C 
ATOM     15  C   LIG A   1      -8.502   3.869 131.523  0.00  0.00    -0.022 C 
ATOM     16  C   LIG A   1      -9.583   3.369 130.526  0.00  0.00    +0.012 C 
ENDROOT
BRANCH   1  18
ATOM     17  C   LIG A   1      -7.316  -0.332 127.386  0.00  0.00    +0.044 C 
ATOM     18  C   LIG A   1      -6.405   0.759 126.768  0.00  0.00    +0.096 C 
ATOM     19  O   LIG A   1      -7.219   1.896 126.401  0.00  0.00    -0.365 OA
ATOM     20  C   LIG A   1      -7.902   1.590 125.158  0.00  0.00    +0.152 C 
ATOM     21  C   LIG A   1      -7.103   0.486 124.470  0.00  0.00    +0.068 C 
ATOM     22  C   LIG A   1      -5.906   0.268 125.382  0.00  0.00    +0.149 C 
BRANCH  20  23
ATOM     23  C   LIG A   1      -8.153   2.877 124.332  0.00  0.00    +0.087 C 
ATOM     24  C   LIG A   1      -8.800   2.557 122.982  0.00  0.00    +0.043 C 
ATOM     25  C   LIG A   1      -6.895   3.724 124.129  0.00  0.00    +0.043 C 
BRANCH  23  26
ATOM     26  O   LIG A   1      -9.092   3.690 125.056  0.00  0.00    -0.387 OA
ATOM     27  H   LIG A   1      -9.970   3.298 124.886  0.00  0.00    +0.210 HD
ENDBRANCH  23  26
ENDBRANCH  20  23
BRANCH  22  28
ATOM     28  O   LIG A   1      -5.447  -1.074 125.346  0.00  0.00    -0.389 OA
ATOM     29  H   LIG A   1      -5.639  -1.453 124.471  0.00  0.00    +0.210 HD
ENDBRANCH  22  28
ENDBRANCH   1  18
BRANCH  14  30
ATOM     30  C   LIG A   1      -9.773   6.287 131.346  0.00  0.00    -0.076 C 
ATOM     31  C   LIG A   1      -9.956   7.185 130.134  0.00  0.00    +0.038 C 
ATOM     32  C   LIG A   1     -10.769   6.335 132.254  0.00  0.00    +0.007 C 
ENDBRANCH  14  30
BRANCH  12  33
ATOM     33  O   LIG A   1      -5.169   6.023 129.578  0.00  0.00    -0.391 OA
ATOM     34  H   LIG A   1      -5.439   6.956 129.612  0.00  0.00    +0.210 HD
ENDBRANCH  12  33
BRANCH  15  35
ATOM     35  C   LIG A   1      -8.931   3.312 132.963  0.00  0.00    +0.018 C 
BRANCH  35  36
ATOM     36  C   LIG A   1      -8.623   4.223 134.165  0.00  0.00    +0.121 C 
BRANCH  36  37
ATOM     37  C   LIG A   1      -7.261   3.970 134.772  0.00  0.00    +0.305 C 
ATOM     38  O   LIG A   1      -6.600   4.740 135.410  0.00  0.00    -0.251 OA
BRANCH  37  39
ATOM     39  O   LIG A   1      -6.812   2.727 134.466  0.00  0.00    -0.481 OA
ATOM     40  H   LIG A   1      -7.584   2.145 134.617  0.00  0.00    +0.295 HD
ENDBRANCH  37  39
ENDBRANCH  36  37
ENDBRANCH  35  36
ENDBRANCH  15  35
TORSDOF 10
ENDMDL
MODEL 9
REMARK VINA RESULT:      -7.6      2.844      4.878
REMARK  Name = NuBBE_1196
REMARK  17 active torsions:
REMARK  status: ('A' for Active; 'I' for Inactive)
REMARK    1  A    between atoms: C_1  and  C_2
REMARK    2  A    between atoms: C_2  and  C_13
REMARK    3  A    between atoms: C_4  and  C_5
REMARK    4  A    between atoms: C_5  and  C_6
REMARK    5  A    between atoms: C_5  and  O_7
REMARK    6  A    between atoms: C_5  and  C_8
REMARK    7  A    between atoms: C_11  and  O_12
REMARK    8  A    between atoms: C_17  and  C_18
REMARK    9  A    between atoms: C_19  and  C_24
REMARK   10  A    between atoms: C_25  and  O_27
REMARK   11  A    between atoms: C_29  and  C_37
REMARK   12  A    between atoms: C_30  and  C_31
REMARK   13  A    between atoms: C_30  and  C_32
REMARK   14  A    between atoms: C_32  and  C_33
REMARK   15  A    between atoms: C_33  and  C_34
REMARK   16  A    between atoms: C_34  and  O_35
REMARK   17  A    between atoms: C_37  and  C_38
REMARK                            x       y       z     vdW  Elec       q    Type
REMARK                         _______ _______ _______ _____ _____    ______ ____
ROOT
ATOM      1  C   LIG A   1      -6.363   1.485 131.264  0.00  0.00    +0.027 C 
ATOM      2  C   LIG A   1      -4.865   1.719 131.021  0.00  0.00    +0.007 C 
ATOM      3  C   LIG A   1      -4.653   2.351 129.647  0.00  0.00    +0.008 C 
ATOM      4  C   LIG A   1      -5.982   2.325 128.850  0.00  0.00    -0.021 C 
ATOM      5  C   LIG A   1      -6.176   3.774 128.307  0.00  0.00    +0.012 C 
ATOM      6  C   LIG A   1      -6.088   1.254 127.635  0.00  0.00    +0.003 C 
ATOM      7  C   LIG A   1      -7.543   1.300 127.021  0.00  0.00    +0.004 C 
ATOM      8  C   LIG A   1      -8.662   1.597 128.056  0.00  0.00    +0.005 C 
ATOM      9  C   LIG A   1      -8.273   1.290 129.482  0.00  0.00    +0.005 C 
ATOM     10  C   LIG A   1      -7.051   2.046 129.970  0.00  0.00    +0.002 C 
ATOM     11  C   LIG A   1      -5.682  -0.136 128.180  0.00  0.00    +0.014 C 
ATOM     12  C   LIG A   1      -5.200   1.570 126.386  0.00  0.00    +0.122 C 
ATOM     13  C   LIG A   1      -5.308   0.490 125.289  0.00  0.00    +0.040 C 
ATOM     14  C   LIG A   1      -6.723  -0.002 124.850  0.00  0.00    +0.023 C 
ATOM     15  C   LIG A   1      -7.902   0.183 125.942  0.00  0.00    -0.022 C 
ATOM     16  C   LIG A   1      -8.219  -1.158 126.657  0.00  0.00    +0.012 C 
ENDROOT
BRANCH   1  18
ATOM     17  C   LIG A   1      -8.211  -0.155 132.112  0.00  0.00    +0.044 C 
ATOM     18  C   LIG A   1      -6.694   0.060 131.875  0.00  0.00    +0.096 C 
ATOM     19  O   LIG A   1      -6.197  -1.003 131.031  0.00  0.00    -0.365 OA
ATOM     20  C   LIG A   1      -6.025  -2.193 131.843  0.00  0.00    +0.152 C 
ATOM     21  C   LIG A   1      -5.898  -1.730 133.292  0.00  0.00    +0.068 C 
ATOM     22  C   LIG A   1      -5.937  -0.212 133.203  0.00  0.00    +0.149 C 
BRANCH  20  23
ATOM     23  C   LIG A   1      -4.874  -3.075 131.298  0.00  0.00    +0.087 C 
ATOM     24  C   LIG A   1      -3.683  -2.226 130.847  0.00  0.00    +0.043 C 
ATOM     25  C   LIG A   1      -5.310  -4.016 130.172  0.00  0.00    +0.043 C 
BRANCH  23  26
ATOM     26  O   LIG A   1      -4.404  -3.903 132.376  0.00  0.00    -0.387 OA
ATOM     27  H   LIG A   1      -4.994  -3.716 133.131  0.00  0.00    +0.210 HD
ENDBRANCH  23  26
ENDBRANCH  20  23
BRANCH  22  28
ATOM     28  O   LIG A   1      -6.515   0.374 134.359  0.00  0.00    -0.389 OA
ATOM     29  H   LIG A   1      -7.278   0.917 134.093  0.00  0.00    +0.210 HD
ENDBRANCH  22  28
ENDBRANCH   1  18
BRANCH  14  30
ATOM     30  C   LIG A   1      -6.632  -1.366 124.076  0.00  0.00    -0.076 C 
ATOM     31  C   LIG A   1      -7.659  -1.723 123.015  0.00  0.00    +0.038 C 
ATOM     32  C   LIG A   1      -5.744  -2.338 124.368  0.00  0.00    +0.007 C 
ENDBRANCH  14  30
BRANCH  12  33
ATOM     33  O   LIG A   1      -3.829   1.696 126.752  0.00  0.00    -0.391 OA
ATOM     34  H   LIG A   1      -3.378   0.873 126.499  0.00  0.00    +0.210 HD
ENDBRANCH  12  33
BRANCH  15  35
ATOM     35  C   LIG A   1      -9.256   0.633 125.213  0.00  0.00    +0.018 C 
BRANCH  35  36
ATOM     36  C   LIG A   1      -9.240   2.015 124.536  0.00  0.00    +0.121 C 
BRANCH  36  37
ATOM     37  C   LIG A   1      -9.386   1.944 123.033  0.00  0.00    +0.305 C 
ATOM     38  O   LIG A   1      -8.996   2.746 122.231  0.00  0.00    -0.251 OA
BRANCH  37  39
ATOM     39  O   LIG A   1     -10.084   0.843 122.659  0.00  0.00    -0.481 OA
ATOM     40  H   LIG A   1      -9.818   0.692 121.728  0.00  0.00    +0.295 HD
ENDBRANCH  37  39
ENDBRANCH  36  37
ENDBRANCH  35  36
ENDBRANCH  15  35
TORSDOF 10
ENDMDL
