MODEL 1
REMARK VINA RESULT:      -7.6      0.000      0.000
REMARK  Name = NuBBE_1551
REMARK  16 active torsions:
REMARK  status: ('A' for Active; 'I' for Inactive)
REMARK    1  A    between atoms: C_2  and  C_3
REMARK    2  A    between atoms: C_2  and  O_4
REMARK    3  A    between atoms: O_4  and  C_5
REMARK    4  A    between atoms: C_8  and  O_9
REMARK    5  A    between atoms: C_11  and  C_47
REMARK    6  A    between atoms: C_12  and  C_14
REMARK    7  A    between atoms: C_14  and  O_16
REMARK    8  A    between atoms: C_14  and  C_17
REMARK    9  A    between atoms: C_17  and  O_18
REMARK   10  A    between atoms: O_18  and  C_19
REMARK   11  A    between atoms: C_21  and  C_45
REMARK   12  A    between atoms: C_22  and  O_24
REMARK   13  A    between atoms: C_25  and  O_43
REMARK   14  A    between atoms: C_28  and  C_29
REMARK   15  A    between atoms: C_30  and  C_32
REMARK   16  A    between atoms: O_43  and  C_44
REMARK                            x       y       z     vdW  Elec       q    Type
REMARK                         _______ _______ _______ _____ _____    ______ ____
ROOT
ATOM      1  C   LIG A   1      -3.760   5.967 130.424  0.00  0.00    +0.131 C 
ATOM      2  C   LIG A   1      -4.633   5.051 131.231  0.00  0.00    +0.130 C 
ATOM      3  C   LIG A   1      -5.955   5.521 131.637  0.00  0.00    +0.111 C 
ATOM      4  C   LIG A   1      -5.866   6.995 131.454  0.00  0.00    +0.034 C 
ATOM      5  C   LIG A   1      -4.192   7.224 131.274  0.00  0.00    +0.020 C 
ATOM      6  C   LIG A   1      -3.082   6.910 132.631  0.00  0.00    +0.047 C 
ATOM      7  C   LIG A   1      -2.350   5.449 132.336  0.00  0.00    +0.009 C 
ATOM      8  C   LIG A   1      -3.218   3.994 132.733  0.00  0.00    +0.181 C 
ATOM      9  C   LIG A   1      -4.422   3.639 131.573  0.00  0.00    +0.206 C 
ATOM     10  O   LIG A   1      -5.903   3.370 131.848  0.00  0.00    -0.335 OA
ATOM     11  C   LIG A   1      -6.774   4.427 131.044  0.00  0.00    +0.121 C 
ATOM     12  C   LIG A   1      -8.250   4.857 131.396  0.00  0.00    +0.042 C 
ATOM     13  C   LIG A   1      -8.721   4.835 132.879  0.00  0.00    +0.018 C 
ATOM     14  C   LIG A   1      -9.257   3.922 130.642  0.00  0.00    +0.218 C 
ATOM     15  O   LIG A   1      -9.135   4.081 129.225  0.00  0.00    -0.456 OA
ATOM     16  C   LIG A   1      -7.925   4.234 128.668  0.00  0.00    +0.311 C 
ATOM     17  C   LIG A   1      -6.704   4.031 129.540  0.00  0.00    +0.159 C 
ATOM     18  O   LIG A   1      -7.820   4.476 127.469  0.00  0.00    -0.251 OA
ATOM     19  C   LIG A   1      -8.372   6.431 130.895  0.00  0.00    +0.014 C 
ATOM     20  C   LIG A   1      -7.030   7.233 130.467  0.00  0.00    +0.008 C 
ATOM     21  C   LIG A   1      -0.919   5.378 132.875  0.00  0.00    +0.014 C 
ATOM     22  C   LIG A   1      -2.302   5.622 130.786  0.00  0.00    +0.059 C 
ATOM     23  C   LIG A   1      -3.875   8.589 130.687  0.00  0.00    +0.016 C 
ENDROOT
BRANCH  14  24
ATOM     24  C   LIG A   1      -9.247   2.448 131.026  0.00  0.00    +0.031 A 
ATOM     25  C   LIG A   1      -9.983   1.796 131.995  0.00  0.00    +0.202 A 
ATOM     26  O   LIG A   1      -9.726   0.477 132.057  0.00  0.00    -0.471 OA
ATOM     27  C   LIG A   1      -8.782   0.234 131.130  0.00  0.00    +0.195 A 
ATOM     28  C   LIG A   1      -8.446   1.397 130.471  0.00  0.00    +0.048 A 
ENDBRANCH  14  24
BRANCH   3  29
ATOM     29  O   LIG A   1      -6.115   5.379 133.099  0.00  0.00    -0.385 OA
ATOM     30  H   LIG A   1      -6.036   6.293 133.453  0.00  0.00    +0.210 HD
ENDBRANCH   3  29
BRANCH   8  31
ATOM     31  O   LIG A   1      -2.285   2.946 132.965  0.00  0.00    -0.386 OA
ATOM     32  H   LIG A   1      -1.419   3.354 133.140  0.00  0.00    +0.210 HD
ENDBRANCH   8  31
BRANCH   9  33
ATOM     33  O   LIG A   1      -3.941   2.813 130.537  0.00  0.00    -0.349 OA
ATOM     34  C   LIG A   1      -4.432   1.475 130.620  0.00  0.00    +0.197 C 
ENDBRANCH   9  33
BRANCH   1  35
ATOM     35  O   LIG A   1      -4.068   6.110 129.031  0.00  0.00    -0.457 OA
BRANCH  35  37
ATOM     36  O   LIG A   1      -2.310   6.952 127.826  0.00  0.00    -0.251 OA
ATOM     37  C   LIG A   1      -3.046   6.074 128.109  0.00  0.00    +0.304 C 
ATOM     38  C   LIG A   1      -2.981   4.707 127.451  0.00  0.00    +0.136 C 
ENDBRANCH  35  37
ENDBRANCH   1  35
BRANCH   6  39
ATOM     39  C   LIG A   1      -3.537   7.264 134.070  0.00  0.00    +0.227 C 
BRANCH  39  40
ATOM     40  O   LIG A   1      -2.676   8.375 134.455  0.00  0.00    -0.380 OA
ATOM     41  H   LIG A   1      -1.808   8.203 134.020  0.00  0.00    +0.210 HD
ENDBRANCH  39  40
BRANCH  39  42
ATOM     42  C   LIG A   1      -3.300   6.244 135.220  0.00  0.00    +0.336 C 
ATOM     43  O   LIG A   1      -2.234   6.211 135.838  0.00  0.00    -0.248 OA
BRANCH  42  44
ATOM     44  O   LIG A   1      -4.354   5.437 135.506  0.00  0.00    -0.466 OA
ATOM     45  C   LIG A   1      -5.280   6.042 136.430  0.00  0.00    +0.280 C 
ENDBRANCH  42  44
ENDBRANCH  39  42
ENDBRANCH   6  39
TORSDOF 10
ENDMDL
MODEL 2
REMARK VINA RESULT:      -7.4      3.230      7.884
REMARK  Name = NuBBE_1551
REMARK  16 active torsions:
REMARK  status: ('A' for Active; 'I' for Inactive)
REMARK    1  A    between atoms: C_2  and  C_3
REMARK    2  A    between atoms: C_2  and  O_4
REMARK    3  A    between atoms: O_4  and  C_5
REMARK    4  A    between atoms: C_8  and  O_9
REMARK    5  A    between atoms: C_11  and  C_47
REMARK    6  A    between atoms: C_12  and  C_14
REMARK    7  A    between atoms: C_14  and  O_16
REMARK    8  A    between atoms: C_14  and  C_17
REMARK    9  A    between atoms: C_17  and  O_18
REMARK   10  A    between atoms: O_18  and  C_19
REMARK   11  A    between atoms: C_21  and  C_45
REMARK   12  A    between atoms: C_22  and  O_24
REMARK   13  A    between atoms: C_25  and  O_43
REMARK   14  A    between atoms: C_28  and  C_29
REMARK   15  A    between atoms: C_30  and  C_32
REMARK   16  A    between atoms: O_43  and  C_44
REMARK                            x       y       z     vdW  Elec       q    Type
REMARK                         _______ _______ _______ _____ _____    ______ ____
ROOT
ATOM      1  C   LIG A   1      -6.128  -0.759 129.611  0.00  0.00    +0.131 C 
ATOM      2  C   LIG A   1      -6.536   0.657 129.329  0.00  0.00    +0.130 C 
ATOM      3  C   LIG A   1      -7.840   1.118 129.803  0.00  0.00    +0.111 C 
ATOM      4  C   LIG A   1      -8.567  -0.149 130.088  0.00  0.00    +0.034 C 
ATOM      5  C   LIG A   1      -7.581  -1.299 129.319  0.00  0.00    +0.020 C 
ATOM      6  C   LIG A   1      -7.412  -1.310 127.546  0.00  0.00    +0.047 C 
ATOM      7  C   LIG A   1      -5.939  -0.630 127.190  0.00  0.00    +0.009 C 
ATOM      8  C   LIG A   1      -5.812   1.105 127.173  0.00  0.00    +0.181 C 
ATOM      9  C   LIG A   1      -5.743   1.750 128.754  0.00  0.00    +0.206 C 
ATOM     10  O   LIG A   1      -6.636   2.850 129.332  0.00  0.00    -0.335 OA
ATOM     11  C   LIG A   1      -7.385   2.283 130.612  0.00  0.00    +0.121 C 
ATOM     12  C   LIG A   1      -8.732   2.846 131.211  0.00  0.00    +0.042 C 
ATOM     13  C   LIG A   1      -9.775   3.506 130.263  0.00  0.00    +0.018 C 
ATOM     14  C   LIG A   1      -8.406   3.947 132.277  0.00  0.00    +0.218 C 
ATOM     15  O   LIG A   1      -7.693   3.388 133.384  0.00  0.00    -0.456 OA
ATOM     16  C   LIG A   1      -6.751   2.456 133.175  0.00  0.00    +0.311 C 
ATOM     17  C   LIG A   1      -6.330   2.170 131.750  0.00  0.00    +0.159 C 
ATOM     18  O   LIG A   1      -6.211   1.896 134.125  0.00  0.00    -0.251 OA
ATOM     19  C   LIG A   1      -9.484   1.534 131.886  0.00  0.00    +0.014 C 
ATOM     20  C   LIG A   1      -8.915   0.048 131.579  0.00  0.00    +0.008 C 
ATOM     21  C   LIG A   1      -5.295  -1.222 125.934  0.00  0.00    +0.014 C 
ATOM     22  C   LIG A   1      -5.212  -1.195 128.449  0.00  0.00    +0.059 C 
ATOM     23  C   LIG A   1      -7.895  -2.709 129.791  0.00  0.00    +0.016 C 
ENDROOT
BRANCH  14  24
ATOM     24  C   LIG A   1      -7.721   5.211 131.773  0.00  0.00    +0.031 A 
ATOM     25  C   LIG A   1      -8.243   6.244 131.021  0.00  0.00    +0.202 A 
ATOM     26  O   LIG A   1      -7.349   7.215 130.760  0.00  0.00    -0.471 OA
ATOM     27  C   LIG A   1      -6.193   6.822 131.325  0.00  0.00    +0.195 A 
ATOM     28  C   LIG A   1      -6.354   5.606 131.955  0.00  0.00    +0.048 A 
ENDBRANCH  14  24
BRANCH   3  29
ATOM     29  O   LIG A   1      -8.609   1.696 128.682  0.00  0.00    -0.385 OA
ATOM     30  H   LIG A   1      -7.932   1.964 128.021  0.00  0.00    +0.210 HD
ENDBRANCH   3  29
BRANCH   8  31
ATOM     31  O   LIG A   1      -4.735   1.483 126.326  0.00  0.00    -0.386 OA
ATOM     32  H   LIG A   1      -4.467   2.386 126.572  0.00  0.00    +0.210 HD
ENDBRANCH   8  31
BRANCH   9  33
ATOM     33  O   LIG A   1      -4.420   1.873 129.225  0.00  0.00    -0.349 OA
ATOM     34  C   LIG A   1      -3.972   3.229 129.277  0.00  0.00    +0.197 C 
ENDBRANCH   9  33
BRANCH   1  35
ATOM     35  O   LIG A   1      -5.682  -1.063 130.939  0.00  0.00    -0.457 OA
BRANCH  35  37
ATOM     36  O   LIG A   1      -3.397  -1.053 131.123  0.00  0.00    -0.251 OA
ATOM     37  C   LIG A   1      -4.435  -1.617 131.121  0.00  0.00    +0.304 C 
ATOM     38  C   LIG A   1      -4.551  -3.119 131.312  0.00  0.00    +0.136 C 
ENDBRANCH  35  37
ENDBRANCH   1  35
BRANCH   6  39
ATOM     39  C   LIG A   1      -8.646  -0.969 126.672  0.00  0.00    +0.227 C 
BRANCH  39  40
ATOM     40  O   LIG A   1      -8.904  -2.192 125.923  0.00  0.00    -0.380 OA
ATOM     41  H   LIG A   1      -8.135  -2.299 125.316  0.00  0.00    +0.210 HD
ENDBRANCH  39  40
BRANCH  39  42
ATOM     42  C   LIG A   1      -8.515   0.094 125.544  0.00  0.00    +0.336 C 
ATOM     43  O   LIG A   1      -8.094  -0.208 124.426  0.00  0.00    -0.248 OA
BRANCH  42  44
ATOM     44  O   LIG A   1      -8.929   1.345 125.874  0.00  0.00    -0.466 OA
ATOM     45  C   LIG A   1      -9.012   2.220 124.732  0.00  0.00    +0.280 C 
ENDBRANCH  42  44
ENDBRANCH  39  42
ENDBRANCH   6  39
TORSDOF 10
ENDMDL
MODEL 3
REMARK VINA RESULT:      -7.3      3.417      7.590
REMARK  Name = NuBBE_1551
REMARK  16 active torsions:
REMARK  status: ('A' for Active; 'I' for Inactive)
REMARK    1  A    between atoms: C_2  and  C_3
REMARK    2  A    between atoms: C_2  and  O_4
REMARK    3  A    between atoms: O_4  and  C_5
REMARK    4  A    between atoms: C_8  and  O_9
REMARK    5  A    between atoms: C_11  and  C_47
REMARK    6  A    between atoms: C_12  and  C_14
REMARK    7  A    between atoms: C_14  and  O_16
REMARK    8  A    between atoms: C_14  and  C_17
REMARK    9  A    between atoms: C_17  and  O_18
REMARK   10  A    between atoms: O_18  and  C_19
REMARK   11  A    between atoms: C_21  and  C_45
REMARK   12  A    between atoms: C_22  and  O_24
REMARK   13  A    between atoms: C_25  and  O_43
REMARK   14  A    between atoms: C_28  and  C_29
REMARK   15  A    between atoms: C_30  and  C_32
REMARK   16  A    between atoms: O_43  and  C_44
REMARK                            x       y       z     vdW  Elec       q    Type
REMARK                         _______ _______ _______ _____ _____    ______ ____
ROOT
ATOM      1  C   LIG A   1      -5.488   1.727 127.588  0.00  0.00    +0.131 C 
ATOM      2  C   LIG A   1      -6.884   2.239 127.786  0.00  0.00    +0.130 C 
ATOM      3  C   LIG A   1      -7.508   2.081 129.098  0.00  0.00    +0.111 C 
ATOM      4  C   LIG A   1      -6.666   1.045 129.755  0.00  0.00    +0.034 C 
ATOM      5  C   LIG A   1      -5.777   0.434 128.443  0.00  0.00    +0.020 C 
ATOM      6  C   LIG A   1      -6.588  -0.464 127.136  0.00  0.00    +0.047 C 
ATOM      7  C   LIG A   1      -6.724   0.569 125.843  0.00  0.00    +0.009 C 
ATOM      8  C   LIG A   1      -8.028   1.721 125.838  0.00  0.00    +0.181 C 
ATOM      9  C   LIG A   1      -7.712   3.040 126.877  0.00  0.00    +0.206 C 
ATOM     10  O   LIG A   1      -8.621   3.566 127.989  0.00  0.00    -0.335 OA
ATOM     11  C   LIG A   1      -7.832   3.510 129.366  0.00  0.00    +0.121 C 
ATOM     12  C   LIG A   1      -8.490   3.462 130.799  0.00  0.00    +0.042 C 
ATOM     13  C   LIG A   1      -9.878   2.783 130.982  0.00  0.00    +0.018 C 
ATOM     14  C   LIG A   1      -8.685   4.923 131.330  0.00  0.00    +0.218 C 
ATOM     15  O   LIG A   1      -7.423   5.574 131.505  0.00  0.00    -0.456 OA
ATOM     16  C   LIG A   1      -6.441   5.385 130.611  0.00  0.00    +0.311 C 
ATOM     17  C   LIG A   1      -6.768   4.645 129.332  0.00  0.00    +0.159 C 
ATOM     18  O   LIG A   1      -5.323   5.854 130.810  0.00  0.00    -0.251 OA
ATOM     19  C   LIG A   1      -7.427   2.601 131.732  0.00  0.00    +0.014 C 
ATOM     20  C   LIG A   1      -6.208   1.807 131.019  0.00  0.00    +0.008 C 
ATOM     21  C   LIG A   1      -6.642  -0.148 124.493  0.00  0.00    +0.014 C 
ATOM     22  C   LIG A   1      -5.375   1.308 126.108  0.00  0.00    +0.059 C 
ATOM     23  C   LIG A   1      -4.569  -0.363 128.909  0.00  0.00    +0.016 C 
ENDROOT
BRANCH  14  24
ATOM     24  C   LIG A   1      -9.652   5.812 130.558  0.00  0.00    +0.031 A 
ATOM     25  C   LIG A   1     -10.907   5.514 130.068  0.00  0.00    +0.202 A 
ATOM     26  O   LIG A   1     -11.490   6.549 129.437  0.00  0.00    -0.471 OA
ATOM     27  C   LIG A   1     -10.604   7.561 129.479  0.00  0.00    +0.195 A 
ATOM     28  C   LIG A   1      -9.462   7.173 130.146  0.00  0.00    +0.048 A 
ENDBRANCH  14  24
BRANCH   3  29
ATOM     29  O   LIG A   1      -8.814   1.404 128.957  0.00  0.00    -0.385 OA
ATOM     30  H   LIG A   1      -8.768   0.635 129.569  0.00  0.00    +0.210 HD
ENDBRANCH   3  29
BRANCH   8  31
ATOM     31  O   LIG A   1      -8.328   2.076 124.494  0.00  0.00    -0.386 OA
ATOM     32  H   LIG A   1      -8.734   2.960 124.505  0.00  0.00    +0.210 HD
ENDBRANCH   8  31
BRANCH   9  33
ATOM     33  O   LIG A   1      -7.060   4.100 126.212  0.00  0.00    -0.349 OA
ATOM     34  C   LIG A   1      -7.952   5.148 125.830  0.00  0.00    +0.197 C 
ENDBRANCH   9  33
BRANCH   1  35
ATOM     35  O   LIG A   1      -4.416   2.515 128.123  0.00  0.00    -0.457 OA
BRANCH  35  37
ATOM     36  O   LIG A   1      -4.184   4.397 126.835  0.00  0.00    -0.251 OA
ATOM     37  C   LIG A   1      -3.756   3.401 127.302  0.00  0.00    +0.304 C 
ATOM     38  C   LIG A   1      -2.341   2.916 127.037  0.00  0.00    +0.136 C 
ENDBRANCH  35  37
ENDBRANCH   1  35
BRANCH   6  39
ATOM     39  C   LIG A   1      -7.766  -1.406 127.492  0.00  0.00    +0.227 C 
BRANCH  39  40
ATOM     40  O   LIG A   1      -7.130  -2.545 128.144  0.00  0.00    -0.380 OA
ATOM     41  H   LIG A   1      -6.253  -2.219 128.453  0.00  0.00    +0.210 HD
ENDBRANCH  39  40
BRANCH  39  42
ATOM     42  C   LIG A   1      -8.576  -2.084 126.350  0.00  0.00    +0.336 C 
ATOM     43  O   LIG A   1      -9.569  -1.543 125.861  0.00  0.00    -0.248 OA
BRANCH  42  44
ATOM     44  O   LIG A   1      -8.086  -3.275 125.919  0.00  0.00    -0.466 OA
ATOM     45  C   LIG A   1      -8.535  -3.612 124.592  0.00  0.00    +0.280 C 
ENDBRANCH  42  44
ENDBRANCH  39  42
ENDBRANCH   6  39
TORSDOF 10
ENDMDL
MODEL 4
REMARK VINA RESULT:      -7.3      2.262      5.037
REMARK  Name = NuBBE_1551
REMARK  16 active torsions:
REMARK  status: ('A' for Active; 'I' for Inactive)
REMARK    1  A    between atoms: C_2  and  C_3
REMARK    2  A    between atoms: C_2  and  O_4
REMARK    3  A    between atoms: O_4  and  C_5
REMARK    4  A    between atoms: C_8  and  O_9
REMARK    5  A    between atoms: C_11  and  C_47
REMARK    6  A    between atoms: C_12  and  C_14
REMARK    7  A    between atoms: C_14  and  O_16
REMARK    8  A    between atoms: C_14  and  C_17
REMARK    9  A    between atoms: C_17  and  O_18
REMARK   10  A    between atoms: O_18  and  C_19
REMARK   11  A    between atoms: C_21  and  C_45
REMARK   12  A    between atoms: C_22  and  O_24
REMARK   13  A    between atoms: C_25  and  O_43
REMARK   14  A    between atoms: C_28  and  C_29
REMARK   15  A    between atoms: C_30  and  C_32
REMARK   16  A    between atoms: O_43  and  C_44
REMARK                            x       y       z     vdW  Elec       q    Type
REMARK                         _______ _______ _______ _____ _____    ______ ____
ROOT
ATOM      1  C   LIG A   1      -7.401   4.991 131.904  0.00  0.00    +0.131 C 
ATOM      2  C   LIG A   1      -6.582   3.949 131.201  0.00  0.00    +0.130 C 
ATOM      3  C   LIG A   1      -6.037   2.841 131.983  0.00  0.00    +0.111 C 
ATOM      4  C   LIG A   1      -6.135   3.331 133.385  0.00  0.00    +0.034 C 
ATOM      5  C   LIG A   1      -6.441   4.986 133.155  0.00  0.00    +0.020 C 
ATOM      6  C   LIG A   1      -5.205   6.047 132.434  0.00  0.00    +0.047 C 
ATOM      7  C   LIG A   1      -5.652   6.316 130.857  0.00  0.00    +0.009 C 
ATOM      8  C   LIG A   1      -5.275   5.100 129.671  0.00  0.00    +0.181 C 
ATOM      9  C   LIG A   1      -6.348   3.773 129.762  0.00  0.00    +0.206 C 
ATOM     10  O   LIG A   1      -5.967   2.297 129.892  0.00  0.00    -0.335 OA
ATOM     11  C   LIG A   1      -6.627   1.711 131.212  0.00  0.00    +0.121 C 
ATOM     12  C   LIG A   1      -6.124   0.442 132.003  0.00  0.00    +0.042 C 
ATOM     13  C   LIG A   1      -4.611   0.079 131.988  0.00  0.00    +0.018 C 
ATOM     14  C   LIG A   1      -6.848  -0.834 131.451  0.00  0.00    +0.218 C 
ATOM     15  O   LIG A   1      -8.257  -0.763 131.688  0.00  0.00    -0.456 OA
ATOM     16  C   LIG A   1      -8.904   0.403 131.545  0.00  0.00    +0.311 C 
ATOM     17  C   LIG A   1      -8.152   1.570 130.940  0.00  0.00    +0.159 C 
ATOM     18  O   LIG A   1     -10.090   0.496 131.849  0.00  0.00    -0.251 OA
ATOM     19  C   LIG A   1      -6.514   0.738 133.585  0.00  0.00    +0.014 C 
ATOM     20  C   LIG A   1      -7.003   2.221 134.017  0.00  0.00    +0.008 C 
ATOM     21  C   LIG A   1      -5.242   7.700 130.347  0.00  0.00    +0.014 C 
ATOM     22  C   LIG A   1      -7.186   6.313 131.140  0.00  0.00    +0.059 C 
ATOM     23  C   LIG A   1      -6.966   5.638 134.424  0.00  0.00    +0.016 C 
ENDROOT
BRANCH  14  24
ATOM     24  C   LIG A   1      -6.559  -1.217 130.005  0.00  0.00    +0.031 A 
ATOM     25  C   LIG A   1      -5.370  -1.148 129.307  0.00  0.00    +0.202 A 
ATOM     26  O   LIG A   1      -5.475  -1.581 128.037  0.00  0.00    -0.471 OA
ATOM     27  C   LIG A   1      -6.764  -1.926 127.864  0.00  0.00    +0.195 A 
ATOM     28  C   LIG A   1      -7.476  -1.724 129.026  0.00  0.00    +0.048 A 
ENDBRANCH  14  24
BRANCH   3  29
ATOM     29  O   LIG A   1      -4.579   2.741 131.769  0.00  0.00    -0.385 OA
ATOM     30  H   LIG A   1      -4.458   2.834 130.798  0.00  0.00    +0.210 HD
ENDBRANCH   3  29
BRANCH   8  31
ATOM     31  O   LIG A   1      -5.189   5.712 128.391  0.00  0.00    -0.386 OA
ATOM     32  H   LIG A   1      -4.478   5.266 127.897  0.00  0.00    +0.210 HD
ENDBRANCH   8  31
BRANCH   9  33
ATOM     33  O   LIG A   1      -7.472   3.934 128.925  0.00  0.00    -0.349 OA
ATOM     34  C   LIG A   1      -7.436   3.084 127.779  0.00  0.00    +0.197 C 
ENDBRANCH   9  33
BRANCH   1  35
ATOM     35  O   LIG A   1      -8.752   4.648 132.243  0.00  0.00    -0.457 OA
BRANCH  35  37
ATOM     36  O   LIG A   1     -10.111   6.463 132.577  0.00  0.00    -0.251 OA
ATOM     37  C   LIG A   1      -9.765   5.530 131.942  0.00  0.00    +0.304 C 
ATOM     38  C   LIG A   1     -10.435   5.134 130.638  0.00  0.00    +0.136 C 
ENDBRANCH  35  37
ENDBRANCH   1  35
BRANCH   6  39
ATOM     39  C   LIG A   1      -3.714   5.803 132.778  0.00  0.00    +0.227 C 
BRANCH  39  40
ATOM     40  O   LIG A   1      -3.251   7.085 133.293  0.00  0.00    -0.380 OA
ATOM     41  H   LIG A   1      -2.503   7.353 132.709  0.00  0.00    +0.210 HD
ENDBRANCH  39  40
BRANCH  39  42
ATOM     42  C   LIG A   1      -2.701   5.518 131.632  0.00  0.00    +0.336 C 
ATOM     43  O   LIG A   1      -2.477   4.369 131.247  0.00  0.00    -0.248 OA
BRANCH  42  44
ATOM     44  O   LIG A   1      -2.127   6.617 131.077  0.00  0.00    -0.466 OA
ATOM     45  C   LIG A   1      -1.887   6.463 129.665  0.00  0.00    +0.280 C 
ENDBRANCH  42  44
ENDBRANCH  39  42
ENDBRANCH   6  39
TORSDOF 10
ENDMDL
MODEL 5
REMARK VINA RESULT:      -7.2      1.941      5.067
REMARK  Name = NuBBE_1551
REMARK  16 active torsions:
REMARK  status: ('A' for Active; 'I' for Inactive)
REMARK    1  A    between atoms: C_2  and  C_3
REMARK    2  A    between atoms: C_2  and  O_4
REMARK    3  A    between atoms: O_4  and  C_5
REMARK    4  A    between atoms: C_8  and  O_9
REMARK    5  A    between atoms: C_11  and  C_47
REMARK    6  A    between atoms: C_12  and  C_14
REMARK    7  A    between atoms: C_14  and  O_16
REMARK    8  A    between atoms: C_14  and  C_17
REMARK    9  A    between atoms: C_17  and  O_18
REMARK   10  A    between atoms: O_18  and  C_19
REMARK   11  A    between atoms: C_21  and  C_45
REMARK   12  A    between atoms: C_22  and  O_24
REMARK   13  A    between atoms: C_25  and  O_43
REMARK   14  A    between atoms: C_28  and  C_29
REMARK   15  A    between atoms: C_30  and  C_32
REMARK   16  A    between atoms: O_43  and  C_44
REMARK                            x       y       z     vdW  Elec       q    Type
REMARK                         _______ _______ _______ _____ _____    ______ ____
ROOT
ATOM      1  C   LIG A   1      -4.760   2.824 131.343  0.00  0.00    +0.131 C 
ATOM      2  C   LIG A   1      -5.699   3.973 131.122  0.00  0.00    +0.130 C 
ATOM      3  C   LIG A   1      -6.622   3.915 129.991  0.00  0.00    +0.111 C 
ATOM      4  C   LIG A   1      -6.037   2.855 129.126  0.00  0.00    +0.034 C 
ATOM      5  C   LIG A   1      -4.487   2.672 129.797  0.00  0.00    +0.020 C 
ATOM      6  C   LIG A   1      -3.293   3.989 129.698  0.00  0.00    +0.047 C 
ATOM      7  C   LIG A   1      -3.243   4.719 131.188  0.00  0.00    +0.009 C 
ATOM      8  C   LIG A   1      -4.473   5.886 131.579  0.00  0.00    +0.181 C 
ATOM      9  C   LIG A   1      -5.955   5.136 131.981  0.00  0.00    +0.206 C 
ATOM     10  O   LIG A   1      -7.324   5.429 131.365  0.00  0.00    -0.335 OA
ATOM     11  C   LIG A   1      -7.900   4.091 130.735  0.00  0.00    +0.121 C 
ATOM     12  C   LIG A   1      -8.988   4.007 129.596  0.00  0.00    +0.042 C 
ATOM     13  C   LIG A   1      -9.080   5.145 128.538  0.00  0.00    +0.018 C 
ATOM     14  C   LIG A   1     -10.414   3.946 130.243  0.00  0.00    +0.218 C 
ATOM     15  O   LIG A   1     -10.571   2.753 131.016  0.00  0.00    -0.456 OA
ATOM     16  C   LIG A   1      -9.553   2.296 131.761  0.00  0.00    +0.311 C 
ATOM     17  C   LIG A   1      -8.329   3.174 131.917  0.00  0.00    +0.159 C 
ATOM     18  O   LIG A   1      -9.644   1.218 132.342  0.00  0.00    -0.251 OA
ATOM     19  C   LIG A   1      -8.630   2.625 128.757  0.00  0.00    +0.014 C 
ATOM     20  C   LIG A   1      -7.223   1.869 129.038  0.00  0.00    +0.008 C 
ATOM     21  C   LIG A   1      -1.859   5.267 131.540  0.00  0.00    +0.014 C 
ATOM     22  C   LIG A   1      -3.492   3.408 131.998  0.00  0.00    +0.059 C 
ATOM     23  C   LIG A   1      -3.831   1.379 129.342  0.00  0.00    +0.016 C 
ENDROOT
BRANCH  14  24
ATOM     24  C   LIG A   1     -10.864   5.168 131.033  0.00  0.00    +0.031 A 
ATOM     25  C   LIG A   1     -10.390   5.650 132.236  0.00  0.00    +0.202 A 
ATOM     26  O   LIG A   1     -11.017   6.768 132.644  0.00  0.00    -0.471 OA
ATOM     27  C   LIG A   1     -11.950   7.036 131.712  0.00  0.00    +0.195 A 
ATOM     28  C   LIG A   1     -11.909   6.094 130.706  0.00  0.00    +0.048 A 
ENDBRANCH  14  24
BRANCH   3  29
ATOM     29  O   LIG A   1      -6.482   5.131 129.162  0.00  0.00    -0.385 OA
ATOM     30  H   LIG A   1      -7.383   5.523 129.134  0.00  0.00    +0.210 HD
ENDBRANCH   3  29
BRANCH   8  31
ATOM     31  O   LIG A   1      -3.969   6.779 132.564  0.00  0.00    -0.386 OA
ATOM     32  H   LIG A   1      -4.476   6.634 133.382  0.00  0.00    +0.210 HD
ENDBRANCH   8  31
BRANCH   9  33
ATOM     33  O   LIG A   1      -6.066   4.876 133.362  0.00  0.00    -0.349 OA
ATOM     34  C   LIG A   1      -7.052   5.687 134.002  0.00  0.00    +0.197 C 
ENDBRANCH   9  33
BRANCH   1  35
ATOM     35  O   LIG A   1      -5.303   1.633 131.928  0.00  0.00    -0.457 OA
BRANCH  35  37
ATOM     36  O   LIG A   1      -5.370   1.760 134.216  0.00  0.00    -0.251 OA
ATOM     37  C   LIG A   1      -4.952   1.294 133.215  0.00  0.00    +0.304 C 
ATOM     38  C   LIG A   1      -3.895   0.204 133.200  0.00  0.00    +0.136 C 
ENDBRANCH  35  37
ENDBRANCH   1  35
BRANCH   6  39
ATOM     39  C   LIG A   1      -3.240   4.858 128.416  0.00  0.00    +0.227 C 
BRANCH  39  40
ATOM     40  O   LIG A   1      -2.048   4.396 127.717  0.00  0.00    -0.380 OA
ATOM     41  H   LIG A   1      -1.382   4.210 128.420  0.00  0.00    +0.210 HD
ENDBRANCH  39  40
BRANCH  39  42
ATOM     42  C   LIG A   1      -2.984   6.388 128.538  0.00  0.00    +0.336 C 
ATOM     43  O   LIG A   1      -1.841   6.849 128.525  0.00  0.00    -0.248 OA
BRANCH  42  44
ATOM     44  O   LIG A   1      -4.099   7.159 128.619  0.00  0.00    -0.466 OA
ATOM     45  C   LIG A   1      -3.859   8.411 129.291  0.00  0.00    +0.280 C 
ENDBRANCH  42  44
ENDBRANCH  39  42
ENDBRANCH   6  39
TORSDOF 10
ENDMDL
MODEL 6
REMARK VINA RESULT:      -7.1      3.170      6.128
REMARK  Name = NuBBE_1551
REMARK  16 active torsions:
REMARK  status: ('A' for Active; 'I' for Inactive)
REMARK    1  A    between atoms: C_2  and  C_3
REMARK    2  A    between atoms: C_2  and  O_4
REMARK    3  A    between atoms: O_4  and  C_5
REMARK    4  A    between atoms: C_8  and  O_9
REMARK    5  A    between atoms: C_11  and  C_47
REMARK    6  A    between atoms: C_12  and  C_14
REMARK    7  A    between atoms: C_14  and  O_16
REMARK    8  A    between atoms: C_14  and  C_17
REMARK    9  A    between atoms: C_17  and  O_18
REMARK   10  A    between atoms: O_18  and  C_19
REMARK   11  A    between atoms: C_21  and  C_45
REMARK   12  A    between atoms: C_22  and  O_24
REMARK   13  A    between atoms: C_25  and  O_43
REMARK   14  A    between atoms: C_28  and  C_29
REMARK   15  A    between atoms: C_30  and  C_32
REMARK   16  A    between atoms: O_43  and  C_44
REMARK                            x       y       z     vdW  Elec       q    Type
REMARK                         _______ _______ _______ _____ _____    ______ ____
ROOT
ATOM      1  C   LIG A   1      -5.238   2.817 128.621  0.00  0.00    +0.131 C 
ATOM      2  C   LIG A   1      -6.732   2.935 128.561  0.00  0.00    +0.130 C 
ATOM      3  C   LIG A   1      -7.495   2.808 129.801  0.00  0.00    +0.111 C 
ATOM      4  C   LIG A   1      -6.528   2.168 130.734  0.00  0.00    +0.034 C 
ATOM      5  C   LIG A   1      -5.313   1.641 129.669  0.00  0.00    +0.020 C 
ATOM      6  C   LIG A   1      -5.643   0.361 128.476  0.00  0.00    +0.047 C 
ATOM      7  C   LIG A   1      -5.835   1.103 127.002  0.00  0.00    +0.009 C 
ATOM      8  C   LIG A   1      -7.376   1.821 126.633  0.00  0.00    +0.181 C 
ATOM      9  C   LIG A   1      -7.584   3.319 127.429  0.00  0.00    +0.206 C 
ATOM     10  O   LIG A   1      -8.765   3.727 128.313  0.00  0.00    -0.335 OA
ATOM     11  C   LIG A   1      -8.218   4.109 129.754  0.00  0.00    +0.121 C 
ATOM     12  C   LIG A   1      -9.060   4.095 131.088  0.00  0.00    +0.042 C 
ATOM     13  C   LIG A   1     -10.235   3.086 131.242  0.00  0.00    +0.018 C 
ATOM     14  C   LIG A   1      -9.711   5.504 131.305  0.00  0.00    +0.218 C 
ATOM     15  O   LIG A   1      -8.707   6.506 131.492  0.00  0.00    -0.456 OA
ATOM     16  C   LIG A   1      -7.580   6.470 130.766  0.00  0.00    +0.311 C 
ATOM     17  C   LIG A   1      -7.495   5.480 129.623  0.00  0.00    +0.159 C 
ATOM     18  O   LIG A   1      -6.669   7.262 130.994  0.00  0.00    -0.251 OA
ATOM     19  C   LIG A   1      -7.973   3.725 132.281  0.00  0.00    +0.014 C 
ATOM     20  C   LIG A   1      -6.491   3.211 131.872  0.00  0.00    +0.008 C 
ATOM     21  C   LIG A   1      -5.356   0.241 125.832  0.00  0.00    +0.014 C 
ATOM     22  C   LIG A   1      -4.786   2.227 127.270  0.00  0.00    +0.059 C 
ATOM     23  C   LIG A   1      -4.030   1.301 130.410  0.00  0.00    +0.016 C 
ENDROOT
BRANCH  14  24
ATOM     24  C   LIG A   1     -10.741   5.953 130.276  0.00  0.00    +0.031 A 
ATOM     25  C   LIG A   1     -11.936   5.360 129.925  0.00  0.00    +0.202 A 
ATOM     26  O   LIG A   1     -12.605   6.039 128.974  0.00  0.00    -0.471 OA
ATOM     27  C   LIG A   1     -11.838   7.098 128.659  0.00  0.00    +0.195 A 
ATOM     28  C   LIG A   1     -10.686   7.099 129.415  0.00  0.00    +0.048 A 
ENDBRANCH  14  24
BRANCH   3  29
ATOM     29  O   LIG A   1      -8.540   1.774 129.648  0.00  0.00    -0.385 OA
ATOM     30  H   LIG A   1      -8.644   1.661 128.677  0.00  0.00    +0.210 HD
ENDBRANCH   3  29
BRANCH   8  31
ATOM     31  O   LIG A   1      -7.540   1.867 125.221  0.00  0.00    -0.386 OA
ATOM     32  H   LIG A   1      -6.854   1.301 124.825  0.00  0.00    +0.210 HD
ENDBRANCH   8  31
BRANCH   9  33
ATOM     33  O   LIG A   1      -7.134   4.406 126.652  0.00  0.00    -0.349 OA
ATOM     34  C   LIG A   1      -8.197   5.096 125.994  0.00  0.00    +0.197 C 
ENDBRANCH   9  33
BRANCH   1  35
ATOM     35  O   LIG A   1      -4.508   3.949 129.112  0.00  0.00    -0.457 OA
BRANCH  35  37
ATOM     36  O   LIG A   1      -4.554   5.726 127.665  0.00  0.00    -0.251 OA
ATOM     37  C   LIG A   1      -3.982   4.852 128.215  0.00  0.00    +0.304 C 
ATOM     38  C   LIG A   1      -2.507   4.570 127.991  0.00  0.00    +0.136 C 
ENDBRANCH  35  37
ENDBRANCH   1  35
BRANCH   6  39
ATOM     39  C   LIG A   1      -6.576  -0.811 128.872  0.00  0.00    +0.227 C 
BRANCH  39  40
ATOM     40  O   LIG A   1      -7.886  -0.413 128.371  0.00  0.00    -0.380 OA
ATOM     41  H   LIG A   1      -8.323  -1.246 128.078  0.00  0.00    +0.210 HD
ENDBRANCH  39  40
BRANCH  39  42
ATOM     42  C   LIG A   1      -6.862  -1.086 130.376  0.00  0.00    +0.336 C 
ATOM     43  O   LIG A   1      -5.969  -1.454 131.142  0.00  0.00    -0.248 OA
BRANCH  42  44
ATOM     44  O   LIG A   1      -8.140  -0.856 130.776  0.00  0.00    -0.466 OA
ATOM     45  C   LIG A   1      -8.253  -0.689 132.202  0.00  0.00    +0.280 C 
ENDBRANCH  42  44
ENDBRANCH  39  42
ENDBRANCH   6  39
TORSDOF 10
ENDMDL
MODEL 7
REMARK VINA RESULT:      -7.1      2.867      6.128
REMARK  Name = NuBBE_1551
REMARK  16 active torsions:
REMARK  status: ('A' for Active; 'I' for Inactive)
REMARK    1  A    between atoms: C_2  and  C_3
REMARK    2  A    between atoms: C_2  and  O_4
REMARK    3  A    between atoms: O_4  and  C_5
REMARK    4  A    between atoms: C_8  and  O_9
REMARK    5  A    between atoms: C_11  and  C_47
REMARK    6  A    between atoms: C_12  and  C_14
REMARK    7  A    between atoms: C_14  and  O_16
REMARK    8  A    between atoms: C_14  and  C_17
REMARK    9  A    between atoms: C_17  and  O_18
REMARK   10  A    between atoms: O_18  and  C_19
REMARK   11  A    between atoms: C_21  and  C_45
REMARK   12  A    between atoms: C_22  and  O_24
REMARK   13  A    between atoms: C_25  and  O_43
REMARK   14  A    between atoms: C_28  and  C_29
REMARK   15  A    between atoms: C_30  and  C_32
REMARK   16  A    between atoms: O_43  and  C_44
REMARK                            x       y       z     vdW  Elec       q    Type
REMARK                         _______ _______ _______ _____ _____    ______ ____
ROOT
ATOM      1  C   LIG A   1      -5.907   3.006 132.095  0.00  0.00    +0.131 C 
ATOM      2  C   LIG A   1      -6.842   2.258 131.192  0.00  0.00    +0.130 C 
ATOM      3  C   LIG A   1      -6.529   2.184 129.766  0.00  0.00    +0.111 C 
ATOM      4  C   LIG A   1      -5.534   3.274 129.578  0.00  0.00    +0.034 C 
ATOM      5  C   LIG A   1      -5.692   4.146 131.027  0.00  0.00    +0.020 C 
ATOM      6  C   LIG A   1      -7.197   5.024 131.399  0.00  0.00    +0.047 C 
ATOM      7  C   LIG A   1      -8.033   4.113 132.507  0.00  0.00    +0.009 C 
ATOM      8  C   LIG A   1      -8.978   2.770 131.931  0.00  0.00    +0.181 C 
ATOM      9  C   LIG A   1      -7.998   1.425 131.545  0.00  0.00    +0.206 C 
ATOM     10  O   LIG A   1      -7.985   0.653 130.224  0.00  0.00    -0.335 OA
ATOM     11  C   LIG A   1      -6.520   0.702 129.615  0.00  0.00    +0.121 C 
ATOM     12  C   LIG A   1      -6.150   0.503 128.095  0.00  0.00    +0.042 C 
ATOM     13  C   LIG A   1      -7.170   0.926 126.997  0.00  0.00    +0.018 C 
ATOM     14  C   LIG A   1      -5.875  -1.015 127.822  0.00  0.00    +0.218 C 
ATOM     15  O   LIG A   1      -4.734  -1.466 128.559  0.00  0.00    -0.456 OA
ATOM     16  C   LIG A   1      -4.532  -1.034 129.812  0.00  0.00    +0.311 C 
ATOM     17  C   LIG A   1      -5.630  -0.236 130.482  0.00  0.00    +0.159 C 
ATOM     18  O   LIG A   1      -3.502  -1.332 130.413  0.00  0.00    -0.251 OA
ATOM     19  C   LIG A   1      -4.800   1.430 127.854  0.00  0.00    +0.014 C 
ATOM     20  C   LIG A   1      -4.342   2.478 129.003  0.00  0.00    +0.008 C 
ATOM     21  C   LIG A   1      -8.854   4.961 133.482  0.00  0.00    +0.014 C 
ATOM     22  C   LIG A   1      -6.764   3.580 133.242  0.00  0.00    +0.059 C 
ATOM     23  C   LIG A   1      -4.513   5.080 131.248  0.00  0.00    +0.016 C 
ENDROOT
BRANCH  14  24
ATOM     24  C   LIG A   1      -7.048  -1.970 127.999  0.00  0.00    +0.031 A 
ATOM     25  C   LIG A   1      -7.986  -2.378 127.073  0.00  0.00    +0.202 A 
ATOM     26  O   LIG A   1      -8.886  -3.244 127.575  0.00  0.00    -0.471 OA
ATOM     27  C   LIG A   1      -8.566  -3.407 128.872  0.00  0.00    +0.195 A 
ATOM     28  C   LIG A   1      -7.456  -2.654 129.192  0.00  0.00    +0.048 A 
ENDBRANCH  14  24
BRANCH   3  29
ATOM     29  O   LIG A   1      -7.684   2.650 128.971  0.00  0.00    -0.385 OA
ATOM     30  H   LIG A   1      -8.457   2.568 129.574  0.00  0.00    +0.210 HD
ENDBRANCH   3  29
BRANCH   8  31
ATOM     31  O   LIG A   1     -10.020   2.504 132.861  0.00  0.00    -0.386 OA
ATOM     32  H   LIG A   1     -10.773   2.137 132.365  0.00  0.00    +0.210 HD
ENDBRANCH   8  31
BRANCH   9  33
ATOM     33  O   LIG A   1      -7.827   0.555 132.641  0.00  0.00    -0.349 OA
ATOM     34  C   LIG A   1      -8.342  -0.755 132.397  0.00  0.00    +0.197 C 
ENDBRANCH   9  33
BRANCH   1  35
ATOM     35  O   LIG A   1      -4.683   2.355 132.462  0.00  0.00    -0.457 OA
BRANCH  35  37
ATOM     36  O   LIG A   1      -4.993   0.933 134.232  0.00  0.00    -0.251 OA
ATOM     37  C   LIG A   1      -4.521   1.903 133.751  0.00  0.00    +0.304 C 
ATOM     38  C   LIG A   1      -3.630   2.852 134.533  0.00  0.00    +0.136 C 
ENDBRANCH  35  37
ENDBRANCH   1  35
BRANCH   6  39
ATOM     39  C   LIG A   1      -7.963   5.722 130.247  0.00  0.00    +0.227 C 
BRANCH  39  40
ATOM     40  O   LIG A   1      -7.842   7.144 130.546  0.00  0.00    -0.380 OA
ATOM     41  H   LIG A   1      -7.729   7.201 131.524  0.00  0.00    +0.210 HD
ENDBRANCH  39  40
BRANCH  39  42
ATOM     42  C   LIG A   1      -9.502   5.535 130.127  0.00  0.00    +0.336 C 
ATOM     43  O   LIG A   1      -9.986   4.586 129.507  0.00  0.00    -0.248 OA
BRANCH  42  44
ATOM     44  O   LIG A   1     -10.252   6.461 130.779  0.00  0.00    -0.466 OA
ATOM     45  C   LIG A   1     -11.574   5.981 131.095  0.00  0.00    +0.280 C 
ENDBRANCH  42  44
ENDBRANCH  39  42
ENDBRANCH   6  39
TORSDOF 10
ENDMDL
MODEL 8
REMARK VINA RESULT:      -7.0      3.765      7.723
REMARK  Name = NuBBE_1551
REMARK  16 active torsions:
REMARK  status: ('A' for Active; 'I' for Inactive)
REMARK    1  A    between atoms: C_2  and  C_3
REMARK    2  A    between atoms: C_2  and  O_4
REMARK    3  A    between atoms: O_4  and  C_5
REMARK    4  A    between atoms: C_8  and  O_9
REMARK    5  A    between atoms: C_11  and  C_47
REMARK    6  A    between atoms: C_12  and  C_14
REMARK    7  A    between atoms: C_14  and  O_16
REMARK    8  A    between atoms: C_14  and  C_17
REMARK    9  A    between atoms: C_17  and  O_18
REMARK   10  A    between atoms: O_18  and  C_19
REMARK   11  A    between atoms: C_21  and  C_45
REMARK   12  A    between atoms: C_22  and  O_24
REMARK   13  A    between atoms: C_25  and  O_43
REMARK   14  A    between atoms: C_28  and  C_29
REMARK   15  A    between atoms: C_30  and  C_32
REMARK   16  A    between atoms: O_43  and  C_44
REMARK                            x       y       z     vdW  Elec       q    Type
REMARK                         _______ _______ _______ _____ _____    ______ ____
ROOT
ATOM      1  C   LIG A   1      -7.160  -1.204 127.919  0.00  0.00    +0.131 C 
ATOM      2  C   LIG A   1      -6.607  -0.219 128.905  0.00  0.00    +0.130 C 
ATOM      3  C   LIG A   1      -5.536   0.678 128.475  0.00  0.00    +0.111 C 
ATOM      4  C   LIG A   1      -5.023   0.029 127.238  0.00  0.00    +0.034 C 
ATOM      5  C   LIG A   1      -5.728  -1.514 127.335  0.00  0.00    +0.020 C 
ATOM      6  C   LIG A   1      -5.254  -2.650 128.622  0.00  0.00    +0.047 C 
ATOM      7  C   LIG A   1      -6.466  -2.637 129.757  0.00  0.00    +0.009 C 
ATOM      8  C   LIG A   1      -6.491  -1.350 130.926  0.00  0.00    +0.181 C 
ATOM      9  C   LIG A   1      -7.086   0.105 130.255  0.00  0.00    +0.206 C 
ATOM     10  O   LIG A   1      -6.403   1.473 130.289  0.00  0.00    -0.335 OA
ATOM     11  C   LIG A   1      -6.189   1.977 128.798  0.00  0.00    +0.121 C 
ATOM     12  C   LIG A   1      -5.118   3.037 128.333  0.00  0.00    +0.042 C 
ATOM     13  C   LIG A   1      -3.773   3.158 129.107  0.00  0.00    +0.018 C 
ATOM     14  C   LIG A   1      -5.746   4.472 128.395  0.00  0.00    +0.218 C 
ATOM     15  O   LIG A   1      -6.834   4.591 127.473  0.00  0.00    -0.456 OA
ATOM     16  C   LIG A   1      -7.686   3.568 127.304  0.00  0.00    +0.311 C 
ATOM     17  C   LIG A   1      -7.585   2.388 128.247  0.00  0.00    +0.159 C 
ATOM     18  O   LIG A   1      -8.557   3.623 126.440  0.00  0.00    -0.251 OA
ATOM     19  C   LIG A   1      -4.723   2.601 126.785  0.00  0.00    +0.014 C 
ATOM     20  C   LIG A   1      -5.221   1.168 126.214  0.00  0.00    +0.008 C 
ATOM     21  C   LIG A   1      -6.650  -3.989 130.450  0.00  0.00    +0.014 C 
ATOM     22  C   LIG A   1      -7.622  -2.432 128.729  0.00  0.00    +0.059 C 
ATOM     23  C   LIG A   1      -5.675  -2.236 125.998  0.00  0.00    +0.016 C 
ENDROOT
BRANCH  14  24
ATOM     24  C   LIG A   1      -6.141   4.991 129.771  0.00  0.00    +0.031 A 
ATOM     25  C   LIG A   1      -7.379   4.988 130.380  0.00  0.00    +0.202 A 
ATOM     26  O   LIG A   1      -7.364   5.524 131.615  0.00  0.00    -0.471 OA
ATOM     27  C   LIG A   1      -6.098   5.920 131.836  0.00  0.00    +0.195 A 
ATOM     28  C   LIG A   1      -5.304   5.626 130.748  0.00  0.00    +0.048 A 
ENDBRANCH  14  24
BRANCH   3  29
ATOM     29  O   LIG A   1      -4.389   0.576 129.402  0.00  0.00    -0.385 OA
ATOM     30  H   LIG A   1      -3.602   0.478 128.821  0.00  0.00    +0.210 HD
ENDBRANCH   3  29
BRANCH   8  31
ATOM     31  O   LIG A   1      -7.174  -1.794 132.091  0.00  0.00    -0.386 OA
ATOM     32  H   LIG A   1      -6.510  -2.151 132.706  0.00  0.00    +0.210 HD
ENDBRANCH   8  31
BRANCH   9  33
ATOM     33  O   LIG A   1      -8.482   0.232 130.405  0.00  0.00    -0.349 OA
ATOM     34  C   LIG A   1      -8.849   1.203 131.386  0.00  0.00    +0.197 C 
ENDBRANCH   9  33
BRANCH   1  35
ATOM     35  O   LIG A   1      -8.065  -0.703 126.926  0.00  0.00    -0.457 OA
BRANCH  35  37
ATOM     36  O   LIG A   1      -9.180  -2.642 126.424  0.00  0.00    -0.251 OA
ATOM     37  C   LIG A   1      -8.737  -1.591 126.117  0.00  0.00    +0.304 C 
ATOM     38  C   LIG A   1      -8.836  -1.043 124.704  0.00  0.00    +0.136 C 
ENDBRANCH  35  37
ENDBRANCH   1  35
BRANCH   6  39
ATOM     39  C   LIG A   1      -3.774  -2.689 129.080  0.00  0.00    +0.227 C 
BRANCH  39  40
ATOM     40  O   LIG A   1      -3.345  -4.052 128.793  0.00  0.00    -0.380 OA
ATOM     41  H   LIG A   1      -3.612  -4.586 129.577  0.00  0.00    +0.210 HD
ENDBRANCH  39  40
BRANCH  39  42
ATOM     42  C   LIG A   1      -3.437  -2.544 130.592  0.00  0.00    +0.336 C 
ATOM     43  O   LIG A   1      -3.300  -1.436 131.114  0.00  0.00    -0.248 OA
BRANCH  42  44
ATOM     44  O   LIG A   1      -3.348  -3.711 131.281  0.00  0.00    -0.466 OA
ATOM     45  C   LIG A   1      -3.719  -3.566 132.666  0.00  0.00    +0.280 C 
ENDBRANCH  42  44
ENDBRANCH  39  42
ENDBRANCH   6  39
TORSDOF 10
ENDMDL
MODEL 9
REMARK VINA RESULT:      -7.0      2.568      6.042
REMARK  Name = NuBBE_1551
REMARK  16 active torsions:
REMARK  status: ('A' for Active; 'I' for Inactive)
REMARK    1  A    between atoms: C_2  and  C_3
REMARK    2  A    between atoms: C_2  and  O_4
REMARK    3  A    between atoms: O_4  and  C_5
REMARK    4  A    between atoms: C_8  and  O_9
REMARK    5  A    between atoms: C_11  and  C_47
REMARK    6  A    between atoms: C_12  and  C_14
REMARK    7  A    between atoms: C_14  and  O_16
REMARK    8  A    between atoms: C_14  and  C_17
REMARK    9  A    between atoms: C_17  and  O_18
REMARK   10  A    between atoms: O_18  and  C_19
REMARK   11  A    between atoms: C_21  and  C_45
REMARK   12  A    between atoms: C_22  and  O_24
REMARK   13  A    between atoms: C_25  and  O_43
REMARK   14  A    between atoms: C_28  and  C_29
REMARK   15  A    between atoms: C_30  and  C_32
REMARK   16  A    between atoms: O_43  and  C_44
REMARK                            x       y       z     vdW  Elec       q    Type
REMARK                         _______ _______ _______ _____ _____    ______ ____
ROOT
ATOM      1  C   LIG A   1      -6.225   3.315 132.487  0.00  0.00    +0.131 C 
ATOM      2  C   LIG A   1      -6.031   2.478 131.258  0.00  0.00    +0.130 C 
ATOM      3  C   LIG A   1      -5.097   1.356 131.313  0.00  0.00    +0.111 C 
ATOM      4  C   LIG A   1      -4.281   1.650 132.523  0.00  0.00    +0.034 C 
ATOM      5  C   LIG A   1      -4.686   3.271 132.831  0.00  0.00    +0.020 C 
ATOM      6  C   LIG A   1      -4.213   4.558 131.694  0.00  0.00    +0.047 C 
ATOM      7  C   LIG A   1      -5.569   4.967 130.827  0.00  0.00    +0.009 C 
ATOM      8  C   LIG A   1      -6.022   3.965 129.479  0.00  0.00    +0.181 C 
ATOM      9  C   LIG A   1      -6.770   2.516 129.989  0.00  0.00    +0.206 C 
ATOM     10  O   LIG A   1      -6.374   1.093 129.589  0.00  0.00    -0.335 OA
ATOM     11  C   LIG A   1      -6.028   0.269 130.901  0.00  0.00    +0.121 C 
ATOM     12  C   LIG A   1      -5.118  -1.019 130.963  0.00  0.00    +0.042 C 
ATOM     13  C   LIG A   1      -3.960  -1.188 129.937  0.00  0.00    +0.018 C 
ATOM     14  C   LIG A   1      -6.010  -2.294 130.775  0.00  0.00    +0.218 C 
ATOM     15  O   LIG A   1      -6.941  -2.426 131.853  0.00  0.00    -0.456 OA
ATOM     16  C   LIG A   1      -7.545  -1.340 132.356  0.00  0.00    +0.311 C 
ATOM     17  C   LIG A   1      -7.371  -0.022 131.630  0.00  0.00    +0.159 C 
ATOM     18  O   LIG A   1      -8.263  -1.432 133.348  0.00  0.00    -0.251 OA
ATOM     19  C   LIG A   1      -4.408  -0.975 132.458  0.00  0.00    +0.014 C 
ATOM     20  C   LIG A   1      -4.528   0.371 133.353  0.00  0.00    +0.008 C 
ATOM     21  C   LIG A   1      -5.599   6.443 130.426  0.00  0.00    +0.014 C 
ATOM     22  C   LIG A   1      -6.567   4.739 132.005  0.00  0.00    +0.059 C 
ATOM     23  C   LIG A   1      -4.286   3.688 134.238  0.00  0.00    +0.016 C 
ENDROOT
BRANCH  14  24
ATOM     24  C   LIG A   1      -6.708  -2.453 129.430  0.00  0.00    +0.031 A 
ATOM     25  C   LIG A   1      -6.235  -2.171 128.165  0.00  0.00    +0.202 A 
ATOM     26  O   LIG A   1      -7.126  -2.443 127.193  0.00  0.00    -0.471 OA
ATOM     27  C   LIG A   1      -8.231  -2.895 127.813  0.00  0.00    +0.195 A 
ATOM     28  C   LIG A   1      -8.040  -2.921 129.178  0.00  0.00    +0.048 A 
ENDBRANCH  14  24
BRANCH   3  29
ATOM     29  O   LIG A   1      -4.112   1.464 130.217  0.00  0.00    -0.385 OA
ATOM     30  H   LIG A   1      -4.448   0.864 129.514  0.00  0.00    +0.210 HD
ENDBRANCH   3  29
BRANCH   8  31
ATOM     31  O   LIG A   1      -6.784   4.739 128.561  0.00  0.00    -0.386 OA
ATOM     32  H   LIG A   1      -6.847   5.642 128.917  0.00  0.00    +0.210 HD
ENDBRANCH   8  31
BRANCH   9  33
ATOM     33  O   LIG A   1      -8.171   2.642 130.089  0.00  0.00    -0.349 OA
ATOM     34  C   LIG A   1      -8.863   2.025 129.003  0.00  0.00    +0.197 C 
ENDBRANCH   9  33
BRANCH   1  35
ATOM     35  O   LIG A   1      -7.040   2.770 133.533  0.00  0.00    -0.457 OA
BRANCH  35  37
ATOM     36  O   LIG A   1      -8.052   4.351 134.848  0.00  0.00    -0.251 OA
ATOM     37  C   LIG A   1      -8.093   3.510 134.021  0.00  0.00    +0.304 C 
ATOM     38  C   LIG A   1      -9.387   3.088 133.347  0.00  0.00    +0.136 C 
ENDBRANCH  35  37
ENDBRANCH   1  35
BRANCH   6  39
ATOM     39  C   LIG A   1      -2.844   4.457 130.975  0.00  0.00    +0.227 C 
BRANCH  39  40
ATOM     40  O   LIG A   1      -1.966   5.321 131.754  0.00  0.00    -0.380 OA
ATOM     41  H   LIG A   1      -1.282   4.726 132.142  0.00  0.00    +0.210 HD
ENDBRANCH  39  40
BRANCH  39  42
ATOM     42  C   LIG A   1      -2.690   5.032 129.538  0.00  0.00    +0.336 C 
ATOM     43  O   LIG A   1      -2.856   4.324 128.543  0.00  0.00    -0.248 OA
BRANCH  42  44
ATOM     44  O   LIG A   1      -2.404   6.358 129.470  0.00  0.00    -0.466 OA
ATOM     45  C   LIG A   1      -2.312   6.838 128.115  0.00  0.00    +0.280 C 
ENDBRANCH  42  44
ENDBRANCH  39  42
ENDBRANCH   6  39
TORSDOF 10
ENDMDL
