MODEL 1
REMARK VINA RESULT:      -7.0      0.000      0.000
REMARK  Name = NuBBE_1542
REMARK  4 active torsions:
REMARK  status: ('A' for Active; 'I' for Inactive)
REMARK    1  A    between atoms: C_1  and  C_2
REMARK    2  A    between atoms: C_2  and  C_3
REMARK    3  A    between atoms: C_9  and  C_10
REMARK    4  A    between atoms: C_14  and  C_17
REMARK                            x       y       z     vdW  Elec       q    Type
REMARK                         _______ _______ _______ _____ _____    ______ ____
ROOT
ATOM      1  C   LIG A   1      -4.378  -4.428 123.301  0.00  0.00    +0.012 C 
ATOM      2  C   LIG A   1      -5.261  -3.253 123.651  0.00  0.00    -0.025 C 
ATOM      3  C   LIG A   1      -5.546  -2.370 122.456  0.00  0.00    +0.012 C 
ATOM      4  C   LIG A   1      -6.313  -3.589 124.710  0.00  0.00    +0.003 C 
ATOM      5  C   LIG A   1      -5.153  -2.607 125.001  0.00  0.00    +0.021 C 
ATOM      6  C   LIG A   1      -5.594  -1.293 125.474  0.00  0.00    -0.024 C 
ATOM      7  C   LIG A   1      -5.746  -0.974 126.783  0.00  0.00    -0.076 C 
ATOM      8  C   LIG A   1      -5.270  -1.846 127.915  0.00  0.00    +0.038 C 
ATOM      9  C   LIG A   1      -6.623   0.196 127.194  0.00  0.00    +0.034 C 
ATOM     10  C   LIG A   1      -8.085  -0.252 127.450  0.00  0.00    +0.031 C 
ATOM     11  C   LIG A   1      -8.572  -1.179 126.355  0.00  0.00    -0.027 C 
ATOM     12  C   LIG A   1      -8.726  -2.505 126.422  0.00  0.00    -0.076 C 
ATOM     13  C   LIG A   1      -8.916  -3.320 125.161  0.00  0.00    +0.030 C 
ATOM     14  C   LIG A   1      -7.726  -3.428 124.198  0.00  0.00    +0.009 C 
ATOM     15  C   LIG A   1      -8.686  -3.347 127.672  0.00  0.00    +0.038 C 
ENDROOT
TORSDOF 0
ENDMDL
MODEL 2
REMARK VINA RESULT:      -6.8      1.059      3.317
REMARK  Name = NuBBE_1542
REMARK  4 active torsions:
REMARK  status: ('A' for Active; 'I' for Inactive)
REMARK    1  A    between atoms: C_1  and  C_2
REMARK    2  A    between atoms: C_2  and  C_3
REMARK    3  A    between atoms: C_9  and  C_10
REMARK    4  A    between atoms: C_14  and  C_17
REMARK                            x       y       z     vdW  Elec       q    Type
REMARK                         _______ _______ _______ _____ _____    ______ ____
ROOT
ATOM      1  C   LIG A   1      -5.960  -2.063 122.129  0.00  0.00    +0.012 C 
ATOM      2  C   LIG A   1      -5.962  -2.633 123.527  0.00  0.00    -0.025 C 
ATOM      3  C   LIG A   1      -4.858  -3.647 123.738  0.00  0.00    +0.012 C 
ATOM      4  C   LIG A   1      -6.371  -1.611 124.590  0.00  0.00    +0.003 C 
ATOM      5  C   LIG A   1      -7.258  -2.835 124.256  0.00  0.00    +0.021 C 
ATOM      6  C   LIG A   1      -7.588  -3.663 125.418  0.00  0.00    -0.024 C 
ATOM      7  C   LIG A   1      -8.696  -3.490 126.178  0.00  0.00    -0.076 C 
ATOM      8  C   LIG A   1      -9.836  -2.581 125.797  0.00  0.00    +0.038 C 
ATOM      9  C   LIG A   1      -8.754  -4.040 127.593  0.00  0.00    +0.034 C 
ATOM     10  C   LIG A   1      -8.256  -3.000 128.628  0.00  0.00    +0.031 C 
ATOM     11  C   LIG A   1      -6.981  -2.329 128.158  0.00  0.00    -0.027 C 
ATOM     12  C   LIG A   1      -6.848  -1.095 127.662  0.00  0.00    -0.076 C 
ATOM     13  C   LIG A   1      -5.576  -0.688 126.950  0.00  0.00    +0.030 C 
ATOM     14  C   LIG A   1      -5.275  -1.349 125.598  0.00  0.00    +0.009 C 
ATOM     15  C   LIG A   1      -7.889  -0.006 127.685  0.00  0.00    +0.038 C 
ENDROOT
TORSDOF 0
ENDMDL
MODEL 3
REMARK VINA RESULT:      -6.7      9.333     11.598
REMARK  Name = NuBBE_1542
REMARK  4 active torsions:
REMARK  status: ('A' for Active; 'I' for Inactive)
REMARK    1  A    between atoms: C_1  and  C_2
REMARK    2  A    between atoms: C_2  and  C_3
REMARK    3  A    between atoms: C_9  and  C_10
REMARK    4  A    between atoms: C_14  and  C_17
REMARK                            x       y       z     vdW  Elec       q    Type
REMARK                         _______ _______ _______ _____ _____    ______ ____
ROOT
ATOM      1  C   LIG A   1      -7.832   6.152 131.651  0.00  0.00    +0.012 C 
ATOM      2  C   LIG A   1      -9.114   5.824 130.921  0.00  0.00    -0.025 C 
ATOM      3  C   LIG A   1      -9.442   4.348 130.967  0.00  0.00    +0.012 C 
ATOM      4  C   LIG A   1     -10.174   6.920 131.053  0.00  0.00    +0.003 C 
ATOM      5  C   LIG A   1      -9.502   6.600 129.697  0.00  0.00    +0.021 C 
ATOM      6  C   LIG A   1     -10.449   6.290 128.624  0.00  0.00    -0.024 C 
ATOM      7  C   LIG A   1     -10.956   7.216 127.774  0.00  0.00    -0.076 C 
ATOM      8  C   LIG A   1     -10.443   8.629 127.676  0.00  0.00    +0.038 C 
ATOM      9  C   LIG A   1     -12.243   6.943 127.014  0.00  0.00    +0.034 C 
ATOM     10  C   LIG A   1     -13.483   7.436 127.802  0.00  0.00    +0.031 C 
ATOM     11  C   LIG A   1     -13.398   7.036 129.261  0.00  0.00    -0.027 C 
ATOM     12  C   LIG A   1     -13.099   7.819 130.302  0.00  0.00    -0.076 C 
ATOM     13  C   LIG A   1     -12.747   7.212 131.643  0.00  0.00    +0.030 C 
ATOM     14  C   LIG A   1     -11.427   6.437 131.748  0.00  0.00    +0.009 C 
ATOM     15  C   LIG A   1     -13.021   9.324 130.294  0.00  0.00    +0.038 C 
ENDROOT
TORSDOF 0
ENDMDL
MODEL 4
REMARK VINA RESULT:      -6.6      2.107      4.543
REMARK  Name = NuBBE_1542
REMARK  4 active torsions:
REMARK  status: ('A' for Active; 'I' for Inactive)
REMARK    1  A    between atoms: C_1  and  C_2
REMARK    2  A    between atoms: C_2  and  C_3
REMARK    3  A    between atoms: C_9  and  C_10
REMARK    4  A    between atoms: C_14  and  C_17
REMARK                            x       y       z     vdW  Elec       q    Type
REMARK                         _______ _______ _______ _____ _____    ______ ____
ROOT
ATOM      1  C   LIG A   1      -7.602   2.893 125.151  0.00  0.00    +0.012 C 
ATOM      2  C   LIG A   1      -8.212   1.577 124.728  0.00  0.00    -0.025 C 
ATOM      3  C   LIG A   1      -9.404   1.761 123.814  0.00  0.00    +0.012 C 
ATOM      4  C   LIG A   1      -7.172   0.472 124.531  0.00  0.00    +0.003 C 
ATOM      5  C   LIG A   1      -8.215   0.412 125.673  0.00  0.00    +0.021 C 
ATOM      6  C   LIG A   1      -9.015  -0.815 125.681  0.00  0.00    -0.024 C 
ATOM      7  C   LIG A   1      -8.683  -1.928 126.379  0.00  0.00    -0.076 C 
ATOM      8  C   LIG A   1      -7.581  -1.971 127.406  0.00  0.00    +0.038 C 
ATOM      9  C   LIG A   1      -9.264  -3.279 125.999  0.00  0.00    +0.034 C 
ATOM     10  C   LIG A   1      -8.359  -4.020 124.982  0.00  0.00    +0.031 C 
ATOM     11  C   LIG A   1      -7.899  -3.087 123.879  0.00  0.00    -0.027 C 
ATOM     12  C   LIG A   1      -6.689  -2.538 123.733  0.00  0.00    -0.076 C 
ATOM     13  C   LIG A   1      -6.479  -1.391 122.769  0.00  0.00    +0.030 C 
ATOM     14  C   LIG A   1      -7.134  -0.046 123.111  0.00  0.00    +0.009 C 
ATOM     15  C   LIG A   1      -5.440  -2.913 124.489  0.00  0.00    +0.038 C 
ENDROOT
TORSDOF 0
ENDMDL
MODEL 5
REMARK VINA RESULT:      -6.4      7.676     10.549
REMARK  Name = NuBBE_1542
REMARK  4 active torsions:
REMARK  status: ('A' for Active; 'I' for Inactive)
REMARK    1  A    between atoms: C_1  and  C_2
REMARK    2  A    between atoms: C_2  and  C_3
REMARK    3  A    between atoms: C_9  and  C_10
REMARK    4  A    between atoms: C_14  and  C_17
REMARK                            x       y       z     vdW  Elec       q    Type
REMARK                         _______ _______ _______ _____ _____    ______ ____
ROOT
ATOM      1  C   LIG A   1     -11.136   7.786 129.352  0.00  0.00    +0.012 C 
ATOM      2  C   LIG A   1     -11.085   6.867 130.549  0.00  0.00    -0.025 C 
ATOM      3  C   LIG A   1     -12.374   6.879 131.341  0.00  0.00    +0.012 C 
ATOM      4  C   LIG A   1     -10.275   5.594 130.291  0.00  0.00    +0.003 C 
ATOM      5  C   LIG A   1      -9.797   6.672 131.293  0.00  0.00    +0.021 C 
ATOM      6  C   LIG A   1      -9.533   6.156 132.638  0.00  0.00    -0.024 C 
ATOM      7  C   LIG A   1      -8.322   5.713 133.054  0.00  0.00    -0.076 C 
ATOM      8  C   LIG A   1      -7.050   5.902 132.268  0.00  0.00    +0.038 C 
ATOM      9  C   LIG A   1      -8.209   4.784 134.251  0.00  0.00    +0.034 C 
ATOM     10  C   LIG A   1      -8.265   3.296 133.822  0.00  0.00    +0.031 C 
ATOM     11  C   LIG A   1      -9.373   3.058 132.816  0.00  0.00    -0.027 C 
ATOM     12  C   LIG A   1      -9.247   2.871 131.498  0.00  0.00    -0.076 C 
ATOM     13  C   LIG A   1     -10.456   2.962 130.593  0.00  0.00    +0.030 C 
ATOM     14  C   LIG A   1     -11.109   4.339 130.413  0.00  0.00    +0.009 C 
ATOM     15  C   LIG A   1      -7.965   2.609 130.752  0.00  0.00    +0.038 C 
ENDROOT
TORSDOF 0
ENDMDL
MODEL 6
REMARK VINA RESULT:      -6.4      1.758      4.418
REMARK  Name = NuBBE_1542
REMARK  4 active torsions:
REMARK  status: ('A' for Active; 'I' for Inactive)
REMARK    1  A    between atoms: C_1  and  C_2
REMARK    2  A    between atoms: C_2  and  C_3
REMARK    3  A    between atoms: C_9  and  C_10
REMARK    4  A    between atoms: C_14  and  C_17
REMARK                            x       y       z     vdW  Elec       q    Type
REMARK                         _______ _______ _______ _____ _____    ______ ____
ROOT
ATOM      1  C   LIG A   1      -7.195  -2.166 131.220  0.00  0.00    +0.012 C 
ATOM      2  C   LIG A   1      -6.868  -2.808 129.893  0.00  0.00    -0.025 C 
ATOM      3  C   LIG A   1      -6.288  -4.197 130.051  0.00  0.00    +0.012 C 
ATOM      4  C   LIG A   1      -7.861  -2.438 128.788  0.00  0.00    +0.003 C 
ATOM      5  C   LIG A   1      -6.388  -1.965 128.748  0.00  0.00    +0.021 C 
ATOM      6  C   LIG A   1      -5.683  -2.329 127.517  0.00  0.00    -0.024 C 
ATOM      7  C   LIG A   1      -5.617  -1.534 126.421  0.00  0.00    -0.076 C 
ATOM      8  C   LIG A   1      -6.063  -0.095 126.406  0.00  0.00    +0.038 C 
ATOM      9  C   LIG A   1      -5.294  -2.125 125.059  0.00  0.00    +0.034 C 
ATOM     10  C   LIG A   1      -6.580  -2.542 124.302  0.00  0.00    +0.031 C 
ATOM     11  C   LIG A   1      -7.533  -3.289 125.213  0.00  0.00    -0.027 C 
ATOM     12  C   LIG A   1      -8.659  -2.826 125.765  0.00  0.00    -0.076 C 
ATOM     13  C   LIG A   1      -9.327  -3.583 126.893  0.00  0.00    +0.030 C 
ATOM     14  C   LIG A   1      -8.597  -3.640 128.241  0.00  0.00    +0.009 C 
ATOM     15  C   LIG A   1      -9.365  -1.542 125.413  0.00  0.00    +0.038 C 
ENDROOT
TORSDOF 0
ENDMDL
MODEL 7
REMARK VINA RESULT:      -6.2      1.520      4.765
REMARK  Name = NuBBE_1542
REMARK  4 active torsions:
REMARK  status: ('A' for Active; 'I' for Inactive)
REMARK    1  A    between atoms: C_1  and  C_2
REMARK    2  A    between atoms: C_2  and  C_3
REMARK    3  A    between atoms: C_9  and  C_10
REMARK    4  A    between atoms: C_14  and  C_17
REMARK                            x       y       z     vdW  Elec       q    Type
REMARK                         _______ _______ _______ _____ _____    ______ ____
ROOT
ATOM      1  C   LIG A   1      -7.514  -2.971 129.487  0.00  0.00    +0.012 C 
ATOM      2  C   LIG A   1      -7.675  -2.065 128.289  0.00  0.00    -0.025 C 
ATOM      3  C   LIG A   1      -8.008  -0.642 128.682  0.00  0.00    +0.012 C 
ATOM      4  C   LIG A   1      -6.722  -2.413 127.143  0.00  0.00    +0.003 C 
ATOM      5  C   LIG A   1      -8.252  -2.601 127.012  0.00  0.00    +0.021 C 
ATOM      6  C   LIG A   1      -8.838  -1.914 125.859  0.00  0.00    -0.024 C 
ATOM      7  C   LIG A   1      -9.001  -2.486 124.641  0.00  0.00    -0.076 C 
ATOM      8  C   LIG A   1      -8.813  -3.958 124.379  0.00  0.00    +0.038 C 
ATOM      9  C   LIG A   1      -9.165  -1.625 123.401  0.00  0.00    +0.034 C 
ATOM     10  C   LIG A   1      -7.799  -1.322 122.735  0.00  0.00    +0.031 C 
ATOM     11  C   LIG A   1      -6.764  -0.923 123.767  0.00  0.00    -0.027 C 
ATOM     12  C   LIG A   1      -5.758  -1.666 124.238  0.00  0.00    -0.076 C 
ATOM     13  C   LIG A   1      -5.010  -1.244 125.483  0.00  0.00    +0.030 C 
ATOM     14  C   LIG A   1      -5.768  -1.286 126.817  0.00  0.00    +0.009 C 
ATOM     15  C   LIG A   1      -5.275  -2.977 123.672  0.00  0.00    +0.038 C 
ENDROOT
TORSDOF 0
ENDMDL
MODEL 8
REMARK VINA RESULT:      -6.1      2.272      4.739
REMARK  Name = NuBBE_1542
REMARK  4 active torsions:
REMARK  status: ('A' for Active; 'I' for Inactive)
REMARK    1  A    between atoms: C_1  and  C_2
REMARK    2  A    between atoms: C_2  and  C_3
REMARK    3  A    between atoms: C_9  and  C_10
REMARK    4  A    between atoms: C_14  and  C_17
REMARK                            x       y       z     vdW  Elec       q    Type
REMARK                         _______ _______ _______ _____ _____    ______ ____
ROOT
ATOM      1  C   LIG A   1      -8.751   2.865 124.558  0.00  0.00    +0.012 C 
ATOM      2  C   LIG A   1      -7.604   1.882 124.575  0.00  0.00    -0.025 C 
ATOM      3  C   LIG A   1      -6.260   2.565 124.706  0.00  0.00    +0.012 C 
ATOM      4  C   LIG A   1      -7.949   0.573 125.291  0.00  0.00    +0.003 C 
ATOM      5  C   LIG A   1      -7.683   0.620 123.767  0.00  0.00    +0.021 C 
ATOM      6  C   LIG A   1      -6.637  -0.301 123.319  0.00  0.00    -0.024 C 
ATOM      7  C   LIG A   1      -6.874  -1.567 122.899  0.00  0.00    -0.076 C 
ATOM      8  C   LIG A   1      -8.252  -2.111 122.626  0.00  0.00    +0.038 C 
ATOM      9  C   LIG A   1      -5.759  -2.600 122.896  0.00  0.00    +0.034 C 
ATOM     10  C   LIG A   1      -5.705  -3.381 124.234  0.00  0.00    +0.031 C 
ATOM     11  C   LIG A   1      -5.828  -2.444 125.419  0.00  0.00    -0.027 C 
ATOM     12  C   LIG A   1      -6.898  -2.255 126.198  0.00  0.00    -0.076 C 
ATOM     13  C   LIG A   1      -6.966  -1.068 127.133  0.00  0.00    +0.030 C 
ATOM     14  C   LIG A   1      -7.081   0.327 126.504  0.00  0.00    +0.009 C 
ATOM     15  C   LIG A   1      -8.141  -3.107 126.229  0.00  0.00    +0.038 C 
ENDROOT
TORSDOF 0
ENDMDL
MODEL 9
REMARK VINA RESULT:      -6.0      1.922      4.125
REMARK  Name = NuBBE_1542
REMARK  4 active torsions:
REMARK  status: ('A' for Active; 'I' for Inactive)
REMARK    1  A    between atoms: C_1  and  C_2
REMARK    2  A    between atoms: C_2  and  C_3
REMARK    3  A    between atoms: C_9  and  C_10
REMARK    4  A    between atoms: C_14  and  C_17
REMARK                            x       y       z     vdW  Elec       q    Type
REMARK                         _______ _______ _______ _____ _____    ______ ____
ROOT
ATOM      1  C   LIG A   1      -8.447  -3.344 128.754  0.00  0.00    +0.012 C 
ATOM      2  C   LIG A   1      -7.609  -2.541 127.788  0.00  0.00    -0.025 C 
ATOM      3  C   LIG A   1      -6.134  -2.590 128.125  0.00  0.00    +0.012 C 
ATOM      4  C   LIG A   1      -8.140  -2.587 126.354  0.00  0.00    +0.003 C 
ATOM      5  C   LIG A   1      -8.157  -1.281 127.184  0.00  0.00    +0.021 C 
ATOM      6  C   LIG A   1      -7.482  -0.156 126.533  0.00  0.00    -0.024 C 
ATOM      7  C   LIG A   1      -8.110   0.740 125.734  0.00  0.00    -0.076 C 
ATOM      8  C   LIG A   1      -9.607   0.829 125.594  0.00  0.00    +0.038 C 
ATOM      9  C   LIG A   1      -7.318   1.575 124.741  0.00  0.00    +0.034 C 
ATOM     10  C   LIG A   1      -7.220   0.875 123.362  0.00  0.00    +0.031 C 
ATOM     11  C   LIG A   1      -6.878  -0.593 123.517  0.00  0.00    -0.027 C 
ATOM     12  C   LIG A   1      -7.701  -1.637 123.381  0.00  0.00    -0.076 C 
ATOM     13  C   LIG A   1      -7.288  -3.007 123.873  0.00  0.00    +0.030 C 
ATOM     14  C   LIG A   1      -7.155  -3.209 125.389  0.00  0.00    +0.009 C 
ATOM     15  C   LIG A   1      -9.093  -1.609 122.805  0.00  0.00    +0.038 C 
ENDROOT
TORSDOF 0
ENDMDL
