MODEL 1
REMARK VINA RESULT:      -6.6      0.000      0.000
REMARK  Name = NuBBE_424
REMARK  16 active torsions:
REMARK  status: ('A' for Active; 'I' for Inactive)
REMARK    1  A    between atoms: N_4  and  C_5
REMARK    2  A    between atoms: N_4  and  C_15
REMARK    3  A    between atoms: C_5  and  C_6
REMARK    4  A    between atoms: C_7  and  C_8
REMARK    5  A    between atoms: C_7  and  C_14
REMARK    6  A    between atoms: C_8  and  C_9
REMARK    7  A    between atoms: C_9  and  C_10
REMARK    8  A    between atoms: C_11  and  C_12
REMARK    9  A    between atoms: C_11  and  C_13
REMARK   10  A    between atoms: C_15  and  C_16
REMARK   11  A    between atoms: C_17  and  C_18
REMARK   12  A    between atoms: C_17  and  C_24
REMARK   13  A    between atoms: C_18  and  C_19
REMARK   14  A    between atoms: C_19  and  C_20
REMARK   15  A    between atoms: C_21  and  C_22
REMARK   16  A    between atoms: C_21  and  C_23
REMARK                            x       y       z     vdW  Elec       q    Type
REMARK                         _______ _______ _______ _____ _____    ______ ____
ROOT
ATOM      1  N   LIG A   1     -10.552   0.337 122.244  0.00  0.00    -0.130 NA
ATOM      2  C   LIG A   1      -9.824   0.713 123.312  0.00  0.00    +0.379 C 
ATOM      3  N   LIG A   1     -10.199   1.746 124.100  0.00  0.00    -0.289 N 
ATOM      4  N   LIG A   1      -8.725   0.151 123.804  0.00  0.00    -0.256 N 
ATOM      5  H   LIG A   1     -11.363   1.049 122.111  0.00  0.00    +0.306 HD
ATOM      6  H   LIG A   1     -11.208   1.875 124.148  0.00  0.00    +0.255 HD
ATOM      7  H   LIG A   1      -9.826   1.585 125.074  0.00  0.00    +0.255 HD
ENDROOT
BRANCH   4   8
ATOM      8  C   LIG A   1      -8.686  -1.348 124.072  0.00  0.00    +0.227 C 
BRANCH   8   9
ATOM      9  C   LIG A   1      -8.878  -1.783 125.551  0.00  0.00    +0.009 C 
ATOM     10  C   LIG A   1      -8.533  -2.973 126.148  0.00  0.00    -0.073 C 
ATOM     11  C   LIG A   1      -7.986  -4.028 125.196  0.00  0.00    +0.038 C 
BRANCH  10  12
ATOM     12  C   LIG A   1      -8.901  -3.548 127.598  0.00  0.00    +0.034 C 
BRANCH  12  13
ATOM     13  C   LIG A   1      -8.322  -3.352 129.146  0.00  0.00    +0.031 C 
BRANCH  13  14
ATOM     14  C   LIG A   1      -7.068  -4.063 129.771  0.00  0.00    -0.028 C 
ATOM     15  C   LIG A   1      -6.491  -3.999 131.021  0.00  0.00    -0.080 C 
ATOM     16  C   LIG A   1      -6.842  -3.080 132.177  0.00  0.00    +0.038 C 
ATOM     17  C   LIG A   1      -5.374  -4.941 131.520  0.00  0.00    +0.038 C 
ENDBRANCH  13  14
ENDBRANCH  12  13
ENDBRANCH  10  12
ENDBRANCH   8   9
ENDBRANCH   4   8
BRANCH   4  18
ATOM     18  C   LIG A   1      -7.363   0.757 123.478  0.00  0.00    +0.227 C 
BRANCH  18  19
ATOM     19  C   LIG A   1      -6.545   1.038 124.713  0.00  0.00    +0.009 C 
ATOM     20  C   LIG A   1      -5.818   0.464 125.727  0.00  0.00    -0.073 C 
ATOM     21  C   LIG A   1      -5.049   1.594 126.474  0.00  0.00    +0.038 C 
BRANCH  20  22
ATOM     22  C   LIG A   1      -5.387  -0.933 126.311  0.00  0.00    +0.034 C 
BRANCH  22  23
ATOM     23  C   LIG A   1      -5.382  -1.769 127.672  0.00  0.00    +0.031 C 
BRANCH  23  24
ATOM     24  C   LIG A   1      -4.564  -1.539 128.963  0.00  0.00    -0.028 C 
ATOM     25  C   LIG A   1      -3.663  -2.299 129.651  0.00  0.00    -0.080 C 
ATOM     26  C   LIG A   1      -3.017  -3.581 129.187  0.00  0.00    +0.038 C 
ATOM     27  C   LIG A   1      -3.191  -1.927 131.062  0.00  0.00    +0.038 C 
ENDBRANCH  23  24
ENDBRANCH  22  23
ENDBRANCH  20  22
ENDBRANCH  18  19
ENDBRANCH   4  18
TORSDOF 10
ENDMDL
MODEL 2
REMARK VINA RESULT:      -6.4      2.739      4.742
REMARK  Name = NuBBE_424
REMARK  16 active torsions:
REMARK  status: ('A' for Active; 'I' for Inactive)
REMARK    1  A    between atoms: N_4  and  C_5
REMARK    2  A    between atoms: N_4  and  C_15
REMARK    3  A    between atoms: C_5  and  C_6
REMARK    4  A    between atoms: C_7  and  C_8
REMARK    5  A    between atoms: C_7  and  C_14
REMARK    6  A    between atoms: C_8  and  C_9
REMARK    7  A    between atoms: C_9  and  C_10
REMARK    8  A    between atoms: C_11  and  C_12
REMARK    9  A    between atoms: C_11  and  C_13
REMARK   10  A    between atoms: C_15  and  C_16
REMARK   11  A    between atoms: C_17  and  C_18
REMARK   12  A    between atoms: C_17  and  C_24
REMARK   13  A    between atoms: C_18  and  C_19
REMARK   14  A    between atoms: C_19  and  C_20
REMARK   15  A    between atoms: C_21  and  C_22
REMARK   16  A    between atoms: C_21  and  C_23
REMARK                            x       y       z     vdW  Elec       q    Type
REMARK                         _______ _______ _______ _____ _____    ______ ____
ROOT
ATOM      1  N   LIG A   1      -5.346   2.661 129.048  0.00  0.00    -0.130 NA
ATOM      2  C   LIG A   1      -5.322   2.303 127.750  0.00  0.00    +0.379 C 
ATOM      3  N   LIG A   1      -4.201   1.823 127.166  0.00  0.00    -0.289 N 
ATOM      4  N   LIG A   1      -6.323   2.286 126.878  0.00  0.00    -0.256 N 
ATOM      5  H   LIG A   1      -4.335   2.588 129.444  0.00  0.00    +0.306 HD
ATOM      6  H   LIG A   1      -3.594   1.315 127.806  0.00  0.00    +0.255 HD
ATOM      7  H   LIG A   1      -4.477   1.184 126.372  0.00  0.00    +0.255 HD
ENDROOT
BRANCH   4   8
ATOM      8  C   LIG A   1      -7.638   1.600 127.234  0.00  0.00    +0.227 C 
BRANCH   8   9
ATOM      9  C   LIG A   1      -7.727   0.084 126.910  0.00  0.00    +0.009 C 
ATOM     10  C   LIG A   1      -8.689  -0.585 126.192  0.00  0.00    -0.073 C 
ATOM     11  C   LIG A   1      -9.867   0.274 125.749  0.00  0.00    +0.038 C 
BRANCH  10  12
ATOM     12  C   LIG A   1      -8.943  -2.158 126.015  0.00  0.00    +0.034 C 
BRANCH  12  13
ATOM     13  C   LIG A   1      -8.944  -3.490 127.013  0.00  0.00    +0.031 C 
BRANCH  13  14
ATOM     14  C   LIG A   1      -8.638  -3.502 128.554  0.00  0.00    -0.028 C 
ATOM     15  C   LIG A   1      -7.529  -3.130 129.283  0.00  0.00    -0.080 C 
ATOM     16  C   LIG A   1      -6.164  -2.701 128.775  0.00  0.00    +0.038 C 
ATOM     17  C   LIG A   1      -7.491  -3.016 130.823  0.00  0.00    +0.038 C 
ENDBRANCH  13  14
ENDBRANCH  12  13
ENDBRANCH  10  12
ENDBRANCH   8   9
ENDBRANCH   4   8
BRANCH   4  18
ATOM     18  C   LIG A   1      -6.474   3.436 125.887  0.00  0.00    +0.227 C 
BRANCH  18  19
ATOM     19  C   LIG A   1      -7.283   3.050 124.673  0.00  0.00    +0.009 C 
ATOM     20  C   LIG A   1      -7.454   2.095 123.701  0.00  0.00    -0.073 C 
ATOM     21  C   LIG A   1      -8.785   2.398 122.951  0.00  0.00    +0.038 C 
BRANCH  20  22
ATOM     22  C   LIG A   1      -6.852   0.742 123.169  0.00  0.00    +0.034 C 
BRANCH  22  23
ATOM     23  C   LIG A   1      -7.254  -0.779 122.889  0.00  0.00    +0.031 C 
BRANCH  23  24
ATOM     24  C   LIG A   1      -6.373  -2.049 122.921  0.00  0.00    -0.028 C 
ATOM     25  C   LIG A   1      -5.513  -2.571 123.843  0.00  0.00    -0.080 C 
ATOM     26  C   LIG A   1      -5.337  -2.125 125.274  0.00  0.00    +0.038 C 
ATOM     27  C   LIG A   1      -4.558  -3.723 123.506  0.00  0.00    +0.038 C 
ENDBRANCH  23  24
ENDBRANCH  22  23
ENDBRANCH  20  22
ENDBRANCH  18  19
ENDBRANCH   4  18
TORSDOF 10
ENDMDL
MODEL 3
REMARK VINA RESULT:      -6.3      2.920      7.517
REMARK  Name = NuBBE_424
REMARK  16 active torsions:
REMARK  status: ('A' for Active; 'I' for Inactive)
REMARK    1  A    between atoms: N_4  and  C_5
REMARK    2  A    between atoms: N_4  and  C_15
REMARK    3  A    between atoms: C_5  and  C_6
REMARK    4  A    between atoms: C_7  and  C_8
REMARK    5  A    between atoms: C_7  and  C_14
REMARK    6  A    between atoms: C_8  and  C_9
REMARK    7  A    between atoms: C_9  and  C_10
REMARK    8  A    between atoms: C_11  and  C_12
REMARK    9  A    between atoms: C_11  and  C_13
REMARK   10  A    between atoms: C_15  and  C_16
REMARK   11  A    between atoms: C_17  and  C_18
REMARK   12  A    between atoms: C_17  and  C_24
REMARK   13  A    between atoms: C_18  and  C_19
REMARK   14  A    between atoms: C_19  and  C_20
REMARK   15  A    between atoms: C_21  and  C_22
REMARK   16  A    between atoms: C_21  and  C_23
REMARK                            x       y       z     vdW  Elec       q    Type
REMARK                         _______ _______ _______ _____ _____    ______ ____
ROOT
ATOM      1  N   LIG A   1      -9.566  -2.070 125.400  0.00  0.00    -0.130 NA
ATOM      2  C   LIG A   1      -8.978  -2.067 124.189  0.00  0.00    +0.379 C 
ATOM      3  N   LIG A   1      -9.254  -3.014 123.263  0.00  0.00    -0.289 N 
ATOM      4  N   LIG A   1      -8.137  -1.175 123.679  0.00  0.00    -0.256 N 
ATOM      5  H   LIG A   1     -10.163  -2.974 125.492  0.00  0.00    +0.306 HD
ATOM      6  H   LIG A   1     -10.201  -3.381 123.327  0.00  0.00    +0.255 HD
ATOM      7  H   LIG A   1      -9.108  -2.604 122.302  0.00  0.00    +0.255 HD
ENDROOT
BRANCH   4   8
ATOM      8  C   LIG A   1      -8.477   0.310 123.723  0.00  0.00    +0.227 C 
BRANCH   8   9
ATOM      9  C   LIG A   1      -7.355   1.282 123.265  0.00  0.00    +0.009 C 
ATOM     10  C   LIG A   1      -7.028   2.516 123.773  0.00  0.00    -0.073 C 
ATOM     11  C   LIG A   1      -7.965   3.026 124.861  0.00  0.00    +0.038 C 
BRANCH  10  12
ATOM     12  C   LIG A   1      -6.035   3.640 123.207  0.00  0.00    +0.034 C 
BRANCH  12  13
ATOM     13  C   LIG A   1      -5.285   3.952 121.754  0.00  0.00    +0.031 C 
BRANCH  13  14
ATOM     14  C   LIG A   1      -5.987   4.136 120.361  0.00  0.00    -0.028 C 
ATOM     15  C   LIG A   1      -7.311   4.104 119.977  0.00  0.00    -0.080 C 
ATOM     16  C   LIG A   1      -8.527   3.734 120.807  0.00  0.00    +0.038 C 
ATOM     17  C   LIG A   1      -7.829   4.520 118.582  0.00  0.00    +0.038 C 
ENDBRANCH  13  14
ENDBRANCH  12  13
ENDBRANCH  10  12
ENDBRANCH   8   9
ENDBRANCH   4   8
BRANCH   4  18
ATOM     18  C   LIG A   1      -6.639  -1.467 123.686  0.00  0.00    +0.227 C 
BRANCH  18  19
ATOM     19  C   LIG A   1      -6.074  -1.552 125.082  0.00  0.00    +0.009 C 
ATOM     20  C   LIG A   1      -5.918  -0.877 126.268  0.00  0.00    -0.073 C 
ATOM     21  C   LIG A   1      -5.401  -1.885 127.336  0.00  0.00    +0.038 C 
BRANCH  20  22
ATOM     22  C   LIG A   1      -6.200   0.511 126.955  0.00  0.00    +0.034 C 
BRANCH  22  23
ATOM     23  C   LIG A   1      -5.454   1.703 127.712  0.00  0.00    +0.031 C 
BRANCH  23  24
ATOM     24  C   LIG A   1      -3.976   2.147 127.629  0.00  0.00    -0.028 C 
ATOM     25  C   LIG A   1      -3.330   3.134 126.943  0.00  0.00    -0.080 C 
ATOM     26  C   LIG A   1      -3.963   4.276 126.187  0.00  0.00    +0.038 C 
ATOM     27  C   LIG A   1      -1.800   3.188 126.839  0.00  0.00    +0.038 C 
ENDBRANCH  23  24
ENDBRANCH  22  23
ENDBRANCH  20  22
ENDBRANCH  18  19
ENDBRANCH   4  18
TORSDOF 10
ENDMDL
MODEL 4
REMARK VINA RESULT:      -6.1      3.390      6.729
REMARK  Name = NuBBE_424
REMARK  16 active torsions:
REMARK  status: ('A' for Active; 'I' for Inactive)
REMARK    1  A    between atoms: N_4  and  C_5
REMARK    2  A    between atoms: N_4  and  C_15
REMARK    3  A    between atoms: C_5  and  C_6
REMARK    4  A    between atoms: C_7  and  C_8
REMARK    5  A    between atoms: C_7  and  C_14
REMARK    6  A    between atoms: C_8  and  C_9
REMARK    7  A    between atoms: C_9  and  C_10
REMARK    8  A    between atoms: C_11  and  C_12
REMARK    9  A    between atoms: C_11  and  C_13
REMARK   10  A    between atoms: C_15  and  C_16
REMARK   11  A    between atoms: C_17  and  C_18
REMARK   12  A    between atoms: C_17  and  C_24
REMARK   13  A    between atoms: C_18  and  C_19
REMARK   14  A    between atoms: C_19  and  C_20
REMARK   15  A    between atoms: C_21  and  C_22
REMARK   16  A    between atoms: C_21  and  C_23
REMARK                            x       y       z     vdW  Elec       q    Type
REMARK                         _______ _______ _______ _____ _____    ______ ____
ROOT
ATOM      1  N   LIG A   1      -3.649  -3.405 129.296  0.00  0.00    -0.130 NA
ATOM      2  C   LIG A   1      -4.499  -2.386 129.522  0.00  0.00    +0.379 C 
ATOM      3  N   LIG A   1      -4.189  -1.113 129.183  0.00  0.00    -0.289 N 
ATOM      4  N   LIG A   1      -5.732  -2.429 130.014  0.00  0.00    -0.256 N 
ATOM      5  H   LIG A   1      -2.712  -2.997 128.923  0.00  0.00    +0.306 HD
ATOM      6  H   LIG A   1      -3.576  -1.047 128.373  0.00  0.00    +0.255 HD
ATOM      7  H   LIG A   1      -5.081  -0.586 128.985  0.00  0.00    +0.255 HD
ENDROOT
BRANCH   4   8
ATOM      8  C   LIG A   1      -6.755  -3.398 129.432  0.00  0.00    +0.227 C 
BRANCH   8   9
ATOM      9  C   LIG A   1      -7.397  -2.983 128.080  0.00  0.00    +0.009 C 
ATOM     10  C   LIG A   1      -8.653  -3.270 127.602  0.00  0.00    -0.073 C 
ATOM     11  C   LIG A   1      -9.472  -4.204 128.483  0.00  0.00    +0.038 C 
BRANCH  10  12
ATOM     12  C   LIG A   1      -9.280  -3.055 126.142  0.00  0.00    +0.034 C 
BRANCH  12  13
ATOM     13  C   LIG A   1      -8.913  -3.553 124.597  0.00  0.00    +0.031 C 
BRANCH  13  14
ATOM     14  C   LIG A   1      -7.977  -2.812 123.575  0.00  0.00    -0.028 C 
ATOM     15  C   LIG A   1      -6.633  -2.509 123.598  0.00  0.00    -0.080 C 
ATOM     16  C   LIG A   1      -5.641  -2.696 124.732  0.00  0.00    +0.038 C 
ATOM     17  C   LIG A   1      -5.838  -1.955 122.394  0.00  0.00    +0.038 C 
ENDBRANCH  13  14
ENDBRANCH  12  13
ENDBRANCH  10  12
ENDBRANCH   8   9
ENDBRANCH   4   8
BRANCH   4  18
ATOM     18  C   LIG A   1      -5.964  -2.094 131.484  0.00  0.00    +0.227 C 
BRANCH  18  19
ATOM     19  C   LIG A   1      -6.935  -0.955 131.670  0.00  0.00    +0.009 C 
ATOM     20  C   LIG A   1      -7.732  -0.047 131.017  0.00  0.00    -0.073 C 
ATOM     21  C   LIG A   1      -8.658   0.633 132.068  0.00  0.00    +0.038 C 
BRANCH  20  22
ATOM     22  C   LIG A   1      -8.127   0.450 129.576  0.00  0.00    +0.034 C 
BRANCH  22  23
ATOM     23  C   LIG A   1      -7.574   0.504 128.078  0.00  0.00    +0.031 C 
BRANCH  23  24
ATOM     24  C   LIG A   1      -8.341   0.368 126.743  0.00  0.00    -0.028 C 
ATOM     25  C   LIG A   1      -8.022   0.648 125.446  0.00  0.00    -0.080 C 
ATOM     26  C   LIG A   1      -6.658   0.996 124.902  0.00  0.00    +0.038 C 
ATOM     27  C   LIG A   1      -9.077   0.664 124.332  0.00  0.00    +0.038 C 
ENDBRANCH  23  24
ENDBRANCH  22  23
ENDBRANCH  20  22
ENDBRANCH  18  19
ENDBRANCH   4  18
TORSDOF 10
ENDMDL
MODEL 5
REMARK VINA RESULT:      -6.0      2.065      5.052
REMARK  Name = NuBBE_424
REMARK  16 active torsions:
REMARK  status: ('A' for Active; 'I' for Inactive)
REMARK    1  A    between atoms: N_4  and  C_5
REMARK    2  A    between atoms: N_4  and  C_15
REMARK    3  A    between atoms: C_5  and  C_6
REMARK    4  A    between atoms: C_7  and  C_8
REMARK    5  A    between atoms: C_7  and  C_14
REMARK    6  A    between atoms: C_8  and  C_9
REMARK    7  A    between atoms: C_9  and  C_10
REMARK    8  A    between atoms: C_11  and  C_12
REMARK    9  A    between atoms: C_11  and  C_13
REMARK   10  A    between atoms: C_15  and  C_16
REMARK   11  A    between atoms: C_17  and  C_18
REMARK   12  A    between atoms: C_17  and  C_24
REMARK   13  A    between atoms: C_18  and  C_19
REMARK   14  A    between atoms: C_19  and  C_20
REMARK   15  A    between atoms: C_21  and  C_22
REMARK   16  A    between atoms: C_21  and  C_23
REMARK                            x       y       z     vdW  Elec       q    Type
REMARK                         _______ _______ _______ _____ _____    ______ ____
ROOT
ATOM      1  N   LIG A   1     -10.660   0.920 123.398  0.00  0.00    -0.130 NA
ATOM      2  C   LIG A   1      -9.411   1.319 123.702  0.00  0.00    +0.379 C 
ATOM      3  N   LIG A   1      -8.758   2.240 122.958  0.00  0.00    -0.289 N 
ATOM      4  N   LIG A   1      -8.661   0.971 124.742  0.00  0.00    -0.256 N 
ATOM      5  H   LIG A   1     -10.948   1.378 122.454  0.00  0.00    +0.306 HD
ATOM      6  H   LIG A   1      -9.376   2.919 122.518  0.00  0.00    +0.255 HD
ATOM      7  H   LIG A   1      -8.068   2.750 123.574  0.00  0.00    +0.255 HD
ENDROOT
BRANCH   4   8
ATOM      8  C   LIG A   1      -9.228   1.046 126.155  0.00  0.00    +0.227 C 
BRANCH   8   9
ATOM      9  C   LIG A   1      -8.286   0.572 127.295  0.00  0.00    +0.009 C 
ATOM     10  C   LIG A   1      -7.752   1.305 128.328  0.00  0.00    -0.073 C 
ATOM     11  C   LIG A   1      -8.052   2.797 128.272  0.00  0.00    +0.038 C 
BRANCH  10  12
ATOM     12  C   LIG A   1      -6.615   0.921 129.392  0.00  0.00    +0.034 C 
BRANCH  12  13
ATOM     13  C   LIG A   1      -4.952   0.959 129.432  0.00  0.00    +0.031 C 
BRANCH  13  14
ATOM     14  C   LIG A   1      -4.030   2.102 128.873  0.00  0.00    -0.028 C 
ATOM     15  C   LIG A   1      -3.886   2.646 127.615  0.00  0.00    -0.080 C 
ATOM     16  C   LIG A   1      -4.513   2.189 126.310  0.00  0.00    +0.038 C 
ATOM     17  C   LIG A   1      -3.071   3.920 127.299  0.00  0.00    +0.038 C 
ENDBRANCH  13  14
ENDBRANCH  12  13
ENDBRANCH  10  12
ENDBRANCH   8   9
ENDBRANCH   4   8
BRANCH   4  18
ATOM     18  C   LIG A   1      -7.581  -0.093 124.564  0.00  0.00    +0.227 C 
BRANCH  18  19
ATOM     19  C   LIG A   1      -8.158  -1.461 124.297  0.00  0.00    +0.009 C 
ATOM     20  C   LIG A   1      -8.825  -2.522 124.858  0.00  0.00    -0.073 C 
ATOM     21  C   LIG A   1      -9.273  -3.476 123.711  0.00  0.00    +0.038 C 
BRANCH  20  22
ATOM     22  C   LIG A   1      -9.405  -3.044 126.225  0.00  0.00    +0.034 C 
BRANCH  22  23
ATOM     23  C   LIG A   1      -8.968  -3.815 127.555  0.00  0.00    +0.031 C 
BRANCH  23  24
ATOM     24  C   LIG A   1      -8.044  -3.347 128.702  0.00  0.00    -0.028 C 
ATOM     25  C   LIG A   1      -6.794  -2.799 128.735  0.00  0.00    -0.080 C 
ATOM     26  C   LIG A   1      -6.005  -2.268 127.564  0.00  0.00    +0.038 C 
ATOM     27  C   LIG A   1      -5.995  -2.671 130.038  0.00  0.00    +0.038 C 
ENDBRANCH  23  24
ENDBRANCH  22  23
ENDBRANCH  20  22
ENDBRANCH  18  19
ENDBRANCH   4  18
TORSDOF 10
ENDMDL
MODEL 6
REMARK VINA RESULT:      -5.9      2.292      3.186
REMARK  Name = NuBBE_424
REMARK  16 active torsions:
REMARK  status: ('A' for Active; 'I' for Inactive)
REMARK    1  A    between atoms: N_4  and  C_5
REMARK    2  A    between atoms: N_4  and  C_15
REMARK    3  A    between atoms: C_5  and  C_6
REMARK    4  A    between atoms: C_7  and  C_8
REMARK    5  A    between atoms: C_7  and  C_14
REMARK    6  A    between atoms: C_8  and  C_9
REMARK    7  A    between atoms: C_9  and  C_10
REMARK    8  A    between atoms: C_11  and  C_12
REMARK    9  A    between atoms: C_11  and  C_13
REMARK   10  A    between atoms: C_15  and  C_16
REMARK   11  A    between atoms: C_17  and  C_18
REMARK   12  A    between atoms: C_17  and  C_24
REMARK   13  A    between atoms: C_18  and  C_19
REMARK   14  A    between atoms: C_19  and  C_20
REMARK   15  A    between atoms: C_21  and  C_22
REMARK   16  A    between atoms: C_21  and  C_23
REMARK                            x       y       z     vdW  Elec       q    Type
REMARK                         _______ _______ _______ _____ _____    ______ ____
ROOT
ATOM      1  N   LIG A   1     -10.543   0.381 122.390  0.00  0.00    -0.130 NA
ATOM      2  C   LIG A   1      -9.753   0.929 123.333  0.00  0.00    +0.379 C 
ATOM      3  N   LIG A   1     -10.235   1.811 124.239  0.00  0.00    -0.289 N 
ATOM      4  N   LIG A   1      -8.472   0.684 123.585  0.00  0.00    -0.256 N 
ATOM      5  H   LIG A   1     -11.524   0.846 122.449  0.00  0.00    +0.306 HD
ATOM      6  H   LIG A   1     -11.214   1.658 124.473  0.00  0.00    +0.255 HD
ATOM      7  H   LIG A   1      -9.656   1.746 125.119  0.00  0.00    +0.255 HD
ENDROOT
BRANCH   4   8
ATOM      8  C   LIG A   1      -7.985  -0.751 123.748  0.00  0.00    +0.227 C 
BRANCH   8   9
ATOM      9  C   LIG A   1      -8.753  -1.621 124.780  0.00  0.00    +0.009 C 
ATOM     10  C   LIG A   1      -8.252  -2.340 125.839  0.00  0.00    -0.073 C 
ATOM     11  C   LIG A   1      -6.732  -2.357 125.936  0.00  0.00    +0.038 C 
BRANCH  10  12
ATOM     12  C   LIG A   1      -8.965  -3.415 126.791  0.00  0.00    +0.034 C 
BRANCH  12  13
ATOM     13  C   LIG A   1      -8.754  -3.959 128.350  0.00  0.00    +0.031 C 
BRANCH  13  14
ATOM     14  C   LIG A   1      -8.201  -3.128 129.562  0.00  0.00    -0.028 C 
ATOM     15  C   LIG A   1      -6.922  -2.895 130.022  0.00  0.00    -0.080 C 
ATOM     16  C   LIG A   1      -5.620  -3.510 129.544  0.00  0.00    +0.038 C 
ATOM     17  C   LIG A   1      -6.558  -1.868 131.117  0.00  0.00    +0.038 C 
ENDBRANCH  13  14
ENDBRANCH  12  13
ENDBRANCH  10  12
ENDBRANCH   8   9
ENDBRANCH   4   8
BRANCH   4  18
ATOM     18  C   LIG A   1      -7.408   1.643 123.060  0.00  0.00    +0.227 C 
BRANCH  18  19
ATOM     19  C   LIG A   1      -6.630   2.305 124.169  0.00  0.00    +0.009 C 
ATOM     20  C   LIG A   1      -6.519   2.440 125.532  0.00  0.00    -0.073 C 
ATOM     21  C   LIG A   1      -5.177   3.166 125.841  0.00  0.00    +0.038 C 
BRANCH  20  22
ATOM     22  C   LIG A   1      -7.201   2.008 126.883  0.00  0.00    +0.034 C 
BRANCH  22  23
ATOM     23  C   LIG A   1      -7.539   0.711 127.752  0.00  0.00    +0.031 C 
BRANCH  23  24
ATOM     24  C   LIG A   1      -8.051   0.610 129.207  0.00  0.00    -0.028 C 
ATOM     25  C   LIG A   1      -8.611   1.508 130.068  0.00  0.00    -0.080 C 
ATOM     26  C   LIG A   1      -9.111   2.893 129.736  0.00  0.00    +0.038 C 
ATOM     27  C   LIG A   1      -8.789   1.205 131.562  0.00  0.00    +0.038 C 
ENDBRANCH  23  24
ENDBRANCH  22  23
ENDBRANCH  20  22
ENDBRANCH  18  19
ENDBRANCH   4  18
TORSDOF 10
ENDMDL
MODEL 7
REMARK VINA RESULT:      -5.9      3.494      6.246
REMARK  Name = NuBBE_424
REMARK  16 active torsions:
REMARK  status: ('A' for Active; 'I' for Inactive)
REMARK    1  A    between atoms: N_4  and  C_5
REMARK    2  A    between atoms: N_4  and  C_15
REMARK    3  A    between atoms: C_5  and  C_6
REMARK    4  A    between atoms: C_7  and  C_8
REMARK    5  A    between atoms: C_7  and  C_14
REMARK    6  A    between atoms: C_8  and  C_9
REMARK    7  A    between atoms: C_9  and  C_10
REMARK    8  A    between atoms: C_11  and  C_12
REMARK    9  A    between atoms: C_11  and  C_13
REMARK   10  A    between atoms: C_15  and  C_16
REMARK   11  A    between atoms: C_17  and  C_18
REMARK   12  A    between atoms: C_17  and  C_24
REMARK   13  A    between atoms: C_18  and  C_19
REMARK   14  A    between atoms: C_19  and  C_20
REMARK   15  A    between atoms: C_21  and  C_22
REMARK   16  A    between atoms: C_21  and  C_23
REMARK                            x       y       z     vdW  Elec       q    Type
REMARK                         _______ _______ _______ _____ _____    ______ ____
ROOT
ATOM      1  N   LIG A   1      -3.782  -0.946 130.068  0.00  0.00    -0.130 NA
ATOM      2  C   LIG A   1      -4.796  -0.158 129.664  0.00  0.00    +0.379 C 
ATOM      3  N   LIG A   1      -4.791   0.441 128.451  0.00  0.00    -0.289 N 
ATOM      4  N   LIG A   1      -5.936   0.110 130.290  0.00  0.00    -0.256 N 
ATOM      5  H   LIG A   1      -2.993  -0.903 129.320  0.00  0.00    +0.306 HD
ATOM      6  H   LIG A   1      -4.292  -0.088 127.739  0.00  0.00    +0.255 HD
ATOM      7  H   LIG A   1      -5.789   0.584 128.138  0.00  0.00    +0.255 HD
ENDROOT
BRANCH   4   8
ATOM      8  C   LIG A   1      -6.792  -1.024 130.842  0.00  0.00    +0.227 C 
BRANCH   8   9
ATOM      9  C   LIG A   1      -7.774  -1.689 129.839  0.00  0.00    +0.009 C 
ATOM     10  C   LIG A   1      -7.763  -2.974 129.350  0.00  0.00    -0.073 C 
ATOM     11  C   LIG A   1      -6.564  -3.809 129.781  0.00  0.00    +0.038 C 
BRANCH  10  12
ATOM     12  C   LIG A   1      -8.612  -3.638 128.163  0.00  0.00    +0.034 C 
BRANCH  12  13
ATOM     13  C   LIG A   1      -9.018  -3.221 126.604  0.00  0.00    +0.031 C 
BRANCH  13  14
ATOM     14  C   LIG A   1      -8.046  -3.159 125.371  0.00  0.00    -0.028 C 
ATOM     15  C   LIG A   1      -6.723  -2.795 125.249  0.00  0.00    -0.080 C 
ATOM     16  C   LIG A   1      -5.808  -2.193 126.301  0.00  0.00    +0.038 C 
ATOM     17  C   LIG A   1      -5.870  -3.002 123.978  0.00  0.00    +0.038 C 
ENDBRANCH  13  14
ENDBRANCH  12  13
ENDBRANCH  10  12
ENDBRANCH   8   9
ENDBRANCH   4   8
BRANCH   4  18
ATOM     18  C   LIG A   1      -6.081   1.422 131.055  0.00  0.00    +0.227 C 
BRANCH  18  19
ATOM     19  C   LIG A   1      -7.128   2.327 130.457  0.00  0.00    +0.009 C 
ATOM     20  C   LIG A   1      -8.059   2.450 129.454  0.00  0.00    -0.073 C 
ATOM     21  C   LIG A   1      -8.942   3.696 129.761  0.00  0.00    +0.038 C 
BRANCH  20  22
ATOM     22  C   LIG A   1      -8.627   1.708 128.188  0.00  0.00    +0.034 C 
BRANCH  22  23
ATOM     23  C   LIG A   1      -8.267   0.542 127.157  0.00  0.00    +0.031 C 
BRANCH  23  24
ATOM     24  C   LIG A   1      -7.979   0.625 125.641  0.00  0.00    -0.028 C 
ATOM     25  C   LIG A   1      -7.064   1.314 124.897  0.00  0.00    -0.080 C 
ATOM     26  C   LIG A   1      -5.865   2.073 125.409  0.00  0.00    +0.038 C 
ATOM     27  C   LIG A   1      -7.169   1.418 123.370  0.00  0.00    +0.038 C 
ENDBRANCH  23  24
ENDBRANCH  22  23
ENDBRANCH  20  22
ENDBRANCH  18  19
ENDBRANCH   4  18
TORSDOF 10
ENDMDL
MODEL 8
REMARK VINA RESULT:      -5.9      7.032      9.754
REMARK  Name = NuBBE_424
REMARK  16 active torsions:
REMARK  status: ('A' for Active; 'I' for Inactive)
REMARK    1  A    between atoms: N_4  and  C_5
REMARK    2  A    between atoms: N_4  and  C_15
REMARK    3  A    between atoms: C_5  and  C_6
REMARK    4  A    between atoms: C_7  and  C_8
REMARK    5  A    between atoms: C_7  and  C_14
REMARK    6  A    between atoms: C_8  and  C_9
REMARK    7  A    between atoms: C_9  and  C_10
REMARK    8  A    between atoms: C_11  and  C_12
REMARK    9  A    between atoms: C_11  and  C_13
REMARK   10  A    between atoms: C_15  and  C_16
REMARK   11  A    between atoms: C_17  and  C_18
REMARK   12  A    between atoms: C_17  and  C_24
REMARK   13  A    between atoms: C_18  and  C_19
REMARK   14  A    between atoms: C_19  and  C_20
REMARK   15  A    between atoms: C_21  and  C_22
REMARK   16  A    between atoms: C_21  and  C_23
REMARK                            x       y       z     vdW  Elec       q    Type
REMARK                         _______ _______ _______ _____ _____    ______ ____
ROOT
ATOM      1  N   LIG A   1     -11.419   5.557 131.510  0.00  0.00    -0.130 NA
ATOM      2  C   LIG A   1     -10.613   5.914 130.492  0.00  0.00    +0.379 C 
ATOM      3  N   LIG A   1     -11.089   6.551 129.398  0.00  0.00    -0.289 N 
ATOM      4  N   LIG A   1      -9.294   5.786 130.397  0.00  0.00    -0.256 N 
ATOM      5  H   LIG A   1     -12.446   5.776 131.229  0.00  0.00    +0.306 HD
ATOM      6  H   LIG A   1     -11.895   7.142 129.591  0.00  0.00    +0.255 HD
ATOM      7  H   LIG A   1     -10.318   7.143 128.986  0.00  0.00    +0.255 HD
ENDROOT
BRANCH   4   8
ATOM      8  C   LIG A   1      -8.394   6.274 131.525  0.00  0.00    +0.227 C 
BRANCH   8   9
ATOM      9  C   LIG A   1      -7.088   6.996 131.094  0.00  0.00    +0.009 C 
ATOM     10  C   LIG A   1      -5.801   6.514 131.092  0.00  0.00    -0.073 C 
ATOM     11  C   LIG A   1      -5.640   5.122 131.691  0.00  0.00    +0.038 C 
BRANCH  10  12
ATOM     12  C   LIG A   1      -4.409   7.277 130.867  0.00  0.00    +0.034 C 
BRANCH  12  13
ATOM     13  C   LIG A   1      -3.196   7.243 129.728  0.00  0.00    +0.031 C 
BRANCH  13  14
ATOM     14  C   LIG A   1      -2.605   5.965 129.031  0.00  0.00    -0.028 C 
ATOM     15  C   LIG A   1      -3.183   4.971 128.271  0.00  0.00    -0.080 C 
ATOM     16  C   LIG A   1      -4.654   4.740 127.979  0.00  0.00    +0.038 C 
ATOM     17  C   LIG A   1      -2.395   3.898 127.487  0.00  0.00    +0.038 C 
ENDBRANCH  13  14
ENDBRANCH  12  13
ENDBRANCH  10  12
ENDBRANCH   8   9
ENDBRANCH   4   8
BRANCH   4  18
ATOM     18  C   LIG A   1      -8.710   4.625 129.597  0.00  0.00    +0.227 C 
BRANCH  18  19
ATOM     19  C   LIG A   1      -8.739   3.325 130.361  0.00  0.00    +0.009 C 
ATOM     20  C   LIG A   1      -8.981   2.753 131.586  0.00  0.00    -0.073 C 
ATOM     21  C   LIG A   1      -9.027   1.208 131.401  0.00  0.00    +0.038 C 
BRANCH  20  22
ATOM     22  C   LIG A   1      -9.354   3.111 133.073  0.00  0.00    +0.034 C 
BRANCH  22  23
ATOM     23  C   LIG A   1      -8.862   4.002 134.305  0.00  0.00    +0.031 C 
BRANCH  23  24
ATOM     24  C   LIG A   1      -7.429   4.433 134.694  0.00  0.00    -0.028 C 
ATOM     25  C   LIG A   1      -6.932   5.419 135.496  0.00  0.00    -0.080 C 
ATOM     26  C   LIG A   1      -7.709   6.287 136.455  0.00  0.00    +0.038 C 
ATOM     27  C   LIG A   1      -5.444   5.794 135.500  0.00  0.00    +0.038 C 
ENDBRANCH  23  24
ENDBRANCH  22  23
ENDBRANCH  20  22
ENDBRANCH  18  19
ENDBRANCH   4  18
TORSDOF 10
ENDMDL
MODEL 9
REMARK VINA RESULT:      -5.8      6.657      9.237
REMARK  Name = NuBBE_424
REMARK  16 active torsions:
REMARK  status: ('A' for Active; 'I' for Inactive)
REMARK    1  A    between atoms: N_4  and  C_5
REMARK    2  A    between atoms: N_4  and  C_15
REMARK    3  A    between atoms: C_5  and  C_6
REMARK    4  A    between atoms: C_7  and  C_8
REMARK    5  A    between atoms: C_7  and  C_14
REMARK    6  A    between atoms: C_8  and  C_9
REMARK    7  A    between atoms: C_9  and  C_10
REMARK    8  A    between atoms: C_11  and  C_12
REMARK    9  A    between atoms: C_11  and  C_13
REMARK   10  A    between atoms: C_15  and  C_16
REMARK   11  A    between atoms: C_17  and  C_18
REMARK   12  A    between atoms: C_17  and  C_24
REMARK   13  A    between atoms: C_18  and  C_19
REMARK   14  A    between atoms: C_19  and  C_20
REMARK   15  A    between atoms: C_21  and  C_22
REMARK   16  A    between atoms: C_21  and  C_23
REMARK                            x       y       z     vdW  Elec       q    Type
REMARK                         _______ _______ _______ _____ _____    ______ ____
ROOT
ATOM      1  N   LIG A   1     -12.043   6.270 131.872  0.00  0.00    -0.130 NA
ATOM      2  C   LIG A   1     -11.023   6.538 131.036  0.00  0.00    +0.379 C 
ATOM      3  N   LIG A   1     -11.142   7.442 130.037  0.00  0.00    -0.289 N 
ATOM      4  N   LIG A   1      -9.783   6.062 131.062  0.00  0.00    -0.256 N 
ATOM      5  H   LIG A   1     -12.923   6.808 131.527  0.00  0.00    +0.306 HD
ATOM      6  H   LIG A   1     -11.790   8.198 130.249  0.00  0.00    +0.255 HD
ATOM      7  H   LIG A   1     -10.191   7.850 129.832  0.00  0.00    +0.255 HD
ENDROOT
BRANCH   4   8
ATOM      8  C   LIG A   1      -8.977   6.099 132.355  0.00  0.00    +0.227 C 
BRANCH   8   9
ATOM      9  C   LIG A   1      -7.441   5.920 132.207  0.00  0.00    +0.009 C 
ATOM     10  C   LIG A   1      -6.619   5.010 132.828  0.00  0.00    -0.073 C 
ATOM     11  C   LIG A   1      -7.307   4.137 133.870  0.00  0.00    +0.038 C 
BRANCH  10  12
ATOM     12  C   LIG A   1      -5.019   4.924 132.877  0.00  0.00    +0.034 C 
BRANCH  12  13
ATOM     13  C   LIG A   1      -3.754   5.904 132.423  0.00  0.00    +0.031 C 
BRANCH  13  14
ATOM     14  C   LIG A   1      -2.995   5.873 131.047  0.00  0.00    -0.028 C 
ATOM     15  C   LIG A   1      -3.057   6.684 129.934  0.00  0.00    -0.080 C 
ATOM     16  C   LIG A   1      -4.017   7.824 129.648  0.00  0.00    +0.038 C 
ATOM     17  C   LIG A   1      -2.072   6.618 128.747  0.00  0.00    +0.038 C 
ENDBRANCH  13  14
ENDBRANCH  12  13
ENDBRANCH  10  12
ENDBRANCH   8   9
ENDBRANCH   4   8
BRANCH   4  18
ATOM     18  C   LIG A   1      -9.398   4.920 130.126  0.00  0.00    +0.227 C 
BRANCH  18  19
ATOM     19  C   LIG A   1      -9.592   3.565 130.758  0.00  0.00    +0.009 C 
ATOM     20  C   LIG A   1      -8.979   2.373 131.057  0.00  0.00    -0.073 C 
ATOM     21  C   LIG A   1      -9.909   1.574 132.016  0.00  0.00    +0.038 C 
BRANCH  20  22
ATOM     22  C   LIG A   1      -7.622   1.593 130.878  0.00  0.00    +0.034 C 
BRANCH  22  23
ATOM     23  C   LIG A   1      -6.068   1.696 131.231  0.00  0.00    +0.031 C 
BRANCH  23  24
ATOM     24  C   LIG A   1      -4.888   2.155 130.344  0.00  0.00    -0.028 C 
ATOM     25  C   LIG A   1      -4.750   3.129 129.398  0.00  0.00    -0.080 C 
ATOM     26  C   LIG A   1      -5.725   4.240 129.091  0.00  0.00    +0.038 C 
ATOM     27  C   LIG A   1      -3.529   3.200 128.472  0.00  0.00    +0.038 C 
ENDBRANCH  23  24
ENDBRANCH  22  23
ENDBRANCH  20  22
ENDBRANCH  18  19
ENDBRANCH   4  18
TORSDOF 10
ENDMDL
