MODEL 1
REMARK VINA RESULT:      -7.4      0.000      0.000
REMARK  Name = NuBBE_178
REMARK  7 active torsions:
REMARK  status: ('A' for Active; 'I' for Inactive)
REMARK    1  A    between atoms: C_4  and  C_5
REMARK    2  A    between atoms: C_8  and  O_9
REMARK    3  A    between atoms: O_9  and  C_10
REMARK    4  A    between atoms: C_11  and  O_12
REMARK    5  A    between atoms: O_12  and  C_13
REMARK    6  A    between atoms: C_19  and  O_20
REMARK    7  A    between atoms: O_20  and  C_21
REMARK                            x       y       z     vdW  Elec       q    Type
REMARK                         _______ _______ _______ _____ _____    ______ ____
ROOT
ATOM      1  O   LIG A   1      -9.451   2.347 131.001  0.00  0.00    -0.287 OA
ATOM      2  C   LIG A   1      -9.538   3.481 131.457  0.00  0.00    +0.193 A 
ATOM      3  C   LIG A   1     -10.373   4.497 130.804  0.00  0.00    +0.098 A 
ATOM      4  C   LIG A   1     -10.456   5.723 131.342  0.00  0.00    +0.139 A 
ATOM      5  O   LIG A   1      -9.788   6.108 132.498  0.00  0.00    -0.455 OA
ATOM      6  C   LIG A   1      -8.812   3.900 132.663  0.00  0.00    +0.064 A 
ATOM      7  C   LIG A   1      -8.969   5.203 133.118  0.00  0.00    +0.143 A 
ATOM      8  C   LIG A   1      -8.279   5.632 134.250  0.00  0.00    +0.092 A 
ATOM      9  C   LIG A   1      -7.435   4.753 134.937  0.00  0.00    +0.124 A 
ATOM     10  C   LIG A   1      -7.287   3.442 134.476  0.00  0.00    +0.046 A 
ATOM     11  C   LIG A   1      -7.974   3.013 133.336  0.00  0.00    +0.019 A 
ENDROOT
BRANCH   4  12
ATOM     12  C   LIG A   1     -11.225   6.811 130.703  0.00  0.00    +0.021 A 
ATOM     13  C   LIG A   1     -12.350   7.394 131.291  0.00  0.00    +0.015 A 
ATOM     14  C   LIG A   1     -13.045   8.404 130.625  0.00  0.00    +0.050 A 
ATOM     15  C   LIG A   1     -12.635   8.866 129.365  0.00  0.00    +0.162 A 
ATOM     16  C   LIG A   1     -11.503   8.296 128.762  0.00  0.00    +0.162 A 
ATOM     17  C   LIG A   1     -10.812   7.286 129.447  0.00  0.00    +0.061 A 
BRANCH  15  18
ATOM     18  O   LIG A   1     -13.452   9.858 128.889  0.00  0.00    -0.491 OA
ATOM     19  C   LIG A   1     -13.553  11.065 129.630  0.00  0.00    +0.277 C 
ENDBRANCH  15  18
BRANCH  16  20
ATOM     20  O   LIG A   1     -11.119   8.732 127.521  0.00  0.00    -0.491 OA
ATOM     21  C   LIG A   1     -10.866   7.757 126.516  0.00  0.00    +0.277 C 
ENDBRANCH  16  20
ENDBRANCH   4  12
BRANCH   9  22
ATOM     22  O   LIG A   1      -6.821   5.289 136.034  0.00  0.00    -0.495 OA
ATOM     23  C   LIG A   1      -7.425   6.444 136.604  0.00  0.00    +0.277 C 
ENDBRANCH   9  22
TORSDOF 4
ENDMDL
MODEL 2
REMARK VINA RESULT:      -7.4      9.010      9.751
REMARK  Name = NuBBE_178
REMARK  7 active torsions:
REMARK  status: ('A' for Active; 'I' for Inactive)
REMARK    1  A    between atoms: C_4  and  C_5
REMARK    2  A    between atoms: C_8  and  O_9
REMARK    3  A    between atoms: O_9  and  C_10
REMARK    4  A    between atoms: C_11  and  O_12
REMARK    5  A    between atoms: O_12  and  C_13
REMARK    6  A    between atoms: C_19  and  O_20
REMARK    7  A    between atoms: O_20  and  C_21
REMARK                            x       y       z     vdW  Elec       q    Type
REMARK                         _______ _______ _______ _____ _____    ______ ____
ROOT
ATOM      1  O   LIG A   1      -9.683  -2.803 124.069  0.00  0.00    -0.287 OA
ATOM      2  C   LIG A   1      -9.009  -2.039 124.750  0.00  0.00    +0.193 A 
ATOM      3  C   LIG A   1      -8.487  -0.786 124.190  0.00  0.00    +0.098 A 
ATOM      4  C   LIG A   1      -7.767   0.032 124.971  0.00  0.00    +0.139 A 
ATOM      5  O   LIG A   1      -7.470  -0.231 126.303  0.00  0.00    -0.455 OA
ATOM      6  C   LIG A   1      -8.670  -2.327 126.149  0.00  0.00    +0.064 A 
ATOM      7  C   LIG A   1      -7.906  -1.406 126.854  0.00  0.00    +0.143 A 
ATOM      8  C   LIG A   1      -7.555  -1.662 128.179  0.00  0.00    +0.092 A 
ATOM      9  C   LIG A   1      -7.979  -2.838 128.805  0.00  0.00    +0.124 A 
ATOM     10  C   LIG A   1      -8.752  -3.758 128.091  0.00  0.00    +0.046 A 
ATOM     11  C   LIG A   1      -9.098  -3.505 126.760  0.00  0.00    +0.019 A 
ENDROOT
BRANCH   4  12
ATOM     12  C   LIG A   1      -7.157   1.276 124.455  0.00  0.00    +0.021 A 
ATOM     13  C   LIG A   1      -6.246   2.037 125.192  0.00  0.00    +0.015 A 
ATOM     14  C   LIG A   1      -5.721   3.214 124.656  0.00  0.00    +0.050 A 
ATOM     15  C   LIG A   1      -6.083   3.659 123.376  0.00  0.00    +0.162 A 
ATOM     16  C   LIG A   1      -6.993   2.904 122.619  0.00  0.00    +0.162 A 
ATOM     17  C   LIG A   1      -7.506   1.720 123.170  0.00  0.00    +0.061 A 
BRANCH  15  18
ATOM     18  O   LIG A   1      -5.457   4.831 123.041  0.00  0.00    -0.491 OA
ATOM     19  C   LIG A   1      -4.476   4.806 122.015  0.00  0.00    +0.277 C 
ENDBRANCH  15  18
BRANCH  16  20
ATOM     20  O   LIG A   1      -7.362   3.353 121.379  0.00  0.00    -0.491 OA
ATOM     21  C   LIG A   1      -8.749   3.541 121.119  0.00  0.00    +0.277 C 
ENDBRANCH  16  20
ENDBRANCH   4  12
BRANCH   9  22
ATOM     22  O   LIG A   1      -7.578  -2.972 130.105  0.00  0.00    -0.495 OA
ATOM     23  C   LIG A   1      -6.437  -3.790 130.340  0.00  0.00    +0.277 C 
ENDBRANCH   9  22
TORSDOF 4
ENDMDL
MODEL 3
REMARK VINA RESULT:      -7.3      8.796      9.740
REMARK  Name = NuBBE_178
REMARK  7 active torsions:
REMARK  status: ('A' for Active; 'I' for Inactive)
REMARK    1  A    between atoms: C_4  and  C_5
REMARK    2  A    between atoms: C_8  and  O_9
REMARK    3  A    between atoms: O_9  and  C_10
REMARK    4  A    between atoms: C_11  and  O_12
REMARK    5  A    between atoms: O_12  and  C_13
REMARK    6  A    between atoms: C_19  and  O_20
REMARK    7  A    between atoms: O_20  and  C_21
REMARK                            x       y       z     vdW  Elec       q    Type
REMARK                         _______ _______ _______ _____ _____    ______ ____
ROOT
ATOM      1  O   LIG A   1      -9.674  -2.883 124.175  0.00  0.00    -0.287 OA
ATOM      2  C   LIG A   1      -9.006  -2.107 124.847  0.00  0.00    +0.193 A 
ATOM      3  C   LIG A   1      -8.497  -0.855 124.274  0.00  0.00    +0.098 A 
ATOM      4  C   LIG A   1      -7.783  -0.022 125.045  0.00  0.00    +0.139 A 
ATOM      5  O   LIG A   1      -7.480  -0.271 126.379  0.00  0.00    -0.455 OA
ATOM      6  C   LIG A   1      -8.660  -2.379 126.248  0.00  0.00    +0.064 A 
ATOM      7  C   LIG A   1      -7.903  -1.444 126.942  0.00  0.00    +0.143 A 
ATOM      8  C   LIG A   1      -7.546  -1.684 128.268  0.00  0.00    +0.092 A 
ATOM      9  C   LIG A   1      -7.957  -2.858 128.907  0.00  0.00    +0.124 A 
ATOM     10  C   LIG A   1      -8.724  -3.791 128.203  0.00  0.00    +0.046 A 
ATOM     11  C   LIG A   1      -9.075  -3.554 126.871  0.00  0.00    +0.019 A 
ENDROOT
BRANCH   4  12
ATOM     12  C   LIG A   1      -7.185   1.222 124.516  0.00  0.00    +0.021 A 
ATOM     13  C   LIG A   1      -7.299   1.611 123.180  0.00  0.00    +0.015 A 
ATOM     14  C   LIG A   1      -6.693   2.788 122.738  0.00  0.00    +0.050 A 
ATOM     15  C   LIG A   1      -5.968   3.610 123.614  0.00  0.00    +0.162 A 
ATOM     16  C   LIG A   1      -5.848   3.237 124.962  0.00  0.00    +0.162 A 
ATOM     17  C   LIG A   1      -6.468   2.054 125.391  0.00  0.00    +0.061 A 
BRANCH  15  18
ATOM     18  O   LIG A   1      -5.456   4.713 122.982  0.00  0.00    -0.491 OA
ATOM     19  C   LIG A   1      -4.816   4.538 121.727  0.00  0.00    +0.277 C 
ENDBRANCH  15  18
BRANCH  16  20
ATOM     20  O   LIG A   1      -5.118   4.029 125.810  0.00  0.00    -0.491 OA
ATOM     21  C   LIG A   1      -3.841   3.563 126.230  0.00  0.00    +0.277 C 
ENDBRANCH  16  20
ENDBRANCH   4  12
BRANCH   9  22
ATOM     22  O   LIG A   1      -7.551  -2.976 130.207  0.00  0.00    -0.495 OA
ATOM     23  C   LIG A   1      -6.449  -3.841 130.456  0.00  0.00    +0.277 C 
ENDBRANCH   9  22
TORSDOF 4
ENDMDL
MODEL 4
REMARK VINA RESULT:      -7.2      4.238      7.494
REMARK  Name = NuBBE_178
REMARK  7 active torsions:
REMARK  status: ('A' for Active; 'I' for Inactive)
REMARK    1  A    between atoms: C_4  and  C_5
REMARK    2  A    between atoms: C_8  and  O_9
REMARK    3  A    between atoms: O_9  and  C_10
REMARK    4  A    between atoms: C_11  and  O_12
REMARK    5  A    between atoms: O_12  and  C_13
REMARK    6  A    between atoms: C_19  and  O_20
REMARK    7  A    between atoms: O_20  and  C_21
REMARK                            x       y       z     vdW  Elec       q    Type
REMARK                         _______ _______ _______ _____ _____    ______ ____
ROOT
ATOM      1  O   LIG A   1      -9.948   5.065 133.322  0.00  0.00    -0.287 OA
ATOM      2  C   LIG A   1      -9.344   5.700 132.466  0.00  0.00    +0.193 A 
ATOM      3  C   LIG A   1      -7.878   5.770 132.469  0.00  0.00    +0.098 A 
ATOM      4  C   LIG A   1      -7.252   6.461 131.506  0.00  0.00    +0.139 A 
ATOM      5  O   LIG A   1      -7.910   7.135 130.484  0.00  0.00    -0.455 OA
ATOM      6  C   LIG A   1     -10.037   6.436 131.401  0.00  0.00    +0.064 A 
ATOM      7  C   LIG A   1      -9.279   7.127 130.465  0.00  0.00    +0.143 A 
ATOM      8  C   LIG A   1      -9.911   7.847 129.452  0.00  0.00    +0.092 A 
ATOM      9  C   LIG A   1     -11.306   7.870 129.369  0.00  0.00    +0.124 A 
ATOM     10  C   LIG A   1     -12.062   7.167 130.312  0.00  0.00    +0.046 A 
ATOM     11  C   LIG A   1     -11.429   6.450 131.331  0.00  0.00    +0.019 A 
ENDROOT
BRANCH   4  12
ATOM     12  C   LIG A   1      -5.783   6.628 131.485  0.00  0.00    +0.021 A 
ATOM     13  C   LIG A   1      -4.968   6.318 132.576  0.00  0.00    +0.015 A 
ATOM     14  C   LIG A   1      -3.589   6.518 132.500  0.00  0.00    +0.050 A 
ATOM     15  C   LIG A   1      -2.987   7.023 131.337  0.00  0.00    +0.162 A 
ATOM     16  C   LIG A   1      -3.790   7.334 130.229  0.00  0.00    +0.162 A 
ATOM     17  C   LIG A   1      -5.174   7.121 130.320  0.00  0.00    +0.061 A 
BRANCH  15  18
ATOM     18  O   LIG A   1      -1.628   7.143 131.471  0.00  0.00    -0.491 OA
ATOM     19  C   LIG A   1      -1.065   7.059 132.771  0.00  0.00    +0.277 C 
ENDBRANCH  15  18
BRANCH  16  20
ATOM     20  O   LIG A   1      -3.202   7.850 129.104  0.00  0.00    -0.491 OA
ATOM     21  C   LIG A   1      -2.662   6.941 128.152  0.00  0.00    +0.277 C 
ENDBRANCH  16  20
ENDBRANCH   4  12
BRANCH   9  22
ATOM     22  O   LIG A   1     -11.807   8.604 128.331  0.00  0.00    -0.495 OA
ATOM     23  C   LIG A   1     -13.195   8.913 128.379  0.00  0.00    +0.277 C 
ENDBRANCH   9  22
TORSDOF 4
ENDMDL
MODEL 5
REMARK VINA RESULT:      -6.9      3.710      7.811
REMARK  Name = NuBBE_178
REMARK  7 active torsions:
REMARK  status: ('A' for Active; 'I' for Inactive)
REMARK    1  A    between atoms: C_4  and  C_5
REMARK    2  A    between atoms: C_8  and  O_9
REMARK    3  A    between atoms: O_9  and  C_10
REMARK    4  A    between atoms: C_11  and  O_12
REMARK    5  A    between atoms: O_12  and  C_13
REMARK    6  A    between atoms: C_19  and  O_20
REMARK    7  A    between atoms: O_20  and  C_21
REMARK                            x       y       z     vdW  Elec       q    Type
REMARK                         _______ _______ _______ _____ _____    ______ ____
ROOT
ATOM      1  O   LIG A   1     -10.195   5.001 133.101  0.00  0.00    -0.287 OA
ATOM      2  C   LIG A   1      -9.575   5.687 132.297  0.00  0.00    +0.193 A 
ATOM      3  C   LIG A   1      -8.114   5.805 132.372  0.00  0.00    +0.098 A 
ATOM      4  C   LIG A   1      -7.469   6.553 131.465  0.00  0.00    +0.139 A 
ATOM      5  O   LIG A   1      -8.102   7.244 130.439  0.00  0.00    -0.455 OA
ATOM      6  C   LIG A   1     -10.244   6.441 131.229  0.00  0.00    +0.064 A 
ATOM      7  C   LIG A   1      -9.468   7.192 130.356  0.00  0.00    +0.143 A 
ATOM      8  C   LIG A   1     -10.077   7.930 129.342  0.00  0.00    +0.092 A 
ATOM      9  C   LIG A   1     -11.468   7.910 129.195  0.00  0.00    +0.124 A 
ATOM     10  C   LIG A   1     -12.241   7.147 130.075  0.00  0.00    +0.046 A 
ATOM     11  C   LIG A   1     -11.631   6.413 131.095  0.00  0.00    +0.019 A 
ENDROOT
BRANCH   4  12
ATOM     12  C   LIG A   1      -6.007   6.768 131.519  0.00  0.00    +0.021 A 
ATOM     13  C   LIG A   1      -5.305   7.463 130.532  0.00  0.00    +0.015 A 
ATOM     14  C   LIG A   1      -3.921   7.614 130.631  0.00  0.00    +0.050 A 
ATOM     15  C   LIG A   1      -3.204   7.084 131.714  0.00  0.00    +0.162 A 
ATOM     16  C   LIG A   1      -3.894   6.387 132.718  0.00  0.00    +0.162 A 
ATOM     17  C   LIG A   1      -5.285   6.251 132.607  0.00  0.00    +0.061 A 
BRANCH  15  18
ATOM     18  O   LIG A   1      -1.861   7.343 131.620  0.00  0.00    -0.491 OA
ATOM     19  C   LIG A   1      -1.027   6.375 131.001  0.00  0.00    +0.277 C 
ENDBRANCH  15  18
BRANCH  16  20
ATOM     20  O   LIG A   1      -3.188   5.850 133.762  0.00  0.00    -0.491 OA
ATOM     21  C   LIG A   1      -3.012   4.439 133.798  0.00  0.00    +0.277 C 
ENDBRANCH  16  20
ENDBRANCH   4  12
BRANCH   9  22
ATOM     22  O   LIG A   1     -11.945   8.667 128.162  0.00  0.00    -0.495 OA
ATOM     23  C   LIG A   1     -13.360   8.760 128.041  0.00  0.00    +0.277 C 
ENDBRANCH   9  22
TORSDOF 4
ENDMDL
MODEL 6
REMARK VINA RESULT:      -6.8      7.613     11.614
REMARK  Name = NuBBE_178
REMARK  7 active torsions:
REMARK  status: ('A' for Active; 'I' for Inactive)
REMARK    1  A    between atoms: C_4  and  C_5
REMARK    2  A    between atoms: C_8  and  O_9
REMARK    3  A    between atoms: O_9  and  C_10
REMARK    4  A    between atoms: C_11  and  O_12
REMARK    5  A    between atoms: O_12  and  C_13
REMARK    6  A    between atoms: C_19  and  O_20
REMARK    7  A    between atoms: O_20  and  C_21
REMARK                            x       y       z     vdW  Elec       q    Type
REMARK                         _______ _______ _______ _____ _____    ______ ____
ROOT
ATOM      1  O   LIG A   1      -9.684  -2.349 123.365  0.00  0.00    -0.287 OA
ATOM      2  C   LIG A   1      -9.125  -1.734 124.265  0.00  0.00    +0.193 A 
ATOM      3  C   LIG A   1      -8.555  -2.437 125.421  0.00  0.00    +0.098 A 
ATOM      4  C   LIG A   1      -7.937  -1.730 126.379  0.00  0.00    +0.139 A 
ATOM      5  O   LIG A   1      -7.799  -0.348 126.355  0.00  0.00    -0.455 OA
ATOM      6  C   LIG A   1      -9.003  -0.271 124.257  0.00  0.00    +0.064 A 
ATOM      7  C   LIG A   1      -8.350   0.350 125.314  0.00  0.00    +0.143 A 
ATOM      8  C   LIG A   1      -8.234   1.739 125.340  0.00  0.00    +0.092 A 
ATOM      9  C   LIG A   1      -8.764   2.510 124.300  0.00  0.00    +0.124 A 
ATOM     10  C   LIG A   1      -9.414   1.877 123.238  0.00  0.00    +0.046 A 
ATOM     11  C   LIG A   1      -9.537   0.485 123.215  0.00  0.00    +0.019 A 
ENDROOT
BRANCH   4  12
ATOM     12  C   LIG A   1      -7.398  -2.365 127.600  0.00  0.00    +0.021 A 
ATOM     13  C   LIG A   1      -8.189  -3.096 128.489  0.00  0.00    +0.015 A 
ATOM     14  C   LIG A   1      -7.623  -3.652 129.637  0.00  0.00    +0.050 A 
ATOM     15  C   LIG A   1      -6.258  -3.504 129.924  0.00  0.00    +0.162 A 
ATOM     16  C   LIG A   1      -5.446  -2.778 129.039  0.00  0.00    +0.162 A 
ATOM     17  C   LIG A   1      -6.030  -2.230 127.887  0.00  0.00    +0.061 A 
BRANCH  15  18
ATOM     18  O   LIG A   1      -5.906  -4.125 131.094  0.00  0.00    -0.491 OA
ATOM     19  C   LIG A   1      -6.301  -3.531 132.321  0.00  0.00    +0.277 C 
ENDBRANCH  15  18
BRANCH  16  20
ATOM     20  O   LIG A   1      -4.118  -2.613 129.334  0.00  0.00    -0.491 OA
ATOM     21  C   LIG A   1      -3.239  -3.708 129.105  0.00  0.00    +0.277 C 
ENDBRANCH  16  20
ENDBRANCH   4  12
BRANCH   9  22
ATOM     22  O   LIG A   1      -8.580   3.858 124.436  0.00  0.00    -0.495 OA
ATOM     23  C   LIG A   1      -7.998   4.303 125.655  0.00  0.00    +0.277 C 
ENDBRANCH   9  22
TORSDOF 4
ENDMDL
MODEL 7
REMARK VINA RESULT:      -6.7      9.645     10.287
REMARK  Name = NuBBE_178
REMARK  7 active torsions:
REMARK  status: ('A' for Active; 'I' for Inactive)
REMARK    1  A    between atoms: C_4  and  C_5
REMARK    2  A    between atoms: C_8  and  O_9
REMARK    3  A    between atoms: O_9  and  C_10
REMARK    4  A    between atoms: C_11  and  O_12
REMARK    5  A    between atoms: O_12  and  C_13
REMARK    6  A    between atoms: C_19  and  O_20
REMARK    7  A    between atoms: O_20  and  C_21
REMARK                            x       y       z     vdW  Elec       q    Type
REMARK                         _______ _______ _______ _____ _____    ______ ____
ROOT
ATOM      1  O   LIG A   1      -3.526  -3.778 131.155  0.00  0.00    -0.287 OA
ATOM      2  C   LIG A   1      -4.727  -3.543 131.118  0.00  0.00    +0.193 A 
ATOM      3  C   LIG A   1      -5.442  -3.451 129.838  0.00  0.00    +0.098 A 
ATOM      4  C   LIG A   1      -6.760  -3.209 129.839  0.00  0.00    +0.139 A 
ATOM      5  O   LIG A   1      -7.515  -3.030 130.992  0.00  0.00    -0.455 OA
ATOM      6  C   LIG A   1      -5.522  -3.327 132.333  0.00  0.00    +0.064 A 
ATOM      7  C   LIG A   1      -6.882  -3.071 132.205  0.00  0.00    +0.143 A 
ATOM      8  C   LIG A   1      -7.657  -2.845 133.341  0.00  0.00    +0.092 A 
ATOM      9  C   LIG A   1      -7.074  -2.885 134.612  0.00  0.00    +0.124 A 
ATOM     10  C   LIG A   1      -5.706  -3.149 134.733  0.00  0.00    +0.046 A 
ATOM     11  C   LIG A   1      -4.927  -3.368 133.593  0.00  0.00    +0.019 A 
ENDROOT
BRANCH   4  12
ATOM     12  C   LIG A   1      -7.529  -3.038 128.588  0.00  0.00    +0.021 A 
ATOM     13  C   LIG A   1      -8.651  -3.808 128.275  0.00  0.00    +0.015 A 
ATOM     14  C   LIG A   1      -9.321  -3.613 127.067  0.00  0.00    +0.050 A 
ATOM     15  C   LIG A   1      -8.898  -2.644 126.145  0.00  0.00    +0.162 A 
ATOM     16  C   LIG A   1      -7.775  -1.857 126.444  0.00  0.00    +0.162 A 
ATOM     17  C   LIG A   1      -7.117  -2.062 127.666  0.00  0.00    +0.061 A 
BRANCH  15  18
ATOM     18  O   LIG A   1      -9.691  -2.614 125.027  0.00  0.00    -0.491 OA
ATOM     19  C   LIG A   1      -9.262  -3.322 123.874  0.00  0.00    +0.277 C 
ENDBRANCH  15  18
BRANCH  16  20
ATOM     20  O   LIG A   1      -7.349  -0.928 125.532  0.00  0.00    -0.491 OA
ATOM     21  C   LIG A   1      -6.201  -1.235 124.749  0.00  0.00    +0.277 C 
ENDBRANCH  16  20
ENDBRANCH   4  12
BRANCH   9  22
ATOM     22  O   LIG A   1      -7.938  -2.656 135.646  0.00  0.00    -0.495 OA
ATOM     23  C   LIG A   1      -8.560  -3.798 136.223  0.00  0.00    +0.277 C 
ENDBRANCH   9  22
TORSDOF 4
ENDMDL
MODEL 8
REMARK VINA RESULT:      -6.7      4.592      7.699
REMARK  Name = NuBBE_178
REMARK  7 active torsions:
REMARK  status: ('A' for Active; 'I' for Inactive)
REMARK    1  A    between atoms: C_4  and  C_5
REMARK    2  A    between atoms: C_8  and  O_9
REMARK    3  A    between atoms: O_9  and  C_10
REMARK    4  A    between atoms: C_11  and  O_12
REMARK    5  A    between atoms: O_12  and  C_13
REMARK    6  A    between atoms: C_19  and  O_20
REMARK    7  A    between atoms: O_20  and  C_21
REMARK                            x       y       z     vdW  Elec       q    Type
REMARK                         _______ _______ _______ _____ _____    ______ ____
ROOT
ATOM      1  O   LIG A   1      -6.065   5.330 129.559  0.00  0.00    -0.287 OA
ATOM      2  C   LIG A   1      -7.078   4.647 129.476  0.00  0.00    +0.193 A 
ATOM      3  C   LIG A   1      -7.069   3.363 128.764  0.00  0.00    +0.098 A 
ATOM      4  C   LIG A   1      -8.194   2.636 128.707  0.00  0.00    +0.139 A 
ATOM      5  O   LIG A   1      -9.397   3.024 129.285  0.00  0.00    -0.455 OA
ATOM      6  C   LIG A   1      -8.358   5.067 130.060  0.00  0.00    +0.064 A 
ATOM      7  C   LIG A   1      -9.460   4.232 129.925  0.00  0.00    +0.143 A 
ATOM      8  C   LIG A   1     -10.691   4.614 130.456  0.00  0.00    +0.092 A 
ATOM      9  C   LIG A   1     -10.820   5.830 131.134  0.00  0.00    +0.124 A 
ATOM     10  C   LIG A   1      -9.705   6.662 131.270  0.00  0.00    +0.046 A 
ATOM     11  C   LIG A   1      -8.472   6.283 130.731  0.00  0.00    +0.019 A 
ENDROOT
BRANCH   4  12
ATOM     12  C   LIG A   1      -8.273   1.367 127.953  0.00  0.00    +0.021 A 
ATOM     13  C   LIG A   1      -7.659   0.188 128.383  0.00  0.00    +0.015 A 
ATOM     14  C   LIG A   1      -7.754  -0.972 127.614  0.00  0.00    +0.050 A 
ATOM     15  C   LIG A   1      -8.466  -0.993 126.406  0.00  0.00    +0.162 A 
ATOM     16  C   LIG A   1      -9.095   0.181 125.961  0.00  0.00    +0.162 A 
ATOM     17  C   LIG A   1      -8.995   1.337 126.749  0.00  0.00    +0.061 A 
BRANCH  15  18
ATOM     18  O   LIG A   1      -8.436  -2.226 125.809  0.00  0.00    -0.491 OA
ATOM     19  C   LIG A   1      -8.760  -3.365 126.593  0.00  0.00    +0.277 C 
ENDBRANCH  15  18
BRANCH  16  20
ATOM     20  O   LIG A   1      -9.769   0.165 124.769  0.00  0.00    -0.491 OA
ATOM     21  C   LIG A   1     -10.103   1.412 124.170  0.00  0.00    +0.277 C 
ENDBRANCH  16  20
ENDBRANCH   4  12
BRANCH   9  22
ATOM     22  O   LIG A   1     -12.073   6.089 131.614  0.00  0.00    -0.495 OA
ATOM     23  C   LIG A   1     -12.742   7.222 131.073  0.00  0.00    +0.277 C 
ENDBRANCH   9  22
TORSDOF 4
ENDMDL
MODEL 9
REMARK VINA RESULT:      -6.6      8.695      9.953
REMARK  Name = NuBBE_178
REMARK  7 active torsions:
REMARK  status: ('A' for Active; 'I' for Inactive)
REMARK    1  A    between atoms: C_4  and  C_5
REMARK    2  A    between atoms: C_8  and  O_9
REMARK    3  A    between atoms: O_9  and  C_10
REMARK    4  A    between atoms: C_11  and  O_12
REMARK    5  A    between atoms: O_12  and  C_13
REMARK    6  A    between atoms: C_19  and  O_20
REMARK    7  A    between atoms: O_20  and  C_21
REMARK                            x       y       z     vdW  Elec       q    Type
REMARK                         _______ _______ _______ _____ _____    ______ ____
ROOT
ATOM      1  O   LIG A   1      -3.150  -3.421 129.160  0.00  0.00    -0.287 OA
ATOM      2  C   LIG A   1      -4.337  -3.193 129.362  0.00  0.00    +0.193 A 
ATOM      3  C   LIG A   1      -5.183  -2.603 128.318  0.00  0.00    +0.098 A 
ATOM      4  C   LIG A   1      -6.481  -2.384 128.571  0.00  0.00    +0.139 A 
ATOM      5  O   LIG A   1      -7.094  -2.677 129.783  0.00  0.00    -0.455 OA
ATOM      6  C   LIG A   1      -4.981  -3.476 130.651  0.00  0.00    +0.064 A 
ATOM      7  C   LIG A   1      -6.333  -3.193 130.798  0.00  0.00    +0.143 A 
ATOM      8  C   LIG A   1      -6.966  -3.436 132.015  0.00  0.00    +0.092 A 
ATOM      9  C   LIG A   1      -6.249  -3.974 133.088  0.00  0.00    +0.124 A 
ATOM     10  C   LIG A   1      -4.889  -4.261 132.931  0.00  0.00    +0.046 A 
ATOM     11  C   LIG A   1      -4.252  -4.010 131.712  0.00  0.00    +0.019 A 
ENDROOT
BRANCH   4  12
ATOM     12  C   LIG A   1      -7.375  -1.735 127.589  0.00  0.00    +0.021 A 
ATOM     13  C   LIG A   1      -7.500  -0.348 127.476  0.00  0.00    +0.015 A 
ATOM     14  C   LIG A   1      -8.378   0.203 126.542  0.00  0.00    +0.050 A 
ATOM     15  C   LIG A   1      -9.147  -0.609 125.695  0.00  0.00    +0.162 A 
ATOM     16  C   LIG A   1      -9.031  -2.004 125.791  0.00  0.00    +0.162 A 
ATOM     17  C   LIG A   1      -8.139  -2.541 126.731  0.00  0.00    +0.061 A 
BRANCH  15  18
ATOM     18  O   LIG A   1      -9.942   0.128 124.855  0.00  0.00    -0.491 OA
ATOM     19  C   LIG A   1      -9.384   0.604 123.640  0.00  0.00    +0.277 C 
ENDBRANCH  15  18
BRANCH  16  20
ATOM     20  O   LIG A   1      -9.801  -2.795 124.979  0.00  0.00    -0.491 OA
ATOM     21  C   LIG A   1      -9.262  -3.195 123.725  0.00  0.00    +0.277 C 
ENDBRANCH  16  20
ENDBRANCH   4  12
BRANCH   9  22
ATOM     22  O   LIG A   1      -6.981  -4.173 134.225  0.00  0.00    -0.495 OA
ATOM     23  C   LIG A   1      -8.197  -3.444 134.337  0.00  0.00    +0.277 C 
ENDBRANCH   9  22
TORSDOF 4
ENDMDL
