MODEL 1
REMARK VINA RESULT:      -8.4      0.000      0.000
REMARK  Name = NuBBE_60
REMARK  16 active torsions:
REMARK  status: ('A' for Active; 'I' for Inactive)
REMARK    1  A    between atoms: O_1  and  C_2
REMARK    2  A    between atoms: C_6  and  O_15
REMARK    3  A    between atoms: C_9  and  O_11
REMARK    4  A    between atoms: O_11  and  C_12
REMARK    5  A    between atoms: C_12  and  C_13
REMARK    6  A    between atoms: O_15  and  C_16
REMARK    7  A    between atoms: C_16  and  C_17
REMARK    8  A    between atoms: C_20  and  O_22
REMARK    9  A    between atoms: O_22  and  C_23
REMARK   10  A    between atoms: C_23  and  C_24
REMARK   11  A    between atoms: C_32  and  C_34
REMARK   12  A    between atoms: C_35  and  C_36
REMARK   13  A    between atoms: C_35  and  C_37
REMARK   14  A    between atoms: C_37  and  C_38
REMARK   15  A    between atoms: C_39  and  C_40
REMARK   16  A    between atoms: C_39  and  C_41
REMARK                            x       y       z     vdW  Elec       q    Type
REMARK                         _______ _______ _______ _____ _____    ______ ____
ROOT
ATOM      1  C   LIG A   1      -4.074   2.019 131.837  0.00  0.00    +0.138 C 
ATOM      2  C   LIG A   1      -5.380   2.136 132.537  0.00  0.00    +0.010 C 
ATOM      3  C   LIG A   1      -6.410   2.852 132.059  0.00  0.00    +0.012 C 
ATOM      4  C   LIG A   1      -7.868   2.528 132.298  0.00  0.00    +0.343 C 
ATOM      5  O   LIG A   1      -8.450   2.636 130.977  0.00  0.00    -0.297 OA
ATOM      6  C   LIG A   1      -7.350   2.855 130.078  0.00  0.00    +0.328 C 
ATOM      7  C   LIG A   1      -6.358   3.787 130.849  0.00  0.00    +0.100 C 
ATOM      8  C   LIG A   1      -6.973   5.186 131.298  0.00  0.00    +0.194 C 
ATOM      9  C   LIG A   1      -6.194   6.403 130.800  0.00  0.00    +0.049 C 
ATOM     10  C   LIG A   1      -4.726   6.221 131.203  0.00  0.00    -0.004 C 
ATOM     11  C   LIG A   1      -4.019   7.572 131.384  0.00  0.00    +0.008 C 
ATOM     12  C   LIG A   1      -4.006   5.179 130.281  0.00  0.00    -0.022 C 
ATOM     13  C   LIG A   1      -2.601   4.950 130.901  0.00  0.00    +0.012 C 
ATOM     14  C   LIG A   1      -4.918   3.851 130.155  0.00  0.00    +0.018 C 
ATOM     15  C   LIG A   1      -4.132   2.523 130.382  0.00  0.00    +0.040 C 
ENDROOT
BRANCH   1  16
ATOM     16  O   LIG A   1      -3.108   2.645 132.647  0.00  0.00    -0.388 OA
ATOM     17  H   LIG A   1      -3.566   3.290 133.212  0.00  0.00    +0.210 HD
ENDBRANCH   1  16
BRANCH   6  18
ATOM     18  O   LIG A   1      -7.734   3.302 128.780  0.00  0.00    -0.434 OA
BRANCH  18  19
ATOM     19  C   LIG A   1      -7.897   2.267 127.922  0.00  0.00    +0.306 C 
ATOM     20  C   LIG A   1      -6.677   1.407 127.865  0.00  0.00    +0.136 C 
ATOM     21  O   LIG A   1      -8.938   1.966 127.316  0.00  0.00    -0.251 OA
ENDBRANCH  18  19
ENDBRANCH   6  18
BRANCH   4  22
ATOM     22  O   LIG A   1      -8.058   1.194 132.753  0.00  0.00    -0.431 OA
BRANCH  22  23
ATOM     23  C   LIG A   1      -8.919   0.471 131.993  0.00  0.00    +0.306 C 
ATOM     24  C   LIG A   1      -8.188  -0.567 131.198  0.00  0.00    +0.136 C 
ATOM     25  O   LIG A   1     -10.126   0.626 131.940  0.00  0.00    -0.251 OA
ENDBRANCH  22  23
ENDBRANCH   4  22
BRANCH   8  26
ATOM     26  O   LIG A   1      -8.399   5.330 131.018  0.00  0.00    -0.457 OA
BRANCH  26  27
ATOM     27  C   LIG A   1      -9.139   6.084 131.885  0.00  0.00    +0.340 C 
ATOM     28  O   LIG A   1      -8.972   6.192 133.089  0.00  0.00    -0.245 OA
BRANCH  27  29
ATOM     29  C   LIG A   1     -10.334   6.665 131.168  0.00  0.00    +0.059 A 
ATOM     30  C   LIG A   1     -11.610   6.605 131.745  0.00  0.00    +0.015 A 
ATOM     31  C   LIG A   1     -12.695   7.236 131.131  0.00  0.00    +0.001 A 
ATOM     32  C   LIG A   1     -12.530   7.918 129.927  0.00  0.00    +0.000 A 
ATOM     33  C   LIG A   1     -11.275   7.953 129.318  0.00  0.00    +0.001 A 
ATOM     34  C   LIG A   1     -10.180   7.331 129.930  0.00  0.00    +0.015 A 
ENDBRANCH  27  29
ENDBRANCH  26  27
ENDBRANCH   8  26
BRANCH  12  35
ATOM     35  C   LIG A   1      -3.721   5.771 128.829  0.00  0.00    +0.034 C 
BRANCH  35  36
ATOM     36  C   LIG A   1      -4.285   4.985 127.654  0.00  0.00    -0.023 C 
ATOM     37  C   LIG A   1      -3.663   4.083 126.863  0.00  0.00    -0.055 C 
ATOM     38  C   LIG A   1      -2.244   3.605 127.011  0.00  0.00    +0.043 C 
BRANCH  37  39
ATOM     39  C   LIG A   1      -4.404   3.453 125.780  0.00  0.00    -0.005 C 
ATOM     40  C   LIG A   1      -5.157   4.123 124.899  0.00  0.00    +0.008 C 
ENDBRANCH  37  39
ENDBRANCH  35  36
ENDBRANCH  12  35
TORSDOF 11
ENDMDL
MODEL 2
REMARK VINA RESULT:      -8.2      2.204      4.905
REMARK  Name = NuBBE_60
REMARK  16 active torsions:
REMARK  status: ('A' for Active; 'I' for Inactive)
REMARK    1  A    between atoms: O_1  and  C_2
REMARK    2  A    between atoms: C_6  and  O_15
REMARK    3  A    between atoms: C_9  and  O_11
REMARK    4  A    between atoms: O_11  and  C_12
REMARK    5  A    between atoms: C_12  and  C_13
REMARK    6  A    between atoms: O_15  and  C_16
REMARK    7  A    between atoms: C_16  and  C_17
REMARK    8  A    between atoms: C_20  and  O_22
REMARK    9  A    between atoms: O_22  and  C_23
REMARK   10  A    between atoms: C_23  and  C_24
REMARK   11  A    between atoms: C_32  and  C_34
REMARK   12  A    between atoms: C_35  and  C_36
REMARK   13  A    between atoms: C_35  and  C_37
REMARK   14  A    between atoms: C_37  and  C_38
REMARK   15  A    between atoms: C_39  and  C_40
REMARK   16  A    between atoms: C_39  and  C_41
REMARK                            x       y       z     vdW  Elec       q    Type
REMARK                         _______ _______ _______ _____ _____    ______ ____
ROOT
ATOM      1  C   LIG A   1      -3.282   4.031 126.837  0.00  0.00    +0.138 C 
ATOM      2  C   LIG A   1      -3.492   2.622 127.262  0.00  0.00    +0.010 C 
ATOM      3  C   LIG A   1      -4.213   2.279 128.341  0.00  0.00    +0.012 C 
ATOM      4  C   LIG A   1      -4.999   0.993 128.477  0.00  0.00    +0.343 C 
ATOM      5  O   LIG A   1      -6.281   1.442 128.976  0.00  0.00    -0.297 OA
ATOM      6  C   LIG A   1      -6.228   2.879 128.963  0.00  0.00    +0.328 C 
ATOM      7  C   LIG A   1      -4.768   3.248 129.386  0.00  0.00    +0.100 C 
ATOM      8  C   LIG A   1      -4.335   2.707 130.820  0.00  0.00    +0.194 C 
ATOM      9  C   LIG A   1      -3.845   3.792 131.779  0.00  0.00    +0.049 C 
ATOM     10  C   LIG A   1      -2.745   4.589 131.066  0.00  0.00    -0.004 C 
ATOM     11  C   LIG A   1      -1.750   5.196 132.065  0.00  0.00    +0.008 C 
ATOM     12  C   LIG A   1      -3.348   5.571 130.005  0.00  0.00    -0.022 C 
ATOM     13  C   LIG A   1      -2.142   6.172 129.236  0.00  0.00    +0.012 C 
ATOM     14  C   LIG A   1      -4.416   4.779 129.085  0.00  0.00    +0.018 C 
ATOM     15  C   LIG A   1      -4.225   5.016 127.554  0.00  0.00    +0.040 C 
ENDROOT
BRANCH   1  16
ATOM     16  O   LIG A   1      -1.909   4.310 126.977  0.00  0.00    -0.388 OA
ATOM     17  H   LIG A   1      -1.440   3.462 127.053  0.00  0.00    +0.210 HD
ENDBRANCH   1  16
BRANCH   6  18
ATOM     18  O   LIG A   1      -7.266   3.510 129.709  0.00  0.00    -0.434 OA
BRANCH  18  19
ATOM     19  C   LIG A   1      -8.316   3.846 128.921  0.00  0.00    +0.306 C 
ATOM     20  C   LIG A   1      -7.870   4.217 127.545  0.00  0.00    +0.136 C 
ATOM     21  O   LIG A   1      -9.518   3.772 129.222  0.00  0.00    -0.251 OA
ENDBRANCH  18  19
ENDBRANCH   6  18
BRANCH   4  22
ATOM     22  O   LIG A   1      -5.214   0.355 127.224  0.00  0.00    -0.431 OA
BRANCH  22  23
ATOM     23  C   LIG A   1      -5.942  -0.786 127.307  0.00  0.00    +0.306 C 
ATOM     24  C   LIG A   1      -5.196  -1.843 128.062  0.00  0.00    +0.136 C 
ATOM     25  O   LIG A   1      -7.053  -0.959 126.837  0.00  0.00    -0.251 OA
ENDBRANCH  22  23
ENDBRANCH   4  22
BRANCH   8  26
ATOM     26  O   LIG A   1      -5.331   1.854 131.464  0.00  0.00    -0.457 OA
BRANCH  26  27
ATOM     27  C   LIG A   1      -5.455   1.944 132.822  0.00  0.00    +0.340 C 
ATOM     28  O   LIG A   1      -4.652   1.562 133.658  0.00  0.00    -0.245 OA
BRANCH  27  29
ATOM     29  C   LIG A   1      -6.833   2.448 133.179  0.00  0.00    +0.059 A 
ATOM     30  C   LIG A   1      -7.006   3.371 134.218  0.00  0.00    +0.015 A 
ATOM     31  C   LIG A   1      -8.266   3.917 134.478  0.00  0.00    +0.001 A 
ATOM     32  C   LIG A   1      -9.373   3.538 133.720  0.00  0.00    +0.000 A 
ATOM     33  C   LIG A   1      -9.225   2.589 132.708  0.00  0.00    +0.001 A 
ATOM     34  C   LIG A   1      -7.965   2.043 132.435  0.00  0.00    +0.015 A 
ENDBRANCH  27  29
ENDBRANCH  26  27
ENDBRANCH   8  26
BRANCH  12  35
ATOM     35  C   LIG A   1      -4.060   6.820 130.692  0.00  0.00    +0.034 C 
BRANCH  35  36
ATOM     36  C   LIG A   1      -5.574   6.747 130.832  0.00  0.00    -0.023 C 
ATOM     37  C   LIG A   1      -6.309   6.442 131.925  0.00  0.00    -0.055 C 
ATOM     38  C   LIG A   1      -5.773   6.149 133.300  0.00  0.00    +0.043 C 
BRANCH  37  39
ATOM     39  C   LIG A   1      -7.761   6.425 131.824  0.00  0.00    -0.005 C 
ATOM     40  C   LIG A   1      -8.447   6.949 130.802  0.00  0.00    +0.008 C 
ENDBRANCH  37  39
ENDBRANCH  35  36
ENDBRANCH  12  35
TORSDOF 11
ENDMDL
MODEL 3
REMARK VINA RESULT:      -8.2      1.949      5.781
REMARK  Name = NuBBE_60
REMARK  16 active torsions:
REMARK  status: ('A' for Active; 'I' for Inactive)
REMARK    1  A    between atoms: O_1  and  C_2
REMARK    2  A    between atoms: C_6  and  O_15
REMARK    3  A    between atoms: C_9  and  O_11
REMARK    4  A    between atoms: O_11  and  C_12
REMARK    5  A    between atoms: C_12  and  C_13
REMARK    6  A    between atoms: O_15  and  C_16
REMARK    7  A    between atoms: C_16  and  C_17
REMARK    8  A    between atoms: C_20  and  O_22
REMARK    9  A    between atoms: O_22  and  C_23
REMARK   10  A    between atoms: C_23  and  C_24
REMARK   11  A    between atoms: C_32  and  C_34
REMARK   12  A    between atoms: C_35  and  C_36
REMARK   13  A    between atoms: C_35  and  C_37
REMARK   14  A    between atoms: C_37  and  C_38
REMARK   15  A    between atoms: C_39  and  C_40
REMARK   16  A    between atoms: C_39  and  C_41
REMARK                            x       y       z     vdW  Elec       q    Type
REMARK                         _______ _______ _______ _____ _____    ______ ____
ROOT
ATOM      1  C   LIG A   1      -8.775   4.621 134.024  0.00  0.00    +0.138 C 
ATOM      2  C   LIG A   1      -8.721   5.844 133.180  0.00  0.00    +0.010 C 
ATOM      3  C   LIG A   1      -8.007   5.926 132.047  0.00  0.00    +0.012 C 
ATOM      4  C   LIG A   1      -8.375   6.785 130.858  0.00  0.00    +0.343 C 
ATOM      5  O   LIG A   1      -8.218   5.882 129.738  0.00  0.00    -0.297 OA
ATOM      6  C   LIG A   1      -7.931   4.594 130.307  0.00  0.00    +0.328 C 
ATOM      7  C   LIG A   1      -7.015   4.877 131.543  0.00  0.00    +0.100 C 
ATOM      8  C   LIG A   1      -5.653   5.629 131.202  0.00  0.00    +0.194 C 
ATOM      9  C   LIG A   1      -4.396   4.896 131.669  0.00  0.00    +0.049 C 
ATOM     10  C   LIG A   1      -4.564   4.576 133.160  0.00  0.00    -0.004 C 
ATOM     11  C   LIG A   1      -3.207   4.486 133.874  0.00  0.00    +0.008 C 
ATOM     12  C   LIG A   1      -5.543   3.374 133.379  0.00  0.00    -0.022 C 
ATOM     13  C   LIG A   1      -5.769   3.273 134.912  0.00  0.00    +0.012 C 
ATOM     14  C   LIG A   1      -6.885   3.607 132.508  0.00  0.00    +0.018 C 
ATOM     15  C   LIG A   1      -8.204   3.381 133.310  0.00  0.00    +0.040 C 
ENDROOT
BRANCH   1  16
ATOM     16  O   LIG A   1      -8.166   4.934 135.254  0.00  0.00    -0.388 OA
ATOM     17  H   LIG A   1      -8.453   4.272 135.905  0.00  0.00    +0.210 HD
ENDBRANCH   1  16
BRANCH   6  18
ATOM     18  O   LIG A   1      -7.432   3.639 129.374  0.00  0.00    -0.434 OA
BRANCH  18  19
ATOM     19  C   LIG A   1      -8.418   2.841 128.898  0.00  0.00    +0.306 C 
ATOM     20  C   LIG A   1      -9.474   2.604 129.928  0.00  0.00    +0.136 C 
ATOM     21  O   LIG A   1      -8.532   2.420 127.736  0.00  0.00    -0.251 OA
ENDBRANCH  18  19
ENDBRANCH   6  18
BRANCH   4  22
ATOM     22  O   LIG A   1      -9.733   7.206 130.895  0.00  0.00    -0.431 OA
BRANCH  22  23
ATOM     23  C   LIG A   1     -10.247   7.512 129.677  0.00  0.00    +0.306 C 
ATOM     24  C   LIG A   1     -11.502   6.739 129.416  0.00  0.00    +0.136 C 
ATOM     25  O   LIG A   1      -9.771   8.301 128.880  0.00  0.00    -0.251 OA
ENDBRANCH  22  23
ENDBRANCH   4  22
BRANCH   8  26
ATOM     26  O   LIG A   1      -5.528   6.038 129.805  0.00  0.00    -0.457 OA
BRANCH  26  27
ATOM     27  C   LIG A   1      -4.270   6.261 129.322  0.00  0.00    +0.340 C 
ATOM     28  O   LIG A   1      -3.567   7.237 129.533  0.00  0.00    -0.245 OA
BRANCH  27  29
ATOM     29  C   LIG A   1      -3.902   5.184 128.330  0.00  0.00    +0.059 A 
ATOM     30  C   LIG A   1      -4.819   4.775 127.352  0.00  0.00    +0.015 A 
ATOM     31  C   LIG A   1      -4.442   3.856 126.369  0.00  0.00    +0.001 A 
ATOM     32  C   LIG A   1      -3.156   3.318 126.357  0.00  0.00    +0.000 A 
ATOM     33  C   LIG A   1      -2.244   3.684 127.348  0.00  0.00    +0.001 A 
ATOM     34  C   LIG A   1      -2.610   4.611 128.332  0.00  0.00    +0.015 A 
ENDBRANCH  27  29
ENDBRANCH  26  27
ENDBRANCH   8  26
BRANCH  12  35
ATOM     35  C   LIG A   1      -4.877   1.985 132.971  0.00  0.00    +0.034 C 
BRANCH  35  36
ATOM     36  C   LIG A   1      -5.628   1.147 131.946  0.00  0.00    -0.023 C 
ATOM     37  C   LIG A   1      -5.397   1.025 130.620  0.00  0.00    -0.055 C 
ATOM     38  C   LIG A   1      -4.276   1.673 129.853  0.00  0.00    +0.043 C 
BRANCH  37  39
ATOM     39  C   LIG A   1      -6.258   0.163 129.823  0.00  0.00    -0.005 C 
ATOM     40  C   LIG A   1      -7.326  -0.483 130.307  0.00  0.00    +0.008 C 
ENDBRANCH  37  39
ENDBRANCH  35  36
ENDBRANCH  12  35
TORSDOF 11
ENDMDL
MODEL 4
REMARK VINA RESULT:      -8.2      3.201      7.492
REMARK  Name = NuBBE_60
REMARK  16 active torsions:
REMARK  status: ('A' for Active; 'I' for Inactive)
REMARK    1  A    between atoms: O_1  and  C_2
REMARK    2  A    between atoms: C_6  and  O_15
REMARK    3  A    between atoms: C_9  and  O_11
REMARK    4  A    between atoms: O_11  and  C_12
REMARK    5  A    between atoms: C_12  and  C_13
REMARK    6  A    between atoms: O_15  and  C_16
REMARK    7  A    between atoms: C_16  and  C_17
REMARK    8  A    between atoms: C_20  and  O_22
REMARK    9  A    between atoms: O_22  and  C_23
REMARK   10  A    between atoms: C_23  and  C_24
REMARK   11  A    between atoms: C_32  and  C_34
REMARK   12  A    between atoms: C_35  and  C_36
REMARK   13  A    between atoms: C_35  and  C_37
REMARK   14  A    between atoms: C_37  and  C_38
REMARK   15  A    between atoms: C_39  and  C_40
REMARK   16  A    between atoms: C_39  and  C_41
REMARK                            x       y       z     vdW  Elec       q    Type
REMARK                         _______ _______ _______ _____ _____    ______ ____
ROOT
ATOM      1  C   LIG A   1      -4.590   1.241 130.131  0.00  0.00    +0.138 C 
ATOM      2  C   LIG A   1      -4.052   2.436 129.428  0.00  0.00    +0.010 C 
ATOM      3  C   LIG A   1      -4.706   3.066 128.440  0.00  0.00    +0.012 C 
ATOM      4  C   LIG A   1      -4.600   4.545 128.141  0.00  0.00    +0.343 C 
ATOM      5  O   LIG A   1      -5.980   4.950 127.991  0.00  0.00    -0.297 OA
ATOM      6  C   LIG A   1      -6.770   3.799 128.332  0.00  0.00    +0.328 C 
ATOM      7  C   LIG A   1      -5.986   2.571 127.763  0.00  0.00    +0.100 C 
ATOM      8  C   LIG A   1      -5.743   2.608 126.190  0.00  0.00    +0.194 C 
ATOM      9  C   LIG A   1      -6.265   1.381 125.444  0.00  0.00    +0.049 C 
ATOM     10  C   LIG A   1      -5.687   0.134 126.124  0.00  0.00    -0.004 C 
ATOM     11  C   LIG A   1      -5.558  -1.038 125.140  0.00  0.00    +0.008 C 
ATOM     12  C   LIG A   1      -6.421  -0.172 127.474  0.00  0.00    -0.022 C 
ATOM     13  C   LIG A   1      -5.632  -1.329 128.144  0.00  0.00    +0.012 C 
ATOM     14  C   LIG A   1      -6.521   1.182 128.351  0.00  0.00    +0.018 C 
ATOM     15  C   LIG A   1      -6.083   1.002 129.838  0.00  0.00    +0.040 C 
ENDROOT
BRANCH   1  16
ATOM     16  O   LIG A   1      -3.741   0.161 129.826  0.00  0.00    -0.388 OA
ATOM     17  H   LIG A   1      -3.843  -0.504 130.528  0.00  0.00    +0.210 HD
ENDBRANCH   1  16
BRANCH   6  18
ATOM     18  O   LIG A   1      -8.139   3.891 127.945  0.00  0.00    -0.434 OA
BRANCH  18  19
ATOM     19  C   LIG A   1      -8.829   4.740 128.744  0.00  0.00    +0.306 C 
ATOM     20  C   LIG A   1      -8.799   4.296 130.170  0.00  0.00    +0.136 C 
ATOM     21  O   LIG A   1      -9.348   5.815 128.405  0.00  0.00    -0.251 OA
ENDBRANCH  18  19
ENDBRANCH   6  18
BRANCH   4  22
ATOM     22  O   LIG A   1      -4.043   5.276 129.227  0.00  0.00    -0.431 OA
BRANCH  22  23
ATOM     23  C   LIG A   1      -3.634   6.526 128.894  0.00  0.00    +0.306 C 
ATOM     24  C   LIG A   1      -2.268   6.498 128.282  0.00  0.00    +0.136 C 
ATOM     25  O   LIG A   1      -4.269   7.552 129.063  0.00  0.00    -0.251 OA
ENDBRANCH  22  23
ENDBRANCH   4  22
BRANCH   8  26
ATOM     26  O   LIG A   1      -6.189   3.839 125.544  0.00  0.00    -0.457 OA
BRANCH  26  27
ATOM     27  C   LIG A   1      -7.133   3.731 124.562  0.00  0.00    +0.340 C 
ATOM     28  O   LIG A   1      -8.306   3.423 124.704  0.00  0.00    -0.245 OA
BRANCH  27  29
ATOM     29  C   LIG A   1      -6.485   3.890 123.208  0.00  0.00    +0.059 A 
ATOM     30  C   LIG A   1      -5.251   4.542 123.081  0.00  0.00    +0.015 A 
ATOM     31  C   LIG A   1      -4.602   4.596 121.845  0.00  0.00    +0.001 A 
ATOM     32  C   LIG A   1      -5.180   4.018 120.716  0.00  0.00    +0.000 A 
ATOM     33  C   LIG A   1      -6.427   3.401 120.816  0.00  0.00    +0.001 A 
ATOM     34  C   LIG A   1      -7.081   3.335 122.053  0.00  0.00    +0.015 A 
ENDBRANCH  27  29
ENDBRANCH  26  27
ENDBRANCH   8  26
BRANCH  12  35
ATOM     35  C   LIG A   1      -7.883  -0.760 127.232  0.00  0.00    +0.034 C 
BRANCH  35  36
ATOM     36  C   LIG A   1      -8.046  -1.713 126.056  0.00  0.00    -0.023 C 
ATOM     37  C   LIG A   1      -8.467  -2.996 126.059  0.00  0.00    -0.055 C 
ATOM     38  C   LIG A   1      -8.933  -3.773 127.261  0.00  0.00    +0.043 C 
BRANCH  37  39
ATOM     39  C   LIG A   1      -8.538  -3.726 124.801  0.00  0.00    -0.005 C 
ATOM     40  C   LIG A   1      -9.358  -3.403 123.793  0.00  0.00    +0.008 C 
ENDBRANCH  37  39
ENDBRANCH  35  36
ENDBRANCH  12  35
TORSDOF 11
ENDMDL
MODEL 5
REMARK VINA RESULT:      -8.0      1.983      6.327
REMARK  Name = NuBBE_60
REMARK  16 active torsions:
REMARK  status: ('A' for Active; 'I' for Inactive)
REMARK    1  A    between atoms: O_1  and  C_2
REMARK    2  A    between atoms: C_6  and  O_15
REMARK    3  A    between atoms: C_9  and  O_11
REMARK    4  A    between atoms: O_11  and  C_12
REMARK    5  A    between atoms: C_12  and  C_13
REMARK    6  A    between atoms: O_15  and  C_16
REMARK    7  A    between atoms: C_16  and  C_17
REMARK    8  A    between atoms: C_20  and  O_22
REMARK    9  A    between atoms: O_22  and  C_23
REMARK   10  A    between atoms: C_23  and  C_24
REMARK   11  A    between atoms: C_32  and  C_34
REMARK   12  A    between atoms: C_35  and  C_36
REMARK   13  A    between atoms: C_35  and  C_37
REMARK   14  A    between atoms: C_37  and  C_38
REMARK   15  A    between atoms: C_39  and  C_40
REMARK   16  A    between atoms: C_39  and  C_41
REMARK                            x       y       z     vdW  Elec       q    Type
REMARK                         _______ _______ _______ _____ _____    ______ ____
ROOT
ATOM      1  C   LIG A   1     -10.079   2.665 131.602  0.00  0.00    +0.138 C 
ATOM      2  C   LIG A   1      -9.941   4.065 131.120  0.00  0.00    +0.010 C 
ATOM      3  C   LIG A   1      -8.974   4.461 130.277  0.00  0.00    +0.012 C 
ATOM      4  C   LIG A   1      -9.116   5.582 129.272  0.00  0.00    +0.343 C 
ATOM      5  O   LIG A   1      -8.584   5.004 128.057  0.00  0.00    -0.297 OA
ATOM      6  C   LIG A   1      -8.317   3.624 128.361  0.00  0.00    +0.328 C 
ATOM      7  C   LIG A   1      -7.781   3.615 129.830  0.00  0.00    +0.100 C 
ATOM      8  C   LIG A   1      -6.465   4.481 130.063  0.00  0.00    +0.194 C 
ATOM      9  C   LIG A   1      -5.299   3.701 130.669  0.00  0.00    +0.049 C 
ATOM     10  C   LIG A   1      -5.806   3.004 131.937  0.00  0.00    -0.004 C 
ATOM     11  C   LIG A   1      -4.675   2.785 132.952  0.00  0.00    +0.008 C 
ATOM     12  C   LIG A   1      -6.677   1.749 131.589  0.00  0.00    -0.022 C 
ATOM     13  C   LIG A   1      -7.274   1.250 132.932  0.00  0.00    +0.012 C 
ATOM     14  C   LIG A   1      -7.768   2.147 130.465  0.00  0.00    +0.018 C 
ATOM     15  C   LIG A   1      -9.217   1.672 130.798  0.00  0.00    +0.040 C 
ENDROOT
BRANCH   1  16
ATOM     16  O   LIG A   1      -9.840   2.675 132.989  0.00  0.00    -0.388 OA
ATOM     17  H   LIG A   1      -8.881   2.607 133.126  0.00  0.00    +0.210 HD
ENDBRANCH   1  16
BRANCH   6  18
ATOM     18  O   LIG A   1      -7.499   2.960 127.401  0.00  0.00    -0.434 OA
BRANCH  18  19
ATOM     19  C   LIG A   1      -8.240   2.264 126.506  0.00  0.00    +0.306 C 
ATOM     20  C   LIG A   1      -8.434   0.848 126.940  0.00  0.00    +0.136 C 
ATOM     21  O   LIG A   1      -8.799   2.720 125.496  0.00  0.00    -0.251 OA
ENDBRANCH  18  19
ENDBRANCH   6  18
BRANCH   4  22
ATOM     22  O   LIG A   1     -10.475   5.928 129.035  0.00  0.00    -0.431 OA
BRANCH  22  23
ATOM     23  C   LIG A   1     -10.702   7.265 128.992  0.00  0.00    +0.306 C 
ATOM     24  C   LIG A   1     -11.792   7.653 129.943  0.00  0.00    +0.136 C 
ATOM     25  O   LIG A   1     -10.118   8.066 128.284  0.00  0.00    -0.251 OA
ENDBRANCH  22  23
ENDBRANCH   4  22
BRANCH   8  26
ATOM     26  O   LIG A   1      -6.032   5.239 128.892  0.00  0.00    -0.457 OA
BRANCH  26  27
ATOM     27  C   LIG A   1      -4.734   5.663 128.858  0.00  0.00    +0.340 C 
ATOM     28  O   LIG A   1      -4.267   6.639 129.424  0.00  0.00    -0.245 OA
BRANCH  27  29
ATOM     29  C   LIG A   1      -3.949   4.834 127.870  0.00  0.00    +0.059 A 
ATOM     30  C   LIG A   1      -2.639   4.429 128.161  0.00  0.00    +0.015 A 
ATOM     31  C   LIG A   1      -1.952   3.575 127.295  0.00  0.00    +0.001 A 
ATOM     32  C   LIG A   1      -2.552   3.129 126.118  0.00  0.00    +0.000 A 
ATOM     33  C   LIG A   1      -3.839   3.555 125.792  0.00  0.00    +0.001 A 
ATOM     34  C   LIG A   1      -4.539   4.404 126.659  0.00  0.00    +0.015 A 
ENDBRANCH  27  29
ENDBRANCH  26  27
ENDBRANCH   8  26
BRANCH  12  35
ATOM     35  C   LIG A   1      -5.786   0.538 131.061  0.00  0.00    +0.034 C 
BRANCH  35  36
ATOM     36  C   LIG A   1      -6.405  -0.343 129.985  0.00  0.00    -0.023 C 
ATOM     37  C   LIG A   1      -7.096  -1.495 130.129  0.00  0.00    -0.055 C 
ATOM     38  C   LIG A   1      -7.460  -2.154 131.432  0.00  0.00    +0.043 C 
BRANCH  37  39
ATOM     39  C   LIG A   1      -7.595  -2.179 128.944  0.00  0.00    -0.005 C 
ATOM     40  C   LIG A   1      -8.368  -3.272 128.981  0.00  0.00    +0.008 C 
ENDBRANCH  37  39
ENDBRANCH  35  36
ENDBRANCH  12  35
TORSDOF 11
ENDMDL
MODEL 6
REMARK VINA RESULT:      -8.0      2.000      4.402
REMARK  Name = NuBBE_60
REMARK  16 active torsions:
REMARK  status: ('A' for Active; 'I' for Inactive)
REMARK    1  A    between atoms: O_1  and  C_2
REMARK    2  A    between atoms: C_6  and  O_15
REMARK    3  A    between atoms: C_9  and  O_11
REMARK    4  A    between atoms: O_11  and  C_12
REMARK    5  A    between atoms: C_12  and  C_13
REMARK    6  A    between atoms: O_15  and  C_16
REMARK    7  A    between atoms: C_16  and  C_17
REMARK    8  A    between atoms: C_20  and  O_22
REMARK    9  A    between atoms: O_22  and  C_23
REMARK   10  A    between atoms: C_23  and  C_24
REMARK   11  A    between atoms: C_32  and  C_34
REMARK   12  A    between atoms: C_35  and  C_36
REMARK   13  A    between atoms: C_35  and  C_37
REMARK   14  A    between atoms: C_37  and  C_38
REMARK   15  A    between atoms: C_39  and  C_40
REMARK   16  A    between atoms: C_39  and  C_41
REMARK                            x       y       z     vdW  Elec       q    Type
REMARK                         _______ _______ _______ _____ _____    ______ ____
ROOT
ATOM      1  C   LIG A   1      -6.243   0.667 130.473  0.00  0.00    +0.138 C 
ATOM      2  C   LIG A   1      -7.234   1.082 129.445  0.00  0.00    +0.010 C 
ATOM      3  C   LIG A   1      -7.560   2.363 129.212  0.00  0.00    +0.012 C 
ATOM      4  C   LIG A   1      -7.991   2.911 127.870  0.00  0.00    +0.343 C 
ATOM      5  O   LIG A   1      -7.194   4.110 127.733  0.00  0.00    -0.297 OA
ATOM      6  C   LIG A   1      -6.295   4.118 128.855  0.00  0.00    +0.328 C 
ATOM      7  C   LIG A   1      -7.125   3.560 130.058  0.00  0.00    +0.100 C 
ATOM      8  C   LIG A   1      -8.431   4.400 130.411  0.00  0.00    +0.194 C 
ATOM      9  C   LIG A   1      -8.493   4.887 131.858  0.00  0.00    +0.049 C 
ATOM     10  C   LIG A   1      -8.278   3.676 132.773  0.00  0.00    -0.004 C 
ATOM     11  C   LIG A   1      -8.964   3.866 134.133  0.00  0.00    +0.008 C 
ATOM     12  C   LIG A   1      -6.771   3.249 132.811  0.00  0.00    -0.022 C 
ATOM     13  C   LIG A   1      -6.717   1.920 133.610  0.00  0.00    +0.012 C 
ATOM     14  C   LIG A   1      -6.200   3.159 131.301  0.00  0.00    +0.018 C 
ATOM     15  C   LIG A   1      -5.409   1.847 131.005  0.00  0.00    +0.040 C 
ENDROOT
BRANCH   1  16
ATOM     16  O   LIG A   1      -6.941  -0.062 131.455  0.00  0.00    -0.388 OA
ATOM     17  H   LIG A   1      -7.384  -0.806 131.014  0.00  0.00    +0.210 HD
ENDBRANCH   1  16
BRANCH   6  18
ATOM     18  O   LIG A   1      -5.646   5.367 129.078  0.00  0.00    -0.434 OA
BRANCH  18  19
ATOM     19  C   LIG A   1      -4.456   5.435 128.433  0.00  0.00    +0.306 C 
ATOM     20  C   LIG A   1      -3.627   4.218 128.685  0.00  0.00    +0.136 C 
ATOM     21  O   LIG A   1      -4.095   6.319 127.641  0.00  0.00    -0.251 OA
ENDBRANCH  18  19
ENDBRANCH   6  18
BRANCH   4  22
ATOM     22  O   LIG A   1      -7.659   2.038 126.797  0.00  0.00    -0.431 OA
BRANCH  22  23
ATOM     23  C   LIG A   1      -8.643   1.905 125.872  0.00  0.00    +0.306 C 
ATOM     24  C   LIG A   1      -9.202   0.516 125.881  0.00  0.00    +0.136 C 
ATOM     25  O   LIG A   1      -9.037   2.778 125.120  0.00  0.00    -0.251 OA
ENDBRANCH  22  23
ENDBRANCH   4  22
BRANCH   8  26
ATOM     26  O   LIG A   1      -8.709   5.492 129.481  0.00  0.00    -0.457 OA
BRANCH  26  27
ATOM     27  C   LIG A   1      -8.753   6.759 129.990  0.00  0.00    +0.340 C 
ATOM     28  O   LIG A   1      -7.869   7.332 130.606  0.00  0.00    -0.245 OA
BRANCH  27  29
ATOM     29  C   LIG A   1     -10.143   7.328 129.830  0.00  0.00    +0.059 A 
ATOM     30  C   LIG A   1     -10.444   8.178 128.758  0.00  0.00    +0.015 A 
ATOM     31  C   LIG A   1     -11.754   8.619 128.550  0.00  0.00    +0.001 A 
ATOM     32  C   LIG A   1     -12.776   8.236 129.417  0.00  0.00    +0.000 A 
ATOM     33  C   LIG A   1     -12.485   7.423 130.513  0.00  0.00    +0.001 A 
ATOM     34  C   LIG A   1     -11.177   6.970 130.724  0.00  0.00    +0.015 A 
ENDBRANCH  27  29
ENDBRANCH  26  27
ENDBRANCH   8  26
BRANCH  12  35
ATOM     35  C   LIG A   1      -5.888   4.272 133.655  0.00  0.00    +0.034 C 
BRANCH  35  36
ATOM     36  C   LIG A   1      -5.040   5.254 132.859  0.00  0.00    -0.023 C 
ATOM     37  C   LIG A   1      -3.726   5.182 132.552  0.00  0.00    -0.055 C 
ATOM     38  C   LIG A   1      -2.796   4.051 132.898  0.00  0.00    +0.043 C 
BRANCH  37  39
ATOM     39  C   LIG A   1      -3.115   6.253 131.777  0.00  0.00    -0.005 C 
ATOM     40  C   LIG A   1      -3.714   7.421 131.512  0.00  0.00    +0.008 C 
ENDBRANCH  37  39
ENDBRANCH  35  36
ENDBRANCH  12  35
TORSDOF 11
ENDMDL
MODEL 7
REMARK VINA RESULT:      -7.9      2.733      6.716
REMARK  Name = NuBBE_60
REMARK  16 active torsions:
REMARK  status: ('A' for Active; 'I' for Inactive)
REMARK    1  A    between atoms: O_1  and  C_2
REMARK    2  A    between atoms: C_6  and  O_15
REMARK    3  A    between atoms: C_9  and  O_11
REMARK    4  A    between atoms: O_11  and  C_12
REMARK    5  A    between atoms: C_12  and  C_13
REMARK    6  A    between atoms: O_15  and  C_16
REMARK    7  A    between atoms: C_16  and  C_17
REMARK    8  A    between atoms: C_20  and  O_22
REMARK    9  A    between atoms: O_22  and  C_23
REMARK   10  A    between atoms: C_23  and  C_24
REMARK   11  A    between atoms: C_32  and  C_34
REMARK   12  A    between atoms: C_35  and  C_36
REMARK   13  A    between atoms: C_35  and  C_37
REMARK   14  A    between atoms: C_37  and  C_38
REMARK   15  A    between atoms: C_39  and  C_40
REMARK   16  A    between atoms: C_39  and  C_41
REMARK                            x       y       z     vdW  Elec       q    Type
REMARK                         _______ _______ _______ _____ _____    ______ ____
ROOT
ATOM      1  C   LIG A   1      -7.952   1.068 125.655  0.00  0.00    +0.138 C 
ATOM      2  C   LIG A   1      -8.615   1.800 126.767  0.00  0.00    +0.010 C 
ATOM      3  C   LIG A   1      -8.247   1.677 128.051  0.00  0.00    +0.012 C 
ATOM      4  C   LIG A   1      -8.369   2.770 129.090  0.00  0.00    +0.343 C 
ATOM      5  O   LIG A   1      -7.074   2.755 129.736  0.00  0.00    -0.297 OA
ATOM      6  C   LIG A   1      -6.273   1.821 128.993  0.00  0.00    +0.328 C 
ATOM      7  C   LIG A   1      -7.243   0.660 128.596  0.00  0.00    +0.100 C 
ATOM      8  C   LIG A   1      -7.930  -0.082 129.827  0.00  0.00    +0.194 C 
ATOM      9  C   LIG A   1      -7.703  -1.593 129.857  0.00  0.00    +0.049 C 
ATOM     10  C   LIG A   1      -8.115  -2.158 128.492  0.00  0.00    -0.004 C 
ATOM     11  C   LIG A   1      -8.577  -3.618 128.602  0.00  0.00    +0.008 C 
ATOM     12  C   LIG A   1      -7.036  -1.854 127.398  0.00  0.00    -0.022 C 
ATOM     13  C   LIG A   1      -7.649  -2.308 126.046  0.00  0.00    +0.012 C 
ATOM     14  C   LIG A   1      -6.625  -0.292 127.469  0.00  0.00    +0.018 C 
ATOM     15  C   LIG A   1      -6.620   0.421 126.081  0.00  0.00    +0.040 C 
ENDROOT
BRANCH   1  16
ATOM     16  O   LIG A   1      -8.901   0.180 125.114  0.00  0.00    -0.388 OA
ATOM     17  H   LIG A   1      -9.495  -0.094 125.833  0.00  0.00    +0.210 HD
ENDBRANCH   1  16
BRANCH   6  18
ATOM     18  O   LIG A   1      -5.072   1.425 129.652  0.00  0.00    -0.434 OA
BRANCH  18  19
ATOM     19  C   LIG A   1      -4.307   2.492 129.983  0.00  0.00    +0.306 C 
ATOM     20  C   LIG A   1      -4.006   2.516 131.446  0.00  0.00    +0.136 C 
ATOM     21  O   LIG A   1      -3.807   3.315 129.199  0.00  0.00    -0.251 OA
ENDBRANCH  18  19
ENDBRANCH   6  18
BRANCH   4  22
ATOM     22  O   LIG A   1      -8.552   4.053 128.505  0.00  0.00    -0.431 OA
BRANCH  22  23
ATOM     23  C   LIG A   1      -8.859   5.026 129.400  0.00  0.00    +0.306 C 
ATOM     24  C   LIG A   1     -10.097   4.675 130.167  0.00  0.00    +0.136 C 
ATOM     25  O   LIG A   1      -8.235   6.057 129.575  0.00  0.00    -0.251 OA
ENDBRANCH  22  23
ENDBRANCH   4  22
BRANCH   8  26
ATOM     26  O   LIG A   1      -7.634   0.515 131.127  0.00  0.00    -0.457 OA
BRANCH  26  27
ATOM     27  C   LIG A   1      -8.685   0.751 131.967  0.00  0.00    +0.340 C 
ATOM     28  O   LIG A   1      -9.762   0.176 131.974  0.00  0.00    -0.245 OA
BRANCH  27  29
ATOM     29  C   LIG A   1      -8.399   1.965 132.818  0.00  0.00    +0.059 A 
ATOM     30  C   LIG A   1      -9.415   2.885 133.111  0.00  0.00    +0.015 A 
ATOM     31  C   LIG A   1      -9.176   3.949 133.985  0.00  0.00    +0.001 A 
ATOM     32  C   LIG A   1      -7.920   4.124 134.562  0.00  0.00    +0.000 A 
ATOM     33  C   LIG A   1      -6.886   3.241 134.249  0.00  0.00    +0.001 A 
ATOM     34  C   LIG A   1      -7.118   2.166 133.381  0.00  0.00    +0.015 A 
ENDBRANCH  27  29
ENDBRANCH  26  27
ENDBRANCH   8  26
BRANCH  12  35
ATOM     35  C   LIG A   1      -5.736  -2.756 127.582  0.00  0.00    +0.034 C 
BRANCH  35  36
ATOM     36  C   LIG A   1      -4.658  -2.213 128.510  0.00  0.00    -0.023 C 
ATOM     37  C   LIG A   1      -4.268  -2.679 129.717  0.00  0.00    -0.055 C 
ATOM     38  C   LIG A   1      -4.796  -3.908 130.406  0.00  0.00    +0.043 C 
BRANCH  37  39
ATOM     39  C   LIG A   1      -3.209  -1.987 130.439  0.00  0.00    -0.005 C 
ATOM     40  C   LIG A   1      -3.259  -1.700 131.746  0.00  0.00    +0.008 C 
ENDBRANCH  37  39
ENDBRANCH  35  36
ENDBRANCH  12  35
TORSDOF 11
ENDMDL
MODEL 8
REMARK VINA RESULT:      -7.9      1.849      3.622
REMARK  Name = NuBBE_60
REMARK  16 active torsions:
REMARK  status: ('A' for Active; 'I' for Inactive)
REMARK    1  A    between atoms: O_1  and  C_2
REMARK    2  A    between atoms: C_6  and  O_15
REMARK    3  A    between atoms: C_9  and  O_11
REMARK    4  A    between atoms: O_11  and  C_12
REMARK    5  A    between atoms: C_12  and  C_13
REMARK    6  A    between atoms: O_15  and  C_16
REMARK    7  A    between atoms: C_16  and  C_17
REMARK    8  A    between atoms: C_20  and  O_22
REMARK    9  A    between atoms: O_22  and  C_23
REMARK   10  A    between atoms: C_23  and  C_24
REMARK   11  A    between atoms: C_32  and  C_34
REMARK   12  A    between atoms: C_35  and  C_36
REMARK   13  A    between atoms: C_35  and  C_37
REMARK   14  A    between atoms: C_37  and  C_38
REMARK   15  A    between atoms: C_39  and  C_40
REMARK   16  A    between atoms: C_39  and  C_41
REMARK                            x       y       z     vdW  Elec       q    Type
REMARK                         _______ _______ _______ _____ _____    ______ ____
ROOT
ATOM      1  C   LIG A   1      -5.674   1.270 132.135  0.00  0.00    +0.138 C 
ATOM      2  C   LIG A   1      -6.930   1.175 131.344  0.00  0.00    +0.010 C 
ATOM      3  C   LIG A   1      -7.506   2.231 130.748  0.00  0.00    +0.012 C 
ATOM      4  C   LIG A   1      -8.319   2.163 129.474  0.00  0.00    +0.343 C 
ATOM      5  O   LIG A   1      -7.782   3.249 128.683  0.00  0.00    -0.297 OA
ATOM      6  C   LIG A   1      -6.663   3.762 129.425  0.00  0.00    +0.328 C 
ATOM      7  C   LIG A   1      -7.090   3.692 130.928  0.00  0.00    +0.100 C 
ATOM      8  C   LIG A   1      -8.399   4.524 131.287  0.00  0.00    +0.194 C 
ATOM      9  C   LIG A   1      -8.205   5.550 132.403  0.00  0.00    +0.049 C 
ATOM     10  C   LIG A   1      -7.589   4.827 133.607  0.00  0.00    -0.004 C 
ATOM     11  C   LIG A   1      -7.965   5.511 134.929  0.00  0.00    +0.008 C 
ATOM     12  C   LIG A   1      -6.065   4.542 133.383  0.00  0.00    -0.022 C 
ATOM     13  C   LIG A   1      -5.611   3.655 134.573  0.00  0.00    +0.012 C 
ATOM     14  C   LIG A   1      -5.851   3.882 131.923  0.00  0.00    +0.018 C 
ATOM     15  C   LIG A   1      -4.945   2.612 131.933  0.00  0.00    +0.040 C 
ENDROOT
BRANCH   1  16
ATOM     16  O   LIG A   1      -5.998   0.962 133.470  0.00  0.00    -0.388 OA
ATOM     17  H   LIG A   1      -5.493   0.171 133.723  0.00  0.00    +0.210 HD
ENDBRANCH   1  16
BRANCH   6  18
ATOM     18  O   LIG A   1      -6.193   5.031 128.975  0.00  0.00    -0.434 OA
BRANCH  18  19
ATOM     19  C   LIG A   1      -5.121   4.906 128.158  0.00  0.00    +0.306 C 
ATOM     20  C   LIG A   1      -4.292   3.717 128.519  0.00  0.00    +0.136 C 
ATOM     21  O   LIG A   1      -4.868   5.599 127.159  0.00  0.00    -0.251 OA
ENDBRANCH  18  19
ENDBRANCH   6  18
BRANCH   4  22
ATOM     22  O   LIG A   1      -8.105   0.952 128.760  0.00  0.00    -0.431 OA
BRANCH  22  23
ATOM     23  C   LIG A   1      -8.271   1.068 127.419  0.00  0.00    +0.306 C 
ATOM     24  C   LIG A   1      -6.996   0.768 126.693  0.00  0.00    +0.136 C 
ATOM     25  O   LIG A   1      -9.304   1.378 126.853  0.00  0.00    -0.251 OA
ENDBRANCH  22  23
ENDBRANCH   4  22
BRANCH   8  26
ATOM     26  O   LIG A   1      -9.060   5.128 130.133  0.00  0.00    -0.457 OA
BRANCH  26  27
ATOM     27  C   LIG A   1     -10.421   5.031 130.062  0.00  0.00    +0.340 C 
ATOM     28  O   LIG A   1     -11.090   4.017 130.181  0.00  0.00    -0.245 OA
BRANCH  27  29
ATOM     29  C   LIG A   1     -11.008   6.358 129.645  0.00  0.00    +0.059 A 
ATOM     30  C   LIG A   1     -12.110   6.894 130.325  0.00  0.00    +0.015 A 
ATOM     31  C   LIG A   1     -12.586   8.169 130.008  0.00  0.00    +0.001 A 
ATOM     32  C   LIG A   1     -11.985   8.918 128.998  0.00  0.00    +0.000 A 
ATOM     33  C   LIG A   1     -10.914   8.383 128.283  0.00  0.00    +0.001 A 
ATOM     34  C   LIG A   1     -10.424   7.109 128.600  0.00  0.00    +0.015 A 
ENDBRANCH  27  29
ENDBRANCH  26  27
ENDBRANCH   8  26
BRANCH  12  35
ATOM     35  C   LIG A   1      -5.191   5.869 133.503  0.00  0.00    +0.034 C 
BRANCH  35  36
ATOM     36  C   LIG A   1      -4.753   6.514 132.195  0.00  0.00    -0.023 C 
ATOM     37  C   LIG A   1      -3.564   6.419 131.561  0.00  0.00    -0.055 C 
ATOM     38  C   LIG A   1      -2.391   5.584 131.999  0.00  0.00    +0.043 C 
BRANCH  37  39
ATOM     39  C   LIG A   1      -3.363   7.136 130.310  0.00  0.00    -0.005 C 
ATOM     40  C   LIG A   1      -4.145   8.138 129.888  0.00  0.00    +0.008 C 
ENDBRANCH  37  39
ENDBRANCH  35  36
ENDBRANCH  12  35
TORSDOF 11
ENDMDL
MODEL 9
REMARK VINA RESULT:      -7.9      2.049      5.849
REMARK  Name = NuBBE_60
REMARK  16 active torsions:
REMARK  status: ('A' for Active; 'I' for Inactive)
REMARK    1  A    between atoms: O_1  and  C_2
REMARK    2  A    between atoms: C_6  and  O_15
REMARK    3  A    between atoms: C_9  and  O_11
REMARK    4  A    between atoms: O_11  and  C_12
REMARK    5  A    between atoms: C_12  and  C_13
REMARK    6  A    between atoms: O_15  and  C_16
REMARK    7  A    between atoms: C_16  and  C_17
REMARK    8  A    between atoms: C_20  and  O_22
REMARK    9  A    between atoms: O_22  and  C_23
REMARK   10  A    between atoms: C_23  and  C_24
REMARK   11  A    between atoms: C_32  and  C_34
REMARK   12  A    between atoms: C_35  and  C_36
REMARK   13  A    between atoms: C_35  and  C_37
REMARK   14  A    between atoms: C_37  and  C_38
REMARK   15  A    between atoms: C_39  and  C_40
REMARK   16  A    between atoms: C_39  and  C_41
REMARK                            x       y       z     vdW  Elec       q    Type
REMARK                         _______ _______ _______ _____ _____    ______ ____
ROOT
ATOM      1  C   LIG A   1      -6.393   6.027 132.255  0.00  0.00    +0.138 C 
ATOM      2  C   LIG A   1      -7.393   6.485 131.255  0.00  0.00    +0.010 C 
ATOM      3  C   LIG A   1      -7.941   5.673 130.337  0.00  0.00    +0.012 C 
ATOM      4  C   LIG A   1      -9.334   5.832 129.769  0.00  0.00    +0.343 C 
ATOM      5  O   LIG A   1      -9.878   4.494 129.852  0.00  0.00    -0.297 OA
ATOM      6  C   LIG A   1      -8.897   3.712 130.552  0.00  0.00    +0.328 C 
ATOM      7  C   LIG A   1      -7.510   4.234 130.051  0.00  0.00    +0.100 C 
ATOM      8  C   LIG A   1      -7.280   4.105 128.480  0.00  0.00    +0.194 C 
ATOM      9  C   LIG A   1      -6.027   3.320 128.091  0.00  0.00    +0.049 C 
ATOM     10  C   LIG A   1      -4.836   3.933 128.838  0.00  0.00    -0.004 C 
ATOM     11  C   LIG A   1      -3.522   3.729 128.069  0.00  0.00    +0.008 C 
ATOM     12  C   LIG A   1      -4.829   3.512 130.346  0.00  0.00    -0.022 C 
ATOM     13  C   LIG A   1      -3.699   4.335 131.021  0.00  0.00    +0.012 C 
ATOM     14  C   LIG A   1      -6.302   3.736 130.974  0.00  0.00    +0.018 C 
ATOM     15  C   LIG A   1      -6.296   4.492 132.339  0.00  0.00    +0.040 C 
ENDROOT
BRANCH   1  16
ATOM     16  O   LIG A   1      -5.183   6.686 131.967  0.00  0.00    -0.388 OA
ATOM     17  H   LIG A   1      -4.701   6.801 132.803  0.00  0.00    +0.210 HD
ENDBRANCH   1  16
BRANCH   6  18
ATOM     18  O   LIG A   1      -9.096   2.303 130.461  0.00  0.00    -0.434 OA
BRANCH  18  19
ATOM     19  C   LIG A   1      -9.459   1.770 131.653  0.00  0.00    +0.306 C 
ATOM     20  C   LIG A   1      -9.420   2.791 132.742  0.00  0.00    +0.136 C 
ATOM     21  O   LIG A   1      -9.878   0.619 131.850  0.00  0.00    -0.251 OA
ENDBRANCH  18  19
ENDBRANCH   6  18
BRANCH   4  22
ATOM     22  O   LIG A   1     -10.147   6.687 130.563  0.00  0.00    -0.431 OA
BRANCH  22  23
ATOM     23  C   LIG A   1     -11.023   7.434 129.845  0.00  0.00    +0.306 C 
ATOM     24  C   LIG A   1     -10.348   8.065 128.667  0.00  0.00    +0.136 C 
ATOM     25  O   LIG A   1     -12.203   7.593 130.103  0.00  0.00    -0.251 OA
ENDBRANCH  22  23
ENDBRANCH   4  22
BRANCH   8  26
ATOM     26  O   LIG A   1      -8.445   3.625 127.742  0.00  0.00    -0.457 OA
BRANCH  26  27
ATOM     27  C   LIG A   1      -8.318   3.475 126.390  0.00  0.00    +0.340 C 
ATOM     28  O   LIG A   1      -8.528   4.321 125.535  0.00  0.00    -0.245 OA
BRANCH  27  29
ATOM     29  C   LIG A   1      -8.026   2.031 126.059  0.00  0.00    +0.059 A 
ATOM     30  C   LIG A   1      -8.676   0.998 126.748  0.00  0.00    +0.015 A 
ATOM     31  C   LIG A   1      -8.486  -0.334 126.370  0.00  0.00    +0.001 A 
ATOM     32  C   LIG A   1      -7.633  -0.657 125.315  0.00  0.00    +0.000 A 
ATOM     33  C   LIG A   1      -6.947   0.357 124.646  0.00  0.00    +0.001 A 
ATOM     34  C   LIG A   1      -7.138   1.695 125.012  0.00  0.00    +0.015 A 
ENDBRANCH  27  29
ENDBRANCH  26  27
ENDBRANCH   8  26
BRANCH  12  35
ATOM     35  C   LIG A   1      -4.395   1.990 130.534  0.00  0.00    +0.034 C 
BRANCH  35  36
ATOM     36  C   LIG A   1      -5.521   0.977 130.691  0.00  0.00    -0.023 C 
ATOM     37  C   LIG A   1      -5.993   0.091 129.788  0.00  0.00    -0.055 C 
ATOM     38  C   LIG A   1      -5.456  -0.132 128.400  0.00  0.00    +0.043 C 
BRANCH  37  39
ATOM     39  C   LIG A   1      -7.095  -0.786 130.158  0.00  0.00    -0.005 C 
ATOM     40  C   LIG A   1      -7.182  -2.072 129.799  0.00  0.00    +0.008 C 
ENDBRANCH  37  39
ENDBRANCH  35  36
ENDBRANCH  12  35
TORSDOF 11
ENDMDL
