MODEL 1
REMARK VINA RESULT:      -8.7      0.000      0.000
REMARK  Name = NuBBE_125
REMARK  18 active torsions:
REMARK  status: ('A' for Active; 'I' for Inactive)
REMARK    1  A    between atoms: O_1  and  C_2
REMARK    2  A    between atoms: C_5  and  C_6
REMARK    3  A    between atoms: C_10  and  O_11
REMARK    4  A    between atoms: C_12  and  O_13
REMARK    5  A    between atoms: O_13  and  C_14
REMARK    6  A    between atoms: C_17  and  C_25
REMARK    7  A    between atoms: C_19  and  O_24
REMARK    8  A    between atoms: C_21  and  O_23
REMARK    9  A    between atoms: C_25  and  O_26
REMARK   10  A    between atoms: O_26  and  C_27
REMARK   11  A    between atoms: C_29  and  O_41
REMARK   12  A    between atoms: C_31  and  O_40
REMARK   13  A    between atoms: C_33  and  O_35
REMARK   14  A    between atoms: C_36  and  C_38
REMARK   15  A    between atoms: C_42  and  O_44
REMARK   16  A    between atoms: C_45  and  O_46
REMARK   17  A    between atoms: O_46  and  C_47
REMARK   18  A    between atoms: C_53  and  O_54
REMARK                            x       y       z     vdW  Elec       q    Type
REMARK                         _______ _______ _______ _____ _____    ______ ____
ROOT
ATOM      1  C   LIG A   1      -4.531   0.665 130.015  0.00  0.00    +0.340 C 
ATOM      2  O   LIG A   1      -4.940  -0.348 129.076  0.00  0.00    -0.331 OA
ATOM      3  C   LIG A   1      -5.485  -1.543 129.654  0.00  0.00    +0.179 C 
ATOM      4  C   LIG A   1      -6.740  -1.156 130.462  0.00  0.00    +0.177 C 
ATOM      5  C   LIG A   1      -6.435  -0.062 131.509  0.00  0.00    +0.180 C 
ATOM      6  C   LIG A   1      -4.975   0.399 131.474  0.00  0.00    +0.214 C 
ENDROOT
BRANCH   6   7
ATOM      7  O   LIG A   1      -4.109  -0.585 132.071  0.00  0.00    -0.383 OA
ATOM      8  H   LIG A   1      -4.224  -0.564 133.037  0.00  0.00    +0.210 HD
ENDBRANCH   6   7
BRANCH   4   9
ATOM      9  O   LIG A   1      -7.310  -2.295 131.120  0.00  0.00    -0.387 OA
ATOM     10  H   LIG A   1      -6.952  -2.292 132.028  0.00  0.00    +0.210 HD
ENDBRANCH   4   9
BRANCH   5  11
ATOM     11  O   LIG A   1      -7.337   1.039 131.337  0.00  0.00    -0.386 OA
ATOM     12  H   LIG A   1      -8.253   0.688 131.289  0.00  0.00    +0.210 HD
ENDBRANCH   5  11
BRANCH   3  13
ATOM     13  C   LIG A   1      -5.834  -2.550 128.532  0.00  0.00    +0.197 C 
BRANCH  13  14
ATOM     14  O   LIG A   1      -7.125  -2.259 127.962  0.00  0.00    -0.346 OA
BRANCH  14  15
ATOM     15  C   LIG A   1      -7.026  -1.732 126.624  0.00  0.00    +0.282 C 
ATOM     16  C   LIG A   1      -8.448  -1.795 126.004  0.00  0.00    +0.201 C 
ATOM     17  C   LIG A   1      -8.426  -1.530 124.497  0.00  0.00    +0.179 C 
ATOM     18  C   LIG A   1      -7.351  -2.374 123.799  0.00  0.00    +0.174 C 
ATOM     19  C   LIG A   1      -6.010  -2.110 124.490  0.00  0.00    +0.149 C 
ATOM     20  C   LIG A   1      -4.864  -2.892 123.859  0.00  0.00    +0.040 C 
ATOM     21  O   LIG A   1      -6.089  -2.495 125.866  0.00  0.00    -0.343 OA
BRANCH  16  22
ATOM     22  O   LIG A   1      -9.043  -3.099 126.203  0.00  0.00    -0.384 OA
ATOM     23  H   LIG A   1      -9.215  -3.147 127.169  0.00  0.00    +0.210 HD
ENDBRANCH  16  22
BRANCH  17  24
ATOM     24  O   LIG A   1      -9.703  -1.843 123.913  0.00  0.00    -0.386 OA
ATOM     25  H   LIG A   1      -9.711  -2.822 123.844  0.00  0.00    +0.210 HD
ENDBRANCH  17  24
BRANCH  18  26
ATOM     26  O   LIG A   1      -7.304  -2.015 122.415  0.00  0.00    -0.387 OA
ATOM     27  H   LIG A   1      -8.187  -1.643 122.216  0.00  0.00    +0.210 HD
ENDBRANCH  18  26
ENDBRANCH  14  15
ENDBRANCH  13  14
ENDBRANCH   3  13
BRANCH   1  28
ATOM     28  O   LIG A   1      -5.092   1.934 129.623  0.00  0.00    -0.454 OA
BRANCH  28  34
ATOM     29  C   LIG A   1      -7.168   2.862 123.658  0.00  0.00    +0.139 A 
ATOM     30  O   LIG A   1      -5.902   2.896 124.210  0.00  0.00    -0.454 OA
ATOM     31  C   LIG A   1      -5.754   2.638 125.544  0.00  0.00    +0.146 A 
ATOM     32  C   LIG A   1      -6.777   2.196 126.367  0.00  0.00    +0.109 A 
ATOM     33  C   LIG A   1      -6.524   1.966 127.732  0.00  0.00    +0.177 A 
ATOM     34  C   LIG A   1      -5.243   2.212 128.282  0.00  0.00    +0.207 A 
ATOM     35  C   LIG A   1      -4.228   2.680 127.424  0.00  0.00    +0.169 A 
ATOM     36  C   LIG A   1      -4.490   2.858 126.062  0.00  0.00    +0.096 A 
ATOM     37  C   LIG A   1      -8.244   2.449 124.343  0.00  0.00    +0.098 A 
ATOM     38  C   LIG A   1      -8.094   2.035 125.750  0.00  0.00    +0.197 A 
ATOM     39  O   LIG A   1      -9.052   1.602 126.400  0.00  0.00    -0.287 OA
BRANCH  29  43
ATOM     40  C   LIG A   1      -7.282   4.289 119.599  0.00  0.00    +0.158 A 
ATOM     41  C   LIG A   1      -6.066   4.206 120.257  0.00  0.00    +0.050 A 
ATOM     42  C   LIG A   1      -6.038   3.732 121.578  0.00  0.00    +0.015 A 
ATOM     43  C   LIG A   1      -7.218   3.336 122.249  0.00  0.00    +0.021 A 
ATOM     44  C   LIG A   1      -8.427   3.426 121.545  0.00  0.00    +0.060 A 
ATOM     45  C   LIG A   1      -8.449   3.896 120.240  0.00  0.00    +0.159 A 
BRANCH  45  46
ATOM     46  O   LIG A   1      -9.651   3.973 119.596  0.00  0.00    -0.503 OA
ATOM     47  H   LIG A   1     -10.315   3.802 120.293  0.00  0.00    +0.292 HD
ENDBRANCH  45  46
BRANCH  40  48
ATOM     48  O   LIG A   1      -7.388   4.753 118.319  0.00  0.00    -0.503 OA
ATOM     49  H   LIG A   1      -8.101   5.413 118.292  0.00  0.00    +0.292 HD
ENDBRANCH  40  48
ENDBRANCH  29  43
BRANCH  35  50
ATOM     50  O   LIG A   1      -2.956   2.891 127.890  0.00  0.00    -0.491 OA
ATOM     51  C   LIG A   1      -1.989   3.139 126.865  0.00  0.00    +0.277 C 
ENDBRANCH  35  50
BRANCH  33  52
ATOM     52  O   LIG A   1      -7.535   1.528 128.561  0.00  0.00    -0.503 OA
ATOM     53  H   LIG A   1      -7.264   0.668 128.958  0.00  0.00    +0.292 HD
ENDBRANCH  33  52
ENDBRANCH  28  34
ENDBRANCH   1  28
TORSDOF 16
ENDMDL
MODEL 2
REMARK VINA RESULT:      -8.5      4.302      6.702
REMARK  Name = NuBBE_125
REMARK  18 active torsions:
REMARK  status: ('A' for Active; 'I' for Inactive)
REMARK    1  A    between atoms: O_1  and  C_2
REMARK    2  A    between atoms: C_5  and  C_6
REMARK    3  A    between atoms: C_10  and  O_11
REMARK    4  A    between atoms: C_12  and  O_13
REMARK    5  A    between atoms: O_13  and  C_14
REMARK    6  A    between atoms: C_17  and  C_25
REMARK    7  A    between atoms: C_19  and  O_24
REMARK    8  A    between atoms: C_21  and  O_23
REMARK    9  A    between atoms: C_25  and  O_26
REMARK   10  A    between atoms: O_26  and  C_27
REMARK   11  A    between atoms: C_29  and  O_41
REMARK   12  A    between atoms: C_31  and  O_40
REMARK   13  A    between atoms: C_33  and  O_35
REMARK   14  A    between atoms: C_36  and  C_38
REMARK   15  A    between atoms: C_42  and  O_44
REMARK   16  A    between atoms: C_45  and  O_46
REMARK   17  A    between atoms: O_46  and  C_47
REMARK   18  A    between atoms: C_53  and  O_54
REMARK                            x       y       z     vdW  Elec       q    Type
REMARK                         _______ _______ _______ _____ _____    ______ ____
ROOT
ATOM      1  C   LIG A   1      -8.419   1.276 130.158  0.00  0.00    +0.340 C 
ATOM      2  O   LIG A   1      -8.962   2.610 130.129  0.00  0.00    -0.331 OA
ATOM      3  C   LIG A   1      -9.641   3.027 131.324  0.00  0.00    +0.179 C 
ATOM      4  C   LIG A   1      -8.633   2.984 132.488  0.00  0.00    +0.177 C 
ATOM      5  C   LIG A   1      -7.967   1.596 132.623  0.00  0.00    +0.180 C 
ATOM      6  C   LIG A   1      -8.441   0.607 131.554  0.00  0.00    +0.214 C 
ENDROOT
BRANCH   6   7
ATOM      7  O   LIG A   1      -9.771   0.134 131.842  0.00  0.00    -0.383 OA
ATOM      8  H   LIG A   1      -9.859   0.002 132.802  0.00  0.00    +0.210 HD
ENDBRANCH   6   7
BRANCH   4   9
ATOM      9  O   LIG A   1      -9.254   3.334 133.731  0.00  0.00    -0.387 OA
ATOM     10  H   LIG A   1      -8.652   3.966 134.169  0.00  0.00    +0.210 HD
ENDBRANCH   4   9
BRANCH   5  11
ATOM     11  O   LIG A   1      -6.541   1.738 132.611  0.00  0.00    -0.386 OA
ATOM     12  H   LIG A   1      -6.158   0.994 132.097  0.00  0.00    +0.210 HD
ENDBRANCH   5  11
BRANCH   3  13
ATOM     13  C   LIG A   1     -10.206   4.454 131.128  0.00  0.00    +0.197 C 
BRANCH  13  14
ATOM     14  O   LIG A   1     -10.297   4.784 129.728  0.00  0.00    -0.346 OA
BRANCH  14  15
ATOM     15  C   LIG A   1     -11.344   5.739 129.459  0.00  0.00    +0.282 C 
ATOM     16  C   LIG A   1     -10.777   6.756 128.433  0.00  0.00    +0.201 C 
ATOM     17  C   LIG A   1     -11.687   7.978 128.278  0.00  0.00    +0.179 C 
ATOM     18  C   LIG A   1     -12.084   8.552 129.644  0.00  0.00    +0.174 C 
ATOM     19  C   LIG A   1     -12.703   7.425 130.477  0.00  0.00    +0.149 C 
ATOM     20  C   LIG A   1     -13.150   7.897 131.856  0.00  0.00    +0.040 C 
ATOM     21  O   LIG A   1     -11.744   6.381 130.669  0.00  0.00    -0.343 OA
BRANCH  16  22
ATOM     22  O   LIG A   1      -9.477   7.238 128.844  0.00  0.00    -0.384 OA
ATOM     23  H   LIG A   1      -9.337   8.055 128.317  0.00  0.00    +0.210 HD
ENDBRANCH  16  22
BRANCH  17  24
ATOM     24  O   LIG A   1     -11.022   9.008 127.526  0.00  0.00    -0.386 OA
ATOM     25  H   LIG A   1     -10.200   8.583 127.198  0.00  0.00    +0.210 HD
ENDBRANCH  17  24
BRANCH  18  26
ATOM     26  O   LIG A   1     -13.012   9.623 129.446  0.00  0.00    -0.387 OA
ATOM     27  H   LIG A   1     -13.871   9.189 129.270  0.00  0.00    +0.210 HD
ENDBRANCH  18  26
ENDBRANCH  14  15
ENDBRANCH  13  14
ENDBRANCH   3  13
BRANCH   1  28
ATOM     28  O   LIG A   1      -7.045   1.311 129.723  0.00  0.00    -0.454 OA
BRANCH  28  34
ATOM     29  C   LIG A   1      -6.334   2.807 123.558  0.00  0.00    +0.139 A 
ATOM     30  O   LIG A   1      -5.834   3.382 124.710  0.00  0.00    -0.454 OA
ATOM     31  C   LIG A   1      -6.150   2.826 125.918  0.00  0.00    +0.146 A 
ATOM     32  C   LIG A   1      -6.825   1.625 126.068  0.00  0.00    +0.109 A 
ATOM     33  C   LIG A   1      -7.109   1.140 127.358  0.00  0.00    +0.177 A 
ATOM     34  C   LIG A   1      -6.743   1.882 128.507  0.00  0.00    +0.207 A 
ATOM     35  C   LIG A   1      -6.074   3.109 128.323  0.00  0.00    +0.169 A 
ATOM     36  C   LIG A   1      -5.761   3.549 127.033  0.00  0.00    +0.096 A 
ATOM     37  C   LIG A   1      -7.000   1.643 123.562  0.00  0.00    +0.098 A 
ATOM     38  C   LIG A   1      -7.242   0.949 124.839  0.00  0.00    +0.197 A 
ATOM     39  O   LIG A   1      -7.809  -0.149 124.879  0.00  0.00    -0.287 OA
BRANCH  29  43
ATOM     40  C   LIG A   1      -5.569   5.056 119.969  0.00  0.00    +0.158 A 
ATOM     41  C   LIG A   1      -6.590   4.120 119.982  0.00  0.00    +0.050 A 
ATOM     42  C   LIG A   1      -6.837   3.397 121.158  0.00  0.00    +0.015 A 
ATOM     43  C   LIG A   1      -6.072   3.604 122.330  0.00  0.00    +0.021 A 
ATOM     44  C   LIG A   1      -5.055   4.566 122.280  0.00  0.00    +0.060 A 
ATOM     45  C   LIG A   1      -4.813   5.277 121.113  0.00  0.00    +0.159 A 
BRANCH  45  46
ATOM     46  O   LIG A   1      -3.807   6.199 121.109  0.00  0.00    -0.503 OA
ATOM     47  H   LIG A   1      -3.584   6.315 120.164  0.00  0.00    +0.292 HD
ENDBRANCH  45  46
BRANCH  40  48
ATOM     48  O   LIG A   1      -5.263   5.786 118.857  0.00  0.00    -0.503 OA
ATOM     49  H   LIG A   1      -4.375   6.163 118.976  0.00  0.00    +0.292 HD
ENDBRANCH  40  48
ENDBRANCH  29  43
BRANCH  35  50
ATOM     50  O   LIG A   1      -5.652   3.848 129.398  0.00  0.00    -0.491 OA
ATOM     51  C   LIG A   1      -6.520   4.932 129.743  0.00  0.00    +0.277 C 
ENDBRANCH  35  50
BRANCH  33  52
ATOM     52  O   LIG A   1      -7.783  -0.052 127.519  0.00  0.00    -0.503 OA
ATOM     53  H   LIG A   1      -8.662   0.024 127.082  0.00  0.00    +0.292 HD
ENDBRANCH  33  52
ENDBRANCH  28  34
ENDBRANCH   1  28
TORSDOF 16
ENDMDL
MODEL 3
REMARK VINA RESULT:      -8.3      3.510      6.189
REMARK  Name = NuBBE_125
REMARK  18 active torsions:
REMARK  status: ('A' for Active; 'I' for Inactive)
REMARK    1  A    between atoms: O_1  and  C_2
REMARK    2  A    between atoms: C_5  and  C_6
REMARK    3  A    between atoms: C_10  and  O_11
REMARK    4  A    between atoms: C_12  and  O_13
REMARK    5  A    between atoms: O_13  and  C_14
REMARK    6  A    between atoms: C_17  and  C_25
REMARK    7  A    between atoms: C_19  and  O_24
REMARK    8  A    between atoms: C_21  and  O_23
REMARK    9  A    between atoms: C_25  and  O_26
REMARK   10  A    between atoms: O_26  and  C_27
REMARK   11  A    between atoms: C_29  and  O_41
REMARK   12  A    between atoms: C_31  and  O_40
REMARK   13  A    between atoms: C_33  and  O_35
REMARK   14  A    between atoms: C_36  and  C_38
REMARK   15  A    between atoms: C_42  and  O_44
REMARK   16  A    between atoms: C_45  and  O_46
REMARK   17  A    between atoms: O_46  and  C_47
REMARK   18  A    between atoms: C_53  and  O_54
REMARK                            x       y       z     vdW  Elec       q    Type
REMARK                         _______ _______ _______ _____ _____    ______ ____
ROOT
ATOM      1  C   LIG A   1      -7.940   0.190 129.014  0.00  0.00    +0.340 C 
ATOM      2  O   LIG A   1      -7.947   1.629 129.081  0.00  0.00    -0.331 OA
ATOM      3  C   LIG A   1      -7.783   2.188 130.394  0.00  0.00    +0.179 C 
ATOM      4  C   LIG A   1      -6.420   1.725 130.945  0.00  0.00    +0.177 C 
ATOM      5  C   LIG A   1      -6.281   0.186 130.920  0.00  0.00    +0.180 C 
ATOM      6  C   LIG A   1      -7.511  -0.508 130.327  0.00  0.00    +0.214 C 
ENDROOT
BRANCH   6   7
ATOM      7  O   LIG A   1      -8.608  -0.499 131.260  0.00  0.00    -0.383 OA
ATOM      8  H   LIG A   1      -9.139  -1.304 131.132  0.00  0.00    +0.210 HD
ENDBRANCH   6   7
BRANCH   4   9
ATOM      9  O   LIG A   1      -6.209   2.198 132.281  0.00  0.00    -0.387 OA
ATOM     10  H   LIG A   1      -6.863   1.735 132.840  0.00  0.00    +0.210 HD
ENDBRANCH   4   9
BRANCH   5  11
ATOM     11  O   LIG A   1      -5.083  -0.182 130.223  0.00  0.00    -0.386 OA
ATOM     12  H   LIG A   1      -5.162   0.114 129.290  0.00  0.00    +0.210 HD
ENDBRANCH   5  11
BRANCH   3  13
ATOM     13  C   LIG A   1      -7.856   3.731 130.314  0.00  0.00    +0.197 C 
BRANCH  13  14
ATOM     14  O   LIG A   1      -8.907   4.151 129.422  0.00  0.00    -0.346 OA
BRANCH  14  15
ATOM     15  C   LIG A   1      -9.386   5.477 129.726  0.00  0.00    +0.282 C 
ATOM     16  C   LIG A   1     -10.479   5.326 130.818  0.00  0.00    +0.201 C 
ATOM     17  C   LIG A   1     -11.262   6.625 131.025  0.00  0.00    +0.179 C 
ATOM     18  C   LIG A   1     -11.725   7.215 129.686  0.00  0.00    +0.174 C 
ATOM     19  C   LIG A   1     -10.500   7.372 128.780  0.00  0.00    +0.149 C 
ATOM     20  C   LIG A   1     -10.851   7.970 127.423  0.00  0.00    +0.040 C 
ATOM     21  O   LIG A   1      -9.902   6.094 128.547  0.00  0.00    -0.343 OA
BRANCH  16  22
ATOM     22  O   LIG A   1     -11.434   4.301 130.457  0.00  0.00    -0.384 OA
ATOM     23  H   LIG A   1     -11.751   3.946 131.315  0.00  0.00    +0.210 HD
ENDBRANCH  16  22
BRANCH  17  24
ATOM     24  O   LIG A   1     -12.419   6.389 131.845  0.00  0.00    -0.386 OA
ATOM     25  H   LIG A   1     -12.496   5.412 131.889  0.00  0.00    +0.210 HD
ENDBRANCH  17  24
BRANCH  18  26
ATOM     26  O   LIG A   1     -12.360   8.474 129.927  0.00  0.00    -0.387 OA
ATOM     27  H   LIG A   1     -11.646   9.139 129.852  0.00  0.00    +0.210 HD
ENDBRANCH  18  26
ENDBRANCH  14  15
ENDBRANCH  13  14
ENDBRANCH   3  13
BRANCH   1  28
ATOM     28  O   LIG A   1      -7.024  -0.234 127.985  0.00  0.00    -0.454 OA
BRANCH  28  34
ATOM     29  C   LIG A   1      -5.958   3.638 123.023  0.00  0.00    +0.139 A 
ATOM     30  O   LIG A   1      -6.908   2.659 123.242  0.00  0.00    -0.454 OA
ATOM     31  C   LIG A   1      -6.903   1.986 124.431  0.00  0.00    +0.146 A 
ATOM     32  C   LIG A   1      -6.095   2.316 125.507  0.00  0.00    +0.109 A 
ATOM     33  C   LIG A   1      -6.160   1.554 126.688  0.00  0.00    +0.177 A 
ATOM     34  C   LIG A   1      -7.017   0.431 126.779  0.00  0.00    +0.207 A 
ATOM     35  C   LIG A   1      -7.813   0.108 125.661  0.00  0.00    +0.169 A 
ATOM     36  C   LIG A   1      -7.766   0.907 124.515  0.00  0.00    +0.096 A 
ATOM     37  C   LIG A   1      -5.118   4.056 123.981  0.00  0.00    +0.098 A 
ATOM     38  C   LIG A   1      -5.178   3.440 125.319  0.00  0.00    +0.197 A 
ATOM     39  O   LIG A   1      -4.454   3.831 126.241  0.00  0.00    -0.287 OA
BRANCH  29  43
ATOM     40  C   LIG A   1      -5.934   5.230 119.024  0.00  0.00    +0.158 A 
ATOM     41  C   LIG A   1      -4.854   5.466 119.858  0.00  0.00    +0.050 A 
ATOM     42  C   LIG A   1      -4.867   4.936 121.157  0.00  0.00    +0.015 A 
ATOM     43  C   LIG A   1      -5.953   4.166 121.633  0.00  0.00    +0.021 A 
ATOM     44  C   LIG A   1      -7.023   3.942 120.757  0.00  0.00    +0.060 A 
ATOM     45  C   LIG A   1      -7.006   4.469 119.473  0.00  0.00    +0.159 A 
BRANCH  45  46
ATOM     46  O   LIG A   1      -8.074   4.230 118.656  0.00  0.00    -0.503 OA
ATOM     47  H   LIG A   1      -8.725   3.779 119.229  0.00  0.00    +0.292 HD
ENDBRANCH  45  46
BRANCH  40  48
ATOM     48  O   LIG A   1      -5.997   5.724 117.753  0.00  0.00    -0.503 OA
ATOM     49  H   LIG A   1      -5.400   5.199 117.193  0.00  0.00    +0.292 HD
ENDBRANCH  40  48
ENDBRANCH  29  43
BRANCH  35  50
ATOM     50  O   LIG A   1      -8.697  -0.939 125.707  0.00  0.00    -0.491 OA
ATOM     51  C   LIG A   1      -8.198  -2.154 125.141  0.00  0.00    +0.277 C 
ENDBRANCH  35  50
BRANCH  33  52
ATOM     52  O   LIG A   1      -5.359   1.872 127.765  0.00  0.00    -0.503 OA
ATOM     53  H   LIG A   1      -4.473   1.463 127.627  0.00  0.00    +0.292 HD
ENDBRANCH  33  52
ENDBRANCH  28  34
ENDBRANCH   1  28
TORSDOF 16
ENDMDL
MODEL 4
REMARK VINA RESULT:      -8.2      2.018      5.000
REMARK  Name = NuBBE_125
REMARK  18 active torsions:
REMARK  status: ('A' for Active; 'I' for Inactive)
REMARK    1  A    between atoms: O_1  and  C_2
REMARK    2  A    between atoms: C_5  and  C_6
REMARK    3  A    between atoms: C_10  and  O_11
REMARK    4  A    between atoms: C_12  and  O_13
REMARK    5  A    between atoms: O_13  and  C_14
REMARK    6  A    between atoms: C_17  and  C_25
REMARK    7  A    between atoms: C_19  and  O_24
REMARK    8  A    between atoms: C_21  and  O_23
REMARK    9  A    between atoms: C_25  and  O_26
REMARK   10  A    between atoms: O_26  and  C_27
REMARK   11  A    between atoms: C_29  and  O_41
REMARK   12  A    between atoms: C_31  and  O_40
REMARK   13  A    between atoms: C_33  and  O_35
REMARK   14  A    between atoms: C_36  and  C_38
REMARK   15  A    between atoms: C_42  and  O_44
REMARK   16  A    between atoms: C_45  and  O_46
REMARK   17  A    between atoms: O_46  and  C_47
REMARK   18  A    between atoms: C_53  and  O_54
REMARK                            x       y       z     vdW  Elec       q    Type
REMARK                         _______ _______ _______ _____ _____    ______ ____
ROOT
ATOM      1  C   LIG A   1      -7.677  -1.574 128.215  0.00  0.00    +0.340 C 
ATOM      2  O   LIG A   1      -7.784  -0.580 129.253  0.00  0.00    -0.331 OA
ATOM      3  C   LIG A   1      -8.084  -1.085 130.563  0.00  0.00    +0.179 C 
ATOM      4  C   LIG A   1      -6.949  -2.042 130.980  0.00  0.00    +0.177 C 
ATOM      5  C   LIG A   1      -6.726  -3.160 129.937  0.00  0.00    +0.180 C 
ATOM      6  C   LIG A   1      -7.658  -3.034 128.727  0.00  0.00    +0.214 C 
ENDROOT
BRANCH   6   7
ATOM      7  O   LIG A   1      -8.997  -3.445 129.064  0.00  0.00    -0.383 OA
ATOM      8  H   LIG A   1      -9.396  -3.886 128.293  0.00  0.00    +0.210 HD
ENDBRANCH   6   7
BRANCH   4   9
ATOM      9  O   LIG A   1      -7.208  -2.633 132.259  0.00  0.00    -0.387 OA
ATOM     10  H   LIG A   1      -7.907  -2.092 132.673  0.00  0.00    +0.210 HD
ENDBRANCH   4   9
BRANCH   5  11
ATOM     11  O   LIG A   1      -5.350  -3.184 129.537  0.00  0.00    -0.386 OA
ATOM     12  H   LIG A   1      -5.132  -2.325 129.114  0.00  0.00    +0.210 HD
ENDBRANCH   5  11
BRANCH   3  13
ATOM     13  C   LIG A   1      -8.211   0.094 131.557  0.00  0.00    +0.197 C 
BRANCH  13  14
ATOM     14  O   LIG A   1      -9.181   1.054 131.095  0.00  0.00    -0.346 OA
BRANCH  14  15
ATOM     15  C   LIG A   1      -8.642   2.390 131.034  0.00  0.00    +0.282 C 
ATOM     16  C   LIG A   1      -8.995   2.959 129.634  0.00  0.00    +0.201 C 
ATOM     17  C   LIG A   1      -8.241   4.258 129.339  0.00  0.00    +0.179 C 
ATOM     18  C   LIG A   1      -6.745   4.115 129.650  0.00  0.00    +0.174 C 
ATOM     19  C   LIG A   1      -6.598   3.633 131.096  0.00  0.00    +0.149 C 
ATOM     20  C   LIG A   1      -5.141   3.474 131.513  0.00  0.00    +0.040 C 
ATOM     21  O   LIG A   1      -7.232   2.359 131.249  0.00  0.00    -0.343 OA
BRANCH  16  22
ATOM     22  O   LIG A   1      -8.654   2.017 128.591  0.00  0.00    -0.384 OA
ATOM     23  H   LIG A   1      -8.917   1.143 128.952  0.00  0.00    +0.210 HD
ENDBRANCH  16  22
BRANCH  17  24
ATOM     24  O   LIG A   1      -8.387   4.621 127.955  0.00  0.00    -0.386 OA
ATOM     25  H   LIG A   1      -7.686   4.116 127.491  0.00  0.00    +0.210 HD
ENDBRANCH  17  24
BRANCH  18  26
ATOM     26  O   LIG A   1      -6.107   5.381 129.455  0.00  0.00    -0.387 OA
ATOM     27  H   LIG A   1      -5.674   5.584 130.309  0.00  0.00    +0.210 HD
ENDBRANCH  18  26
ENDBRANCH  14  15
ENDBRANCH  13  14
ENDBRANCH   3  13
BRANCH   1  28
ATOM     28  O   LIG A   1      -6.456  -1.364 127.478  0.00  0.00    -0.454 OA
BRANCH  28  34
ATOM     29  C   LIG A   1      -6.189   3.209 123.033  0.00  0.00    +0.139 A 
ATOM     30  O   LIG A   1      -6.633   1.902 122.985  0.00  0.00    -0.454 OA
ATOM     31  C   LIG A   1      -6.582   1.145 124.122  0.00  0.00    +0.146 A 
ATOM     32  C   LIG A   1      -6.247   1.641 125.371  0.00  0.00    +0.109 A 
ATOM     33  C   LIG A   1      -6.216   0.775 126.480  0.00  0.00    +0.177 A 
ATOM     34  C   LIG A   1      -6.490  -0.606 126.328  0.00  0.00    +0.207 A 
ATOM     35  C   LIG A   1      -6.807  -1.085 125.041  0.00  0.00    +0.169 A 
ATOM     36  C   LIG A   1      -6.878  -0.198 123.963  0.00  0.00    +0.096 A 
ATOM     37  C   LIG A   1      -5.841   3.813 124.178  0.00  0.00    +0.098 A 
ATOM     38  C   LIG A   1      -5.902   3.060 125.444  0.00  0.00    +0.197 A 
ATOM     39  O   LIG A   1      -5.637   3.596 126.526  0.00  0.00    -0.287 OA
BRANCH  29  43
ATOM     40  C   LIG A   1      -5.994   5.173 119.207  0.00  0.00    +0.158 A 
ATOM     41  C   LIG A   1      -4.920   5.269 120.078  0.00  0.00    +0.050 A 
ATOM     42  C   LIG A   1      -4.989   4.618 121.319  0.00  0.00    +0.015 A 
ATOM     43  C   LIG A   1      -6.126   3.867 121.700  0.00  0.00    +0.021 A 
ATOM     44  C   LIG A   1      -7.187   3.787 120.789  0.00  0.00    +0.060 A 
ATOM     45  C   LIG A   1      -7.114   4.434 119.563  0.00  0.00    +0.159 A 
BRANCH  45  46
ATOM     46  O   LIG A   1      -8.175   4.334 118.709  0.00  0.00    -0.503 OA
ATOM     47  H   LIG A   1      -8.792   3.721 119.156  0.00  0.00    +0.292 HD
ENDBRANCH  45  46
BRANCH  40  48
ATOM     48  O   LIG A   1      -6.002   5.790 117.989  0.00  0.00    -0.503 OA
ATOM     49  H   LIG A   1      -5.450   5.269 117.381  0.00  0.00    +0.292 HD
ENDBRANCH  40  48
ENDBRANCH  29  43
BRANCH  35  50
ATOM     50  O   LIG A   1      -7.128  -2.403 124.841  0.00  0.00    -0.491 OA
ATOM     51  C   LIG A   1      -7.719  -2.676 123.567  0.00  0.00    +0.277 C 
ENDBRANCH  35  50
BRANCH  33  52
ATOM     52  O   LIG A   1      -5.883   1.256 127.728  0.00  0.00    -0.503 OA
ATOM     53  H   LIG A   1      -5.028   1.739 127.659  0.00  0.00    +0.292 HD
ENDBRANCH  33  52
ENDBRANCH  28  34
ENDBRANCH   1  28
TORSDOF 16
ENDMDL
MODEL 5
REMARK VINA RESULT:      -8.0      2.857      9.598
REMARK  Name = NuBBE_125
REMARK  18 active torsions:
REMARK  status: ('A' for Active; 'I' for Inactive)
REMARK    1  A    between atoms: O_1  and  C_2
REMARK    2  A    between atoms: C_5  and  C_6
REMARK    3  A    between atoms: C_10  and  O_11
REMARK    4  A    between atoms: C_12  and  O_13
REMARK    5  A    between atoms: O_13  and  C_14
REMARK    6  A    between atoms: C_17  and  C_25
REMARK    7  A    between atoms: C_19  and  O_24
REMARK    8  A    between atoms: C_21  and  O_23
REMARK    9  A    between atoms: C_25  and  O_26
REMARK   10  A    between atoms: O_26  and  C_27
REMARK   11  A    between atoms: C_29  and  O_41
REMARK   12  A    between atoms: C_31  and  O_40
REMARK   13  A    between atoms: C_33  and  O_35
REMARK   14  A    between atoms: C_36  and  C_38
REMARK   15  A    between atoms: C_42  and  O_44
REMARK   16  A    between atoms: C_45  and  O_46
REMARK   17  A    between atoms: O_46  and  C_47
REMARK   18  A    between atoms: C_53  and  O_54
REMARK                            x       y       z     vdW  Elec       q    Type
REMARK                         _______ _______ _______ _____ _____    ______ ____
ROOT
ATOM      1  C   LIG A   1      -6.986   1.200 124.414  0.00  0.00    +0.340 C 
ATOM      2  O   LIG A   1      -6.114   1.813 125.383  0.00  0.00    -0.331 OA
ATOM      3  C   LIG A   1      -5.740   3.172 125.105  0.00  0.00    +0.179 C 
ATOM      4  C   LIG A   1      -7.024   4.024 125.063  0.00  0.00    +0.177 C 
ATOM      5  C   LIG A   1      -8.054   3.462 124.057  0.00  0.00    +0.180 C 
ATOM      6  C   LIG A   1      -7.571   2.181 123.370  0.00  0.00    +0.214 C 
ENDROOT
BRANCH   6   7
ATOM      7  O   LIG A   1      -6.575   2.476 122.372  0.00  0.00    -0.383 OA
ATOM      8  H   LIG A   1      -6.593   1.781 121.691  0.00  0.00    +0.210 HD
ENDBRANCH   6   7
BRANCH   4   9
ATOM      9  O   LIG A   1      -6.735   5.388 124.732  0.00  0.00    -0.387 OA
ATOM     10  H   LIG A   1      -7.371   5.640 124.035  0.00  0.00    +0.210 HD
ENDBRANCH   4   9
BRANCH   5  11
ATOM     11  O   LIG A   1      -9.314   3.263 124.713  0.00  0.00    -0.386 OA
ATOM     12  H   LIG A   1      -9.383   2.319 124.974  0.00  0.00    +0.210 HD
ENDBRANCH   5  11
BRANCH   3  13
ATOM     13  C   LIG A   1      -4.773   3.678 126.202  0.00  0.00    +0.197 C 
BRANCH  13  14
ATOM     14  O   LIG A   1      -5.376   4.736 126.972  0.00  0.00    -0.346 OA
BRANCH  14  15
ATOM     15  C   LIG A   1      -4.884   4.775 128.327  0.00  0.00    +0.282 C 
ATOM     16  C   LIG A   1      -5.804   3.853 129.172  0.00  0.00    +0.201 C 
ATOM     17  C   LIG A   1      -5.564   4.028 130.673  0.00  0.00    +0.179 C 
ATOM     18  C   LIG A   1      -5.555   5.511 131.067  0.00  0.00    +0.174 C 
ATOM     19  C   LIG A   1      -4.528   6.234 130.191  0.00  0.00    +0.149 C 
ATOM     20  C   LIG A   1      -4.428   7.720 130.515  0.00  0.00    +0.040 C 
ATOM     21  O   LIG A   1      -4.897   6.117 128.813  0.00  0.00    -0.343 OA
BRANCH  16  22
ATOM     22  O   LIG A   1      -7.199   4.144 128.923  0.00  0.00    -0.384 OA
ATOM     23  H   LIG A   1      -7.433   4.823 129.593  0.00  0.00    +0.210 HD
ENDBRANCH  16  22
BRANCH  17  24
ATOM     24  O   LIG A   1      -6.591   3.361 131.427  0.00  0.00    -0.386 OA
ATOM     25  H   LIG A   1      -7.374   3.366 130.837  0.00  0.00    +0.210 HD
ENDBRANCH  17  24
BRANCH  18  26
ATOM     26  O   LIG A   1      -5.226   5.622 132.455  0.00  0.00    -0.387 OA
ATOM     27  H   LIG A   1      -4.678   6.429 132.525  0.00  0.00    +0.210 HD
ENDBRANCH  18  26
ENDBRANCH  14  15
ENDBRANCH  13  14
ENDBRANCH   3  13
BRANCH   1  28
ATOM     28  O   LIG A   1      -8.099   0.587 125.095  0.00  0.00    -0.454 OA
BRANCH  28  34
ATOM     29  C   LIG A   1      -7.509  -1.508 131.095  0.00  0.00    +0.139 A 
ATOM     30  O   LIG A   1      -7.132  -2.058 129.885  0.00  0.00    -0.454 OA
ATOM     31  C   LIG A   1      -7.379  -1.361 128.736  0.00  0.00    +0.146 A 
ATOM     32  C   LIG A   1      -7.856  -0.060 128.704  0.00  0.00    +0.109 A 
ATOM     33  C   LIG A   1      -8.086   0.569 127.467  0.00  0.00    +0.177 A 
ATOM     34  C   LIG A   1      -7.867  -0.124 126.251  0.00  0.00    +0.207 A 
ATOM     35  C   LIG A   1      -7.401  -1.452 126.316  0.00  0.00    +0.169 A 
ATOM     36  C   LIG A   1      -7.136  -2.041 127.556  0.00  0.00    +0.096 A 
ATOM     37  C   LIG A   1      -7.979  -0.257 131.206  0.00  0.00    +0.098 A 
ATOM     38  C   LIG A   1      -8.132   0.570 129.996  0.00  0.00    +0.197 A 
ATOM     39  O   LIG A   1      -8.516   1.743 130.061  0.00  0.00    -0.287 OA
BRANCH  29  43
ATOM     40  C   LIG A   1      -7.063  -4.245 134.387  0.00  0.00    +0.158 A 
ATOM     41  C   LIG A   1      -6.226  -4.358 133.289  0.00  0.00    +0.050 A 
ATOM     42  C   LIG A   1      -6.373  -3.457 132.225  0.00  0.00    +0.015 A 
ATOM     43  C   LIG A   1      -7.352  -2.436 132.247  0.00  0.00    +0.021 A 
ATOM     44  C   LIG A   1      -8.174  -2.349 133.379  0.00  0.00    +0.060 A 
ATOM     45  C   LIG A   1      -8.024  -3.244 134.429  0.00  0.00    +0.159 A 
BRANCH  45  46
ATOM     46  O   LIG A   1      -8.852  -3.125 135.509  0.00  0.00    -0.503 OA
ATOM     47  H   LIG A   1      -8.251  -2.948 136.260  0.00  0.00    +0.292 HD
ENDBRANCH  45  46
BRANCH  40  48
ATOM     48  O   LIG A   1      -6.987  -5.095 135.453  0.00  0.00    -0.503 OA
ATOM     49  H   LIG A   1      -6.135  -4.946 135.900  0.00  0.00    +0.292 HD
ENDBRANCH  40  48
ENDBRANCH  29  43
BRANCH  35  50
ATOM     50  O   LIG A   1      -7.126  -2.157 125.172  0.00  0.00    -0.491 OA
ATOM     51  C   LIG A   1      -5.731  -2.339 124.915  0.00  0.00    +0.277 C 
ENDBRANCH  35  50
BRANCH  33  52
ATOM     52  O   LIG A   1      -8.562   1.862 127.422  0.00  0.00    -0.503 OA
ATOM     53  H   LIG A   1      -8.490   2.190 126.496  0.00  0.00    +0.292 HD
ENDBRANCH  33  52
ENDBRANCH  28  34
ENDBRANCH   1  28
TORSDOF 16
ENDMDL
MODEL 6
REMARK VINA RESULT:      -8.0      6.014     10.755
REMARK  Name = NuBBE_125
REMARK  18 active torsions:
REMARK  status: ('A' for Active; 'I' for Inactive)
REMARK    1  A    between atoms: O_1  and  C_2
REMARK    2  A    between atoms: C_5  and  C_6
REMARK    3  A    between atoms: C_10  and  O_11
REMARK    4  A    between atoms: C_12  and  O_13
REMARK    5  A    between atoms: O_13  and  C_14
REMARK    6  A    between atoms: C_17  and  C_25
REMARK    7  A    between atoms: C_19  and  O_24
REMARK    8  A    between atoms: C_21  and  O_23
REMARK    9  A    between atoms: C_25  and  O_26
REMARK   10  A    between atoms: O_26  and  C_27
REMARK   11  A    between atoms: C_29  and  O_41
REMARK   12  A    between atoms: C_31  and  O_40
REMARK   13  A    between atoms: C_33  and  O_35
REMARK   14  A    between atoms: C_36  and  C_38
REMARK   15  A    between atoms: C_42  and  O_44
REMARK   16  A    between atoms: C_45  and  O_46
REMARK   17  A    between atoms: O_46  and  C_47
REMARK   18  A    between atoms: C_53  and  O_54
REMARK                            x       y       z     vdW  Elec       q    Type
REMARK                         _______ _______ _______ _____ _____    ______ ____
ROOT
ATOM      1  C   LIG A   1      -5.470   1.548 130.143  0.00  0.00    +0.340 C 
ATOM      2  O   LIG A   1      -6.180   2.776 129.890  0.00  0.00    -0.331 OA
ATOM      3  C   LIG A   1      -6.910   2.824 128.655  0.00  0.00    +0.179 C 
ATOM      4  C   LIG A   1      -7.964   1.700 128.676  0.00  0.00    +0.177 C 
ATOM      5  C   LIG A   1      -7.327   0.318 128.949  0.00  0.00    +0.180 C 
ATOM      6  C   LIG A   1      -5.812   0.399 129.164  0.00  0.00    +0.214 C 
ENDROOT
BRANCH   6   7
ATOM      7  O   LIG A   1      -5.124   0.607 127.916  0.00  0.00    -0.383 OA
ATOM      8  H   LIG A   1      -5.125   1.558 127.708  0.00  0.00    +0.210 HD
ENDBRANCH   6   7
BRANCH   4   9
ATOM      9  O   LIG A   1      -8.698   1.648 127.446  0.00  0.00    -0.387 OA
ATOM     10  H   LIG A   1      -8.124   2.056 126.769  0.00  0.00    +0.210 HD
ENDBRANCH   4   9
BRANCH   5  11
ATOM     11  O   LIG A   1      -7.982  -0.308 130.059  0.00  0.00    -0.386 OA
ATOM     12  H   LIG A   1      -8.626  -0.963 129.712  0.00  0.00    +0.210 HD
ENDBRANCH   5  11
BRANCH   3  13
ATOM     13  C   LIG A   1      -7.579   4.211 128.502  0.00  0.00    +0.197 C 
BRANCH  13  14
ATOM     14  O   LIG A   1      -8.927   4.191 129.011  0.00  0.00    -0.346 OA
BRANCH  14  15
ATOM     15  C   LIG A   1      -9.366   5.493 129.448  0.00  0.00    +0.282 C 
ATOM     16  C   LIG A   1     -10.430   5.266 130.555  0.00  0.00    +0.201 C 
ATOM     17  C   LIG A   1     -11.177   6.556 130.903  0.00  0.00    +0.179 C 
ATOM     18  C   LIG A   1     -11.666   7.274 129.638  0.00  0.00    +0.174 C 
ATOM     19  C   LIG A   1     -10.464   7.488 128.712  0.00  0.00    +0.149 C 
ATOM     20  C   LIG A   1     -10.841   8.213 127.426  0.00  0.00    +0.040 C 
ATOM     21  O   LIG A   1      -9.902   6.224 128.346  0.00  0.00    -0.343 OA
BRANCH  16  22
ATOM     22  O   LIG A   1     -11.418   4.297 130.133  0.00  0.00    -0.384 OA
ATOM     23  H   LIG A   1     -11.982   4.158 130.925  0.00  0.00    +0.210 HD
ENDBRANCH  16  22
BRANCH  17  24
ATOM     24  O   LIG A   1     -12.315   6.270 131.734  0.00  0.00    -0.386 OA
ATOM     25  H   LIG A   1     -12.107   6.694 132.593  0.00  0.00    +0.210 HD
ENDBRANCH  17  24
BRANCH  18  26
ATOM     26  O   LIG A   1     -12.264   8.519 130.011  0.00  0.00    -0.387 OA
ATOM     27  H   LIG A   1     -13.088   8.575 129.487  0.00  0.00    +0.210 HD
ENDBRANCH  18  26
ENDBRANCH  14  15
ENDBRANCH  13  14
ENDBRANCH   3  13
BRANCH   1  28
ATOM     28  O   LIG A   1      -5.780   1.083 131.472  0.00  0.00    -0.454 OA
BRANCH  28  34
ATOM     29  C   LIG A   1      -6.711   5.574 135.911  0.00  0.00    +0.139 A 
ATOM     30  O   LIG A   1      -7.574   4.677 135.312  0.00  0.00    -0.454 OA
ATOM     31  C   LIG A   1      -7.080   3.804 134.384  0.00  0.00    +0.146 A 
ATOM     32  C   LIG A   1      -5.733   3.652 134.101  0.00  0.00    +0.109 A 
ATOM     33  C   LIG A   1      -5.326   2.728 133.120  0.00  0.00    +0.177 A 
ATOM     34  C   LIG A   1      -6.281   1.976 132.394  0.00  0.00    +0.207 A 
ATOM     35  C   LIG A   1      -7.645   2.167 132.690  0.00  0.00    +0.169 A 
ATOM     36  C   LIG A   1      -8.024   3.056 133.701  0.00  0.00    +0.096 A 
ATOM     37  C   LIG A   1      -5.384   5.533 135.728  0.00  0.00    +0.098 A 
ATOM     38  C   LIG A   1      -4.806   4.514 134.833  0.00  0.00    +0.197 A 
ATOM     39  O   LIG A   1      -3.584   4.413 134.676  0.00  0.00    -0.287 OA
BRANCH  29  43
ATOM     40  C   LIG A   1      -8.698   8.453 138.421  0.00  0.00    +0.158 A 
ATOM     41  C   LIG A   1      -7.561   7.813 138.886  0.00  0.00    +0.050 A 
ATOM     42  C   LIG A   1      -6.915   6.882 138.058  0.00  0.00    +0.015 A 
ATOM     43  C   LIG A   1      -7.396   6.585 136.761  0.00  0.00    +0.021 A 
ATOM     44  C   LIG A   1      -8.543   7.260 136.323  0.00  0.00    +0.060 A 
ATOM     45  C   LIG A   1      -9.178   8.178 137.147  0.00  0.00    +0.159 A 
BRANCH  45  46
ATOM     46  O   LIG A   1     -10.297   8.807 136.681  0.00  0.00    -0.503 OA
ATOM     47  H   LIG A   1      -9.957   9.504 136.086  0.00  0.00    +0.292 HD
ENDBRANCH  45  46
BRANCH  40  48
ATOM     48  O   LIG A   1      -9.385   9.359 139.176  0.00  0.00    -0.503 OA
ATOM     49  H   LIG A   1     -10.314   9.075 139.221  0.00  0.00    +0.292 HD
ENDBRANCH  40  48
ENDBRANCH  29  43
BRANCH  35  50
ATOM     50  O   LIG A   1      -8.613   1.433 132.054  0.00  0.00    -0.491 OA
ATOM     51  C   LIG A   1      -9.929   1.985 132.152  0.00  0.00    +0.277 C 
ENDBRANCH  35  50
BRANCH  33  52
ATOM     52  O   LIG A   1      -3.988   2.569 132.828  0.00  0.00    -0.503 OA
ATOM     53  H   LIG A   1      -3.784   3.078 132.009  0.00  0.00    +0.292 HD
ENDBRANCH  33  52
ENDBRANCH  28  34
ENDBRANCH   1  28
TORSDOF 16
ENDMDL
MODEL 7
REMARK VINA RESULT:      -7.9      3.951      5.554
REMARK  Name = NuBBE_125
REMARK  18 active torsions:
REMARK  status: ('A' for Active; 'I' for Inactive)
REMARK    1  A    between atoms: O_1  and  C_2
REMARK    2  A    between atoms: C_5  and  C_6
REMARK    3  A    between atoms: C_10  and  O_11
REMARK    4  A    between atoms: C_12  and  O_13
REMARK    5  A    between atoms: O_13  and  C_14
REMARK    6  A    between atoms: C_17  and  C_25
REMARK    7  A    between atoms: C_19  and  O_24
REMARK    8  A    between atoms: C_21  and  O_23
REMARK    9  A    between atoms: C_25  and  O_26
REMARK   10  A    between atoms: O_26  and  C_27
REMARK   11  A    between atoms: C_29  and  O_41
REMARK   12  A    between atoms: C_31  and  O_40
REMARK   13  A    between atoms: C_33  and  O_35
REMARK   14  A    between atoms: C_36  and  C_38
REMARK   15  A    between atoms: C_42  and  O_44
REMARK   16  A    between atoms: C_45  and  O_46
REMARK   17  A    between atoms: O_46  and  C_47
REMARK   18  A    between atoms: C_53  and  O_54
REMARK                            x       y       z     vdW  Elec       q    Type
REMARK                         _______ _______ _______ _____ _____    ______ ____
ROOT
ATOM      1  C   LIG A   1      -5.275  -0.382 129.407  0.00  0.00    +0.340 C 
ATOM      2  O   LIG A   1      -6.606  -0.873 129.155  0.00  0.00    -0.331 OA
ATOM      3  C   LIG A   1      -6.762  -2.299 129.220  0.00  0.00    +0.179 C 
ATOM      4  C   LIG A   1      -6.382  -2.758 130.641  0.00  0.00    +0.177 C 
ATOM      5  C   LIG A   1      -4.966  -2.285 131.040  0.00  0.00    +0.180 C 
ATOM      6  C   LIG A   1      -4.293  -1.449 129.947  0.00  0.00    +0.214 C 
ENDROOT
BRANCH   6   7
ATOM      7  O   LIG A   1      -3.842  -2.284 128.863  0.00  0.00    -0.383 OA
ATOM      8  H   LIG A   1      -4.538  -2.931 128.651  0.00  0.00    +0.210 HD
ENDBRANCH   6   7
BRANCH   4   9
ATOM      9  O   LIG A   1      -6.457  -4.184 130.768  0.00  0.00    -0.387 OA
ATOM     10  H   LIG A   1      -5.900  -4.419 131.535  0.00  0.00    +0.210 HD
ENDBRANCH   4   9
BRANCH   5  11
ATOM     11  O   LIG A   1      -5.023  -1.574 132.284  0.00  0.00    -0.386 OA
ATOM     12  H   LIG A   1      -5.963  -1.501 132.558  0.00  0.00    +0.210 HD
ENDBRANCH   5  11
BRANCH   3  13
ATOM     13  C   LIG A   1      -8.224  -2.677 128.886  0.00  0.00    +0.197 C 
BRANCH  13  14
ATOM     14  O   LIG A   1      -8.315  -3.277 127.579  0.00  0.00    -0.346 OA
BRANCH  14  15
ATOM     15  C   LIG A   1      -7.790  -2.419 126.545  0.00  0.00    +0.282 C 
ATOM     16  C   LIG A   1      -9.004  -1.874 125.747  0.00  0.00    +0.201 C 
ATOM     17  C   LIG A   1      -8.572  -1.180 124.453  0.00  0.00    +0.179 C 
ATOM     18  C   LIG A   1      -7.580  -2.044 123.663  0.00  0.00    +0.174 C 
ATOM     19  C   LIG A   1      -6.414  -2.404 124.588  0.00  0.00    +0.149 C 
ATOM     20  C   LIG A   1      -5.357  -3.253 123.891  0.00  0.00    +0.040 C 
ATOM     21  O   LIG A   1      -6.896  -3.152 125.708  0.00  0.00    -0.343 OA
BRANCH  16  22
ATOM     22  O   LIG A   1      -9.905  -2.945 125.379  0.00  0.00    -0.384 OA
ATOM     23  H   LIG A   1     -10.615  -2.505 124.863  0.00  0.00    +0.210 HD
ENDBRANCH  16  22
BRANCH  17  24
ATOM     24  O   LIG A   1      -9.713  -0.916 123.619  0.00  0.00    -0.386 OA
ATOM     25  H   LIG A   1     -10.439  -1.441 124.017  0.00  0.00    +0.210 HD
ENDBRANCH  17  24
BRANCH  18  26
ATOM     26  O   LIG A   1      -7.130  -1.309 122.520  0.00  0.00    -0.387 OA
ATOM     27  H   LIG A   1      -6.453  -0.691 122.863  0.00  0.00    +0.210 HD
ENDBRANCH  18  26
ENDBRANCH  14  15
ENDBRANCH  13  14
ENDBRANCH   3  13
BRANCH   1  28
ATOM     28  O   LIG A   1      -5.335   0.677 130.383  0.00  0.00    -0.454 OA
BRANCH  28  34
ATOM     29  C   LIG A   1     -10.132   4.886 130.247  0.00  0.00    +0.139 A 
ATOM     30  O   LIG A   1      -8.942   4.821 129.548  0.00  0.00    -0.454 OA
ATOM     31  C   LIG A   1      -8.096   3.773 129.779  0.00  0.00    +0.146 A 
ATOM     32  C   LIG A   1      -8.411   2.680 130.569  0.00  0.00    +0.109 A 
ATOM     33  C   LIG A   1      -7.465   1.654 130.751  0.00  0.00    +0.177 A 
ATOM     34  C   LIG A   1      -6.179   1.743 130.164  0.00  0.00    +0.207 A 
ATOM     35  C   LIG A   1      -5.881   2.876 129.382  0.00  0.00    +0.169 A 
ATOM     36  C   LIG A   1      -6.852   3.861 129.176  0.00  0.00    +0.096 A 
ATOM     37  C   LIG A   1     -10.559   3.894 131.041  0.00  0.00    +0.098 A 
ATOM     38  C   LIG A   1      -9.727   2.688 131.208  0.00  0.00    +0.197 A 
ATOM     39  O   LIG A   1     -10.108   1.732 131.892  0.00  0.00    -0.287 OA
BRANCH  29  43
ATOM     40  C   LIG A   1     -12.343   8.531 129.652  0.00  0.00    +0.158 A 
ATOM     41  C   LIG A   1     -12.682   7.692 130.701  0.00  0.00    +0.050 A 
ATOM     42  C   LIG A   1     -11.950   6.510 130.892  0.00  0.00    +0.015 A 
ATOM     43  C   LIG A   1     -10.876   6.157 130.043  0.00  0.00    +0.021 A 
ATOM     44  C   LIG A   1     -10.558   7.037 128.999  0.00  0.00    +0.060 A 
ATOM     45  C   LIG A   1     -11.286   8.204 128.813  0.00  0.00    +0.159 A 
BRANCH  45  46
ATOM     46  O   LIG A   1     -10.945   9.026 127.779  0.00  0.00    -0.503 OA
ATOM     47  H   LIG A   1     -10.045   8.741 127.524  0.00  0.00    +0.292 HD
ENDBRANCH  45  46
BRANCH  40  48
ATOM     48  O   LIG A   1     -13.019   9.689 129.398  0.00  0.00    -0.503 OA
ATOM     49  H   LIG A   1     -13.886   9.459 129.020  0.00  0.00    +0.292 HD
ENDBRANCH  40  48
ENDBRANCH  29  43
BRANCH  35  50
ATOM     50  O   LIG A   1      -4.670   2.995 128.749  0.00  0.00    -0.491 OA
ATOM     51  C   LIG A   1      -4.705   2.688 127.352  0.00  0.00    +0.277 C 
ENDBRANCH  35  50
BRANCH  33  52
ATOM     52  O   LIG A   1      -7.766   0.562 131.536  0.00  0.00    -0.503 OA
ATOM     53  H   LIG A   1      -7.906   0.871 132.461  0.00  0.00    +0.292 HD
ENDBRANCH  33  52
ENDBRANCH  28  34
ENDBRANCH   1  28
TORSDOF 16
ENDMDL
MODEL 8
REMARK VINA RESULT:      -7.9      4.025      5.999
REMARK  Name = NuBBE_125
REMARK  18 active torsions:
REMARK  status: ('A' for Active; 'I' for Inactive)
REMARK    1  A    between atoms: O_1  and  C_2
REMARK    2  A    between atoms: C_5  and  C_6
REMARK    3  A    between atoms: C_10  and  O_11
REMARK    4  A    between atoms: C_12  and  O_13
REMARK    5  A    between atoms: O_13  and  C_14
REMARK    6  A    between atoms: C_17  and  C_25
REMARK    7  A    between atoms: C_19  and  O_24
REMARK    8  A    between atoms: C_21  and  O_23
REMARK    9  A    between atoms: C_25  and  O_26
REMARK   10  A    between atoms: O_26  and  C_27
REMARK   11  A    between atoms: C_29  and  O_41
REMARK   12  A    between atoms: C_31  and  O_40
REMARK   13  A    between atoms: C_33  and  O_35
REMARK   14  A    between atoms: C_36  and  C_38
REMARK   15  A    between atoms: C_42  and  O_44
REMARK   16  A    between atoms: C_45  and  O_46
REMARK   17  A    between atoms: O_46  and  C_47
REMARK   18  A    between atoms: C_53  and  O_54
REMARK                            x       y       z     vdW  Elec       q    Type
REMARK                         _______ _______ _______ _____ _____    ______ ____
ROOT
ATOM      1  C   LIG A   1      -4.488   0.256 129.880  0.00  0.00    +0.340 C 
ATOM      2  O   LIG A   1      -5.473   0.196 128.831  0.00  0.00    -0.331 OA
ATOM      3  C   LIG A   1      -5.784  -1.120 128.349  0.00  0.00    +0.179 C 
ATOM      4  C   LIG A   1      -6.341  -1.943 129.527  0.00  0.00    +0.177 C 
ATOM      5  C   LIG A   1      -5.372  -1.953 130.731  0.00  0.00    +0.180 C 
ATOM      6  C   LIG A   1      -4.111  -1.119 130.481  0.00  0.00    +0.214 C 
ENDROOT
BRANCH   6   7
ATOM      7  O   LIG A   1      -3.208  -1.805 129.593  0.00  0.00    -0.383 OA
ATOM      8  H   LIG A   1      -2.889  -2.615 130.028  0.00  0.00    +0.210 HD
ENDBRANCH   6   7
BRANCH   4   9
ATOM      9  O   LIG A   1      -6.621  -3.293 129.135  0.00  0.00    -0.387 OA
ATOM     10  H   LIG A   1      -6.248  -3.400 128.239  0.00  0.00    +0.210 HD
ENDBRANCH   4   9
BRANCH   5  11
ATOM     11  O   LIG A   1      -6.061  -1.520 131.912  0.00  0.00    -0.386 OA
ATOM     12  H   LIG A   1      -6.546  -2.287 132.288  0.00  0.00    +0.210 HD
ENDBRANCH   5  11
BRANCH   3  13
ATOM     13  C   LIG A   1      -6.817  -1.022 127.201  0.00  0.00    +0.197 C 
BRANCH  13  14
ATOM     14  O   LIG A   1      -7.430   0.282 127.170  0.00  0.00    -0.346 OA
BRANCH  14  15
ATOM     15  C   LIG A   1      -7.389   0.874 125.856  0.00  0.00    +0.282 C 
ATOM     16  C   LIG A   1      -7.549   2.406 126.042  0.00  0.00    +0.201 C 
ATOM     17  C   LIG A   1      -7.806   3.120 124.713  0.00  0.00    +0.179 C 
ATOM     18  C   LIG A   1      -8.911   2.421 123.910  0.00  0.00    +0.174 C 
ATOM     19  C   LIG A   1      -8.533   0.945 123.754  0.00  0.00    +0.149 C 
ATOM     20  C   LIG A   1      -9.563   0.160 122.953  0.00  0.00    +0.040 C 
ATOM     21  O   LIG A   1      -8.430   0.332 125.043  0.00  0.00    -0.343 OA
BRANCH  16  22
ATOM     22  O   LIG A   1      -8.664   2.708 126.914  0.00  0.00    -0.384 OA
ATOM     23  H   LIG A   1      -9.320   2.002 126.730  0.00  0.00    +0.210 HD
ENDBRANCH  16  22
BRANCH  17  24
ATOM     24  O   LIG A   1      -8.200   4.483 124.942  0.00  0.00    -0.386 OA
ATOM     25  H   LIG A   1      -7.657   4.773 125.706  0.00  0.00    +0.210 HD
ENDBRANCH  17  24
BRANCH  18  26
ATOM     26  O   LIG A   1      -9.040   3.063 122.638  0.00  0.00    -0.387 OA
ATOM     27  H   LIG A   1      -8.140   3.379 122.418  0.00  0.00    +0.210 HD
ENDBRANCH  18  26
ENDBRANCH  14  15
ENDBRANCH  13  14
ENDBRANCH   3  13
BRANCH   1  28
ATOM     28  O   LIG A   1      -4.988   1.072 130.958  0.00  0.00    -0.454 OA
BRANCH  28  34
ATOM     29  C   LIG A   1      -9.994   4.977 130.301  0.00  0.00    +0.139 A 
ATOM     30  O   LIG A   1      -8.705   5.039 129.808  0.00  0.00    -0.454 OA
ATOM     31  C   LIG A   1      -7.833   4.030 130.108  0.00  0.00    +0.146 A 
ATOM     32  C   LIG A   1      -8.192   2.861 130.759  0.00  0.00    +0.109 A 
ATOM     33  C   LIG A   1      -7.216   1.884 131.028  0.00  0.00    +0.177 A 
ATOM     34  C   LIG A   1      -5.862   2.097 130.672  0.00  0.00    +0.207 A 
ATOM     35  C   LIG A   1      -5.524   3.305 130.029  0.00  0.00    +0.169 A 
ATOM     36  C   LIG A   1      -6.518   4.240 129.729  0.00  0.00    +0.096 A 
ATOM     37  C   LIG A   1     -10.471   3.901 130.944  0.00  0.00    +0.098 A 
ATOM     38  C   LIG A   1      -9.592   2.740 131.166  0.00  0.00    +0.197 A 
ATOM     39  O   LIG A   1     -10.008   1.711 131.711  0.00  0.00    -0.287 OA
BRANCH  29  43
ATOM     40  C   LIG A   1     -12.343   8.515 129.600  0.00  0.00    +0.158 A 
ATOM     41  C   LIG A   1     -12.661   7.686 130.663  0.00  0.00    +0.050 A 
ATOM     42  C   LIG A   1     -11.885   6.539 130.888  0.00  0.00    +0.015 A 
ATOM     43  C   LIG A   1     -10.786   6.212 130.059  0.00  0.00    +0.021 A 
ATOM     44  C   LIG A   1     -10.491   7.081 129.000  0.00  0.00    +0.060 A 
ATOM     45  C   LIG A   1     -11.263   8.214 128.781  0.00  0.00    +0.159 A 
BRANCH  45  46
ATOM     46  O   LIG A   1     -10.942   9.027 127.733  0.00  0.00    -0.503 OA
ATOM     47  H   LIG A   1     -11.233   8.534 126.941  0.00  0.00    +0.292 HD
ENDBRANCH  45  46
BRANCH  40  48
ATOM     48  O   LIG A   1     -13.062   9.640 129.312  0.00  0.00    -0.503 OA
ATOM     49  H   LIG A   1     -13.062   9.762 128.347  0.00  0.00    +0.292 HD
ENDBRANCH  40  48
ENDBRANCH  29  43
BRANCH  35  50
ATOM     50  O   LIG A   1      -4.238   3.546 129.617  0.00  0.00    -0.491 OA
ATOM     51  C   LIG A   1      -4.079   3.619 128.198  0.00  0.00    +0.277 C 
ENDBRANCH  35  50
BRANCH  33  52
ATOM     52  O   LIG A   1      -7.560   0.718 131.677  0.00  0.00    -0.503 OA
ATOM     53  H   LIG A   1      -8.005   0.951 132.524  0.00  0.00    +0.292 HD
ENDBRANCH  33  52
ENDBRANCH  28  34
ENDBRANCH   1  28
TORSDOF 16
ENDMDL
MODEL 9
REMARK VINA RESULT:      -7.7      6.590     10.214
REMARK  Name = NuBBE_125
REMARK  18 active torsions:
REMARK  status: ('A' for Active; 'I' for Inactive)
REMARK    1  A    between atoms: O_1  and  C_2
REMARK    2  A    between atoms: C_5  and  C_6
REMARK    3  A    between atoms: C_10  and  O_11
REMARK    4  A    between atoms: C_12  and  O_13
REMARK    5  A    between atoms: O_13  and  C_14
REMARK    6  A    between atoms: C_17  and  C_25
REMARK    7  A    between atoms: C_19  and  O_24
REMARK    8  A    between atoms: C_21  and  O_23
REMARK    9  A    between atoms: C_25  and  O_26
REMARK   10  A    between atoms: O_26  and  C_27
REMARK   11  A    between atoms: C_29  and  O_41
REMARK   12  A    between atoms: C_31  and  O_40
REMARK   13  A    between atoms: C_33  and  O_35
REMARK   14  A    between atoms: C_36  and  C_38
REMARK   15  A    between atoms: C_42  and  O_44
REMARK   16  A    between atoms: C_45  and  O_46
REMARK   17  A    between atoms: O_46  and  C_47
REMARK   18  A    between atoms: C_53  and  O_54
REMARK                            x       y       z     vdW  Elec       q    Type
REMARK                         _______ _______ _______ _____ _____    ______ ____
ROOT
ATOM      1  C   LIG A   1      -5.913   2.278 130.515  0.00  0.00    +0.340 C 
ATOM      2  O   LIG A   1      -6.539   3.541 130.219  0.00  0.00    -0.331 OA
ATOM      3  C   LIG A   1      -7.973   3.554 130.298  0.00  0.00    +0.179 C 
ATOM      4  C   LIG A   1      -8.377   3.187 131.739  0.00  0.00    +0.177 C 
ATOM      5  C   LIG A   1      -7.758   1.843 132.186  0.00  0.00    +0.180 C 
ATOM      6  C   LIG A   1      -6.868   1.215 131.108  0.00  0.00    +0.214 C 
ENDROOT
BRANCH   6   7
ATOM      7  O   LIG A   1      -7.664   0.639 130.055  0.00  0.00    -0.383 OA
ATOM      8  H   LIG A   1      -7.321  -0.248 129.847  0.00  0.00    +0.210 HD
ENDBRANCH   6   7
BRANCH   4   9
ATOM      9  O   LIG A   1      -9.801   3.122 131.882  0.00  0.00    -0.387 OA
ATOM     10  H   LIG A   1     -10.169   3.757 131.238  0.00  0.00    +0.210 HD
ENDBRANCH   4   9
BRANCH   5  11
ATOM     11  O   LIG A   1      -7.044   2.022 133.416  0.00  0.00    -0.386 OA
ATOM     12  H   LIG A   1      -6.812   1.138 133.774  0.00  0.00    +0.210 HD
ENDBRANCH   5  11
BRANCH   3  13
ATOM     13  C   LIG A   1      -8.501   4.956 129.912  0.00  0.00    +0.197 C 
BRANCH  13  14
ATOM     14  O   LIG A   1      -8.866   5.710 131.085  0.00  0.00    -0.346 OA
BRANCH  14  15
ATOM     15  C   LIG A   1      -9.712   6.834 130.772  0.00  0.00    +0.282 C 
ATOM     16  C   LIG A   1     -11.078   6.583 131.466  0.00  0.00    +0.201 C 
ATOM     17  C   LIG A   1     -12.152   7.560 130.982  0.00  0.00    +0.179 C 
ATOM     18  C   LIG A   1     -12.181   7.642 129.450  0.00  0.00    +0.174 C 
ATOM     19  C   LIG A   1     -10.771   7.985 128.961  0.00  0.00    +0.149 C 
ATOM     20  C   LIG A   1     -10.693   8.108 127.444  0.00  0.00    +0.040 C 
ATOM     21  O   LIG A   1      -9.856   6.960 129.358  0.00  0.00    -0.343 OA
BRANCH  16  22
ATOM     22  O   LIG A   1     -11.559   5.246 131.193  0.00  0.00    -0.384 OA
ATOM     23  H   LIG A   1     -11.360   4.740 132.011  0.00  0.00    +0.210 HD
ENDBRANCH  16  22
BRANCH  17  24
ATOM     24  O   LIG A   1     -13.451   7.147 131.442  0.00  0.00    -0.386 OA
ATOM     25  H   LIG A   1     -13.836   7.951 131.850  0.00  0.00    +0.210 HD
ENDBRANCH  17  24
BRANCH  18  26
ATOM     26  O   LIG A   1     -13.127   8.640 129.055  0.00  0.00    -0.387 OA
ATOM     27  H   LIG A   1     -13.949   8.149 128.855  0.00  0.00    +0.210 HD
ENDBRANCH  18  26
ENDBRANCH  14  15
ENDBRANCH  13  14
ENDBRANCH   3  13
BRANCH   1  28
ATOM     28  O   LIG A   1      -4.855   2.484 131.473  0.00  0.00    -0.454 OA
BRANCH  28  34
ATOM     29  C   LIG A   1      -2.459   8.188 133.042  0.00  0.00    +0.139 A 
ATOM     30  O   LIG A   1      -2.480   7.494 131.848  0.00  0.00    -0.454 OA
ATOM     31  C   LIG A   1      -3.090   6.271 131.805  0.00  0.00    +0.146 A 
ATOM     32  C   LIG A   1      -3.825   5.733 132.848  0.00  0.00    +0.109 A 
ATOM     33  C   LIG A   1      -4.409   4.460 132.707  0.00  0.00    +0.177 A 
ATOM     34  C   LIG A   1      -4.224   3.707 131.522  0.00  0.00    +0.207 A 
ATOM     35  C   LIG A   1      -3.455   4.273 130.485  0.00  0.00    +0.169 A 
ATOM     36  C   LIG A   1      -2.924   5.558 130.630  0.00  0.00    +0.096 A 
ATOM     37  C   LIG A   1      -3.133   7.781 134.127  0.00  0.00    +0.098 A 
ATOM     38  C   LIG A   1      -3.912   6.531 134.071  0.00  0.00    +0.197 A 
ATOM     39  O   LIG A   1      -4.585   6.147 135.034  0.00  0.00    -0.287 OA
BRANCH  29  43
ATOM     40  C   LIG A   1       0.001  11.720 133.002  0.00  0.00    +0.158 A 
ATOM     41  C   LIG A   1       0.561  10.504 133.359  0.00  0.00    +0.050 A 
ATOM     42  C   LIG A   1      -0.247   9.357 133.361  0.00  0.00    +0.015 A 
ATOM     43  C   LIG A   1      -1.615   9.412 133.006  0.00  0.00    +0.021 A 
ATOM     44  C   LIG A   1      -2.141  10.659 132.643  0.00  0.00    +0.060 A 
ATOM     45  C   LIG A   1      -1.338  11.791 132.643  0.00  0.00    +0.159 A 
BRANCH  45  46
ATOM     46  O   LIG A   1      -1.896  12.986 132.289  0.00  0.00    -0.503 OA
ATOM     47  H   LIG A   1      -1.168  13.480 131.864  0.00  0.00    +0.292 HD
ENDBRANCH  45  46
BRANCH  40  48
ATOM     48  O   LIG A   1       0.723  12.879 132.991  0.00  0.00    -0.503 OA
ATOM     49  H   LIG A   1       0.832  13.160 132.066  0.00  0.00    +0.292 HD
ENDBRANCH  40  48
ENDBRANCH  29  43
BRANCH  35  50
ATOM     50  O   LIG A   1      -3.282   3.612 129.297  0.00  0.00    -0.491 OA
ATOM     51  C   LIG A   1      -2.920   4.458 128.201  0.00  0.00    +0.277 C 
ENDBRANCH  35  50
BRANCH  33  52
ATOM     52  O   LIG A   1      -5.141   3.913 133.739  0.00  0.00    -0.503 OA
ATOM     53  H   LIG A   1      -4.740   3.046 133.981  0.00  0.00    +0.292 HD
ENDBRANCH  33  52
ENDBRANCH  28  34
ENDBRANCH   1  28
TORSDOF 16
ENDMDL
