MODEL 1
REMARK VINA RESULT:      -8.4      0.000      0.000
REMARK  Name = NuBBE_2280
REMARK  5 active torsions:
REMARK  status: ('A' for Active; 'I' for Inactive)
REMARK    1  A    between atoms: O_1  and  C_2
REMARK    2  A    between atoms: C_7  and  C_8
REMARK    3  A    between atoms: C_11  and  O_12
REMARK    4  A    between atoms: C_22  and  C_23
REMARK    5  A    between atoms: C_22  and  C_24
REMARK                            x       y       z     vdW  Elec       q    Type
REMARK                         _______ _______ _______ _____ _____    ______ ____
ROOT
ATOM      1  C   LIG A   1     -10.379   6.224 131.883  0.00  0.00    +0.142 A 
ATOM      2  C   LIG A   1      -8.978   6.307 131.851  0.00  0.00    +0.107 A 
ATOM      3  C   LIG A   1      -8.346   6.978 130.809  0.00  0.00    +0.145 A 
ATOM      4  O   LIG A   1      -6.982   7.095 130.714  0.00  0.00    -0.462 OA
ATOM      5  C   LIG A   1      -6.219   6.515 131.698  0.00  0.00    +0.208 A 
ATOM      6  C   LIG A   1      -6.666   5.843 132.771  0.00  0.00    +0.064 A 
ATOM      7  C   LIG A   1      -8.142   5.693 132.899  0.00  0.00    +0.204 A 
ATOM      8  O   LIG A   1      -8.677   5.092 133.825  0.00  0.00    -0.286 OA
ATOM      9  C   LIG A   1      -9.100   7.569 129.798  0.00  0.00    +0.093 A 
ATOM     10  C   LIG A   1     -10.493   7.487 129.825  0.00  0.00    +0.136 A 
ATOM     11  C   LIG A   1     -11.146   6.816 130.865  0.00  0.00    +0.059 A 
ATOM     12  C   LIG A   1     -12.601   6.753 130.861  0.00  0.00    +0.015 C 
ATOM     13  C   LIG A   1     -13.260   7.328 129.850  0.00  0.00    +0.020 C 
ATOM     14  C   LIG A   1     -12.574   8.042 128.712  0.00  0.00    +0.123 C 
ATOM     15  C   LIG A   1     -12.911   7.337 127.393  0.00  0.00    +0.060 C 
ATOM     16  C   LIG A   1     -13.061   9.495 128.659  0.00  0.00    +0.060 C 
ATOM     17  O   LIG A   1     -11.135   8.101 128.786  0.00  0.00    -0.481 OA
ENDROOT
BRANCH   6  18
ATOM     18  C   LIG A   1      -5.722   5.260 133.742  0.00  0.00    -0.011 A 
ATOM     19  C   LIG A   1      -5.296   6.002 134.856  0.00  0.00    +0.012 A 
ATOM     20  C   LIG A   1      -4.405   5.457 135.784  0.00  0.00    +0.046 A 
ATOM     21  C   LIG A   1      -3.934   4.163 135.601  0.00  0.00    +0.117 A 
ATOM     22  C   LIG A   1      -4.336   3.410 134.505  0.00  0.00    +0.046 A 
ATOM     23  C   LIG A   1      -5.225   3.957 133.576  0.00  0.00    +0.012 A 
BRANCH  21  24
ATOM     24  O   LIG A   1      -3.064   3.590 136.479  0.00  0.00    -0.507 OA
ATOM     25  H   LIG A   1      -2.740   2.758 136.096  0.00  0.00    +0.292 HD
ENDBRANCH  21  24
ENDBRANCH   6  18
BRANCH   1  26
ATOM     26  O   LIG A   1     -11.038   5.568 132.898  0.00  0.00    -0.505 OA
ATOM     27  H   LIG A   1     -11.526   6.234 133.434  0.00  0.00    +0.292 HD
ENDBRANCH   1  26
TORSDOF 3
ENDMDL
MODEL 2
REMARK VINA RESULT:      -8.3      8.961     11.767
REMARK  Name = NuBBE_2280
REMARK  5 active torsions:
REMARK  status: ('A' for Active; 'I' for Inactive)
REMARK    1  A    between atoms: O_1  and  C_2
REMARK    2  A    between atoms: C_7  and  C_8
REMARK    3  A    between atoms: C_11  and  O_12
REMARK    4  A    between atoms: C_22  and  C_23
REMARK    5  A    between atoms: C_22  and  C_24
REMARK                            x       y       z     vdW  Elec       q    Type
REMARK                         _______ _______ _______ _____ _____    ______ ____
ROOT
ATOM      1  C   LIG A   1      -8.238  -1.138 125.650  0.00  0.00    +0.142 A 
ATOM      2  C   LIG A   1      -7.610   0.062 125.282  0.00  0.00    +0.107 A 
ATOM      3  C   LIG A   1      -6.736   0.687 126.166  0.00  0.00    +0.145 A 
ATOM      4  O   LIG A   1      -6.090   1.862 125.873  0.00  0.00    -0.462 OA
ATOM      5  C   LIG A   1      -6.330   2.437 124.650  0.00  0.00    +0.208 A 
ATOM      6  C   LIG A   1      -7.132   1.964 123.682  0.00  0.00    +0.064 A 
ATOM      7  C   LIG A   1      -7.852   0.694 123.972  0.00  0.00    +0.204 A 
ATOM      8  O   LIG A   1      -8.623   0.163 123.178  0.00  0.00    -0.286 OA
ATOM      9  C   LIG A   1      -6.482   0.124 127.415  0.00  0.00    +0.093 A 
ATOM     10  C   LIG A   1      -7.107  -1.069 127.785  0.00  0.00    +0.136 A 
ATOM     11  C   LIG A   1      -7.989  -1.711 126.908  0.00  0.00    +0.059 A 
ATOM     12  C   LIG A   1      -8.620  -2.954 127.329  0.00  0.00    +0.015 C 
ATOM     13  C   LIG A   1      -8.344  -3.429 128.547  0.00  0.00    +0.020 C 
ATOM     14  C   LIG A   1      -7.409  -2.743 129.512  0.00  0.00    +0.123 C 
ATOM     15  C   LIG A   1      -8.180  -2.358 130.779  0.00  0.00    +0.060 C 
ATOM     16  C   LIG A   1      -6.264  -3.698 129.873  0.00  0.00    +0.060 C 
ATOM     17  O   LIG A   1      -6.787  -1.533 129.029  0.00  0.00    -0.481 OA
ENDROOT
BRANCH   6  18
ATOM     18  C   LIG A   1      -7.303   2.702 122.416  0.00  0.00    -0.011 A 
ATOM     19  C   LIG A   1      -6.187   3.058 121.643  0.00  0.00    +0.012 A 
ATOM     20  C   LIG A   1      -6.339   3.754 120.441  0.00  0.00    +0.046 A 
ATOM     21  C   LIG A   1      -7.613   4.098 120.006  0.00  0.00    +0.117 A 
ATOM     22  C   LIG A   1      -8.733   3.761 120.756  0.00  0.00    +0.046 A 
ATOM     23  C   LIG A   1      -8.580   3.068 121.959  0.00  0.00    +0.012 A 
BRANCH  21  24
ATOM     24  O   LIG A   1      -7.810   4.776 118.841  0.00  0.00    -0.507 OA
ATOM     25  H   LIG A   1      -7.011   4.690 118.294  0.00  0.00    +0.292 HD
ENDBRANCH  21  24
ENDBRANCH   6  18
BRANCH   1  26
ATOM     26  O   LIG A   1      -9.109  -1.783 124.801  0.00  0.00    -0.505 OA
ATOM     27  H   LIG A   1      -9.870  -1.186 124.622  0.00  0.00    +0.292 HD
ENDBRANCH   1  26
TORSDOF 3
ENDMDL
MODEL 3
REMARK VINA RESULT:      -7.9      1.207      2.480
REMARK  Name = NuBBE_2280
REMARK  5 active torsions:
REMARK  status: ('A' for Active; 'I' for Inactive)
REMARK    1  A    between atoms: O_1  and  C_2
REMARK    2  A    between atoms: C_7  and  C_8
REMARK    3  A    between atoms: C_11  and  O_12
REMARK    4  A    between atoms: C_22  and  C_23
REMARK    5  A    between atoms: C_22  and  C_24
REMARK                            x       y       z     vdW  Elec       q    Type
REMARK                         _______ _______ _______ _____ _____    ______ ____
ROOT
ATOM      1  C   LIG A   1      -8.469   6.881 130.891  0.00  0.00    +0.142 A 
ATOM      2  C   LIG A   1      -8.509   5.996 131.981  0.00  0.00    +0.107 A 
ATOM      3  C   LIG A   1      -9.723   5.446 132.384  0.00  0.00    +0.145 A 
ATOM      4  O   LIG A   1      -9.835   4.579 133.441  0.00  0.00    -0.462 OA
ATOM      5  C   LIG A   1      -8.690   4.249 134.123  0.00  0.00    +0.208 A 
ATOM      6  C   LIG A   1      -7.445   4.679 133.862  0.00  0.00    +0.064 A 
ATOM      7  C   LIG A   1      -7.291   5.628 132.725  0.00  0.00    +0.204 A 
ATOM      8  O   LIG A   1      -6.211   6.104 132.390  0.00  0.00    -0.286 OA
ATOM      9  C   LIG A   1     -10.897   5.772 131.709  0.00  0.00    +0.093 A 
ATOM     10  C   LIG A   1     -10.861   6.653 130.627  0.00  0.00    +0.136 A 
ATOM     11  C   LIG A   1      -9.650   7.215 130.208  0.00  0.00    +0.059 A 
ATOM     12  C   LIG A   1      -9.652   8.128 129.073  0.00  0.00    +0.015 C 
ATOM     13  C   LIG A   1     -10.817   8.409 128.483  0.00  0.00    +0.020 C 
ATOM     14  C   LIG A   1     -12.135   7.826 128.930  0.00  0.00    +0.123 C 
ATOM     15  C   LIG A   1     -13.070   8.959 129.368  0.00  0.00    +0.060 C 
ATOM     16  C   LIG A   1     -12.769   7.054 127.766  0.00  0.00    +0.060 C 
ATOM     17  O   LIG A   1     -12.068   6.902 130.037  0.00  0.00    -0.481 OA
ENDROOT
BRANCH   6  18
ATOM     18  C   LIG A   1      -6.307   4.247 134.695  0.00  0.00    -0.011 A 
ATOM     19  C   LIG A   1      -6.092   4.819 135.959  0.00  0.00    +0.012 A 
ATOM     20  C   LIG A   1      -5.020   4.413 136.757  0.00  0.00    +0.046 A 
ATOM     21  C   LIG A   1      -4.155   3.430 136.293  0.00  0.00    +0.117 A 
ATOM     22  C   LIG A   1      -4.344   2.852 135.044  0.00  0.00    +0.046 A 
ATOM     23  C   LIG A   1      -5.415   3.260 134.245  0.00  0.00    +0.012 A 
BRANCH  21  24
ATOM     24  O   LIG A   1      -3.095   3.003 137.036  0.00  0.00    -0.507 OA
ATOM     25  H   LIG A   1      -2.397   3.678 136.995  0.00  0.00    +0.292 HD
ENDBRANCH  21  24
ENDBRANCH   6  18
BRANCH   1  26
ATOM     26  O   LIG A   1      -7.287   7.443 130.465  0.00  0.00    -0.505 OA
ATOM     27  H   LIG A   1      -6.743   7.661 131.256  0.00  0.00    +0.292 HD
ENDBRANCH   1  26
TORSDOF 3
ENDMDL
MODEL 4
REMARK VINA RESULT:      -7.8      7.154     10.197
REMARK  Name = NuBBE_2280
REMARK  5 active torsions:
REMARK  status: ('A' for Active; 'I' for Inactive)
REMARK    1  A    between atoms: O_1  and  C_2
REMARK    2  A    between atoms: C_7  and  C_8
REMARK    3  A    between atoms: C_11  and  O_12
REMARK    4  A    between atoms: C_22  and  C_23
REMARK    5  A    between atoms: C_22  and  C_24
REMARK                            x       y       z     vdW  Elec       q    Type
REMARK                         _______ _______ _______ _____ _____    ______ ____
ROOT
ATOM      1  C   LIG A   1      -8.182   3.454 127.538  0.00  0.00    +0.142 A 
ATOM      2  C   LIG A   1      -7.876   2.749 126.363  0.00  0.00    +0.107 A 
ATOM      3  C   LIG A   1      -7.592   1.389 126.425  0.00  0.00    +0.145 A 
ATOM      4  O   LIG A   1      -7.283   0.639 125.317  0.00  0.00    -0.462 OA
ATOM      5  C   LIG A   1      -7.255   1.276 124.101  0.00  0.00    +0.208 A 
ATOM      6  C   LIG A   1      -7.511   2.573 123.865  0.00  0.00    +0.064 A 
ATOM      7  C   LIG A   1      -7.843   3.414 125.048  0.00  0.00    +0.204 A 
ATOM      8  O   LIG A   1      -8.086   4.615 124.970  0.00  0.00    -0.286 OA
ATOM      9  C   LIG A   1      -7.610   0.724 127.649  0.00  0.00    +0.093 A 
ATOM     10  C   LIG A   1      -7.911   1.422 128.820  0.00  0.00    +0.136 A 
ATOM     11  C   LIG A   1      -8.200   2.792 128.777  0.00  0.00    +0.059 A 
ATOM     12  C   LIG A   1      -8.512   3.485 130.019  0.00  0.00    +0.015 C 
ATOM     13  C   LIG A   1      -8.494   2.789 131.160  0.00  0.00    +0.020 C 
ATOM     14  C   LIG A   1      -8.170   1.317 131.228  0.00  0.00    +0.123 C 
ATOM     15  C   LIG A   1      -6.920   1.112 132.091  0.00  0.00    +0.060 C 
ATOM     16  C   LIG A   1      -9.355   0.566 131.847  0.00  0.00    +0.060 C 
ATOM     17  O   LIG A   1      -7.902   0.675 129.964  0.00  0.00    -0.481 OA
ENDROOT
BRANCH   6  18
ATOM     18  C   LIG A   1      -7.428   3.122 122.499  0.00  0.00    -0.011 A 
ATOM     19  C   LIG A   1      -6.182   3.438 121.933  0.00  0.00    +0.012 A 
ATOM     20  C   LIG A   1      -6.093   3.955 120.638  0.00  0.00    +0.046 A 
ATOM     21  C   LIG A   1      -7.254   4.158 119.901  0.00  0.00    +0.117 A 
ATOM     22  C   LIG A   1      -8.497   3.857 120.440  0.00  0.00    +0.046 A 
ATOM     23  C   LIG A   1      -8.586   3.343 121.736  0.00  0.00    +0.012 A 
BRANCH  21  24
ATOM     24  O   LIG A   1      -7.215   4.659 118.634  0.00  0.00    -0.507 OA
ATOM     25  H   LIG A   1      -6.892   5.575 118.674  0.00  0.00    +0.292 HD
ENDBRANCH  21  24
ENDBRANCH   6  18
BRANCH   1  26
ATOM     26  O   LIG A   1      -8.468   4.801 127.515  0.00  0.00    -0.505 OA
ATOM     27  H   LIG A   1      -8.786   5.067 128.408  0.00  0.00    +0.292 HD
ENDBRANCH   1  26
TORSDOF 3
ENDMDL
MODEL 5
REMARK VINA RESULT:      -7.8      3.551      8.345
REMARK  Name = NuBBE_2280
REMARK  5 active torsions:
REMARK  status: ('A' for Active; 'I' for Inactive)
REMARK    1  A    between atoms: O_1  and  C_2
REMARK    2  A    between atoms: C_7  and  C_8
REMARK    3  A    between atoms: C_11  and  O_12
REMARK    4  A    between atoms: C_22  and  C_23
REMARK    5  A    between atoms: C_22  and  C_24
REMARK                            x       y       z     vdW  Elec       q    Type
REMARK                         _______ _______ _______ _____ _____    ______ ____
ROOT
ATOM      1  C   LIG A   1      -8.700   2.238 130.502  0.00  0.00    +0.142 A 
ATOM      2  C   LIG A   1      -9.171   3.393 131.145  0.00  0.00    +0.107 A 
ATOM      3  C   LIG A   1      -9.003   3.541 132.518  0.00  0.00    +0.145 A 
ATOM      4  O   LIG A   1      -9.442   4.641 133.210  0.00  0.00    -0.462 OA
ATOM      5  C   LIG A   1     -10.075   5.633 132.502  0.00  0.00    +0.208 A 
ATOM      6  C   LIG A   1     -10.309   5.653 131.180  0.00  0.00    +0.064 A 
ATOM      7  C   LIG A   1      -9.852   4.469 130.402  0.00  0.00    +0.204 A 
ATOM      8  O   LIG A   1     -10.015   4.359 129.190  0.00  0.00    -0.286 OA
ATOM      9  C   LIG A   1      -8.368   2.545 133.257  0.00  0.00    +0.093 A 
ATOM     10  C   LIG A   1      -7.900   1.393 132.621  0.00  0.00    +0.136 A 
ATOM     11  C   LIG A   1      -8.060   1.228 131.240  0.00  0.00    +0.059 A 
ATOM     12  C   LIG A   1      -7.557   0.014 130.613  0.00  0.00    +0.015 C 
ATOM     13  C   LIG A   1      -6.973  -0.908 131.384  0.00  0.00    +0.020 C 
ATOM     14  C   LIG A   1      -6.805  -0.754 132.876  0.00  0.00    +0.123 C 
ATOM     15  C   LIG A   1      -7.560  -1.882 133.590  0.00  0.00    +0.060 C 
ATOM     16  C   LIG A   1      -5.314  -0.827 133.228  0.00  0.00    +0.060 C 
ATOM     17  O   LIG A   1      -7.293   0.482 133.438  0.00  0.00    -0.481 OA
ENDROOT
BRANCH   6  18
ATOM     18  C   LIG A   1     -11.018   6.787 130.557  0.00  0.00    -0.011 A 
ATOM     19  C   LIG A   1     -12.283   7.179 131.023  0.00  0.00    +0.012 A 
ATOM     20  C   LIG A   1     -12.960   8.255 130.442  0.00  0.00    +0.046 A 
ATOM     21  C   LIG A   1     -12.372   8.944 129.389  0.00  0.00    +0.117 A 
ATOM     22  C   LIG A   1     -11.124   8.573 128.908  0.00  0.00    +0.046 A 
ATOM     23  C   LIG A   1     -10.448   7.496 129.487  0.00  0.00    +0.012 A 
BRANCH  21  24
ATOM     24  O   LIG A   1     -12.995   9.999 128.792  0.00  0.00    -0.507 OA
ATOM     25  H   LIG A   1     -13.788  10.223 129.308  0.00  0.00    +0.292 HD
ENDBRANCH  21  24
ENDBRANCH   6  18
BRANCH   1  26
ATOM     26  O   LIG A   1      -8.849   2.058 129.145  0.00  0.00    -0.505 OA
ATOM     27  H   LIG A   1      -9.781   2.264 128.904  0.00  0.00    +0.292 HD
ENDBRANCH   1  26
TORSDOF 3
ENDMDL
MODEL 6
REMARK VINA RESULT:      -7.8      2.028      2.243
REMARK  Name = NuBBE_2280
REMARK  5 active torsions:
REMARK  status: ('A' for Active; 'I' for Inactive)
REMARK    1  A    between atoms: O_1  and  C_2
REMARK    2  A    between atoms: C_7  and  C_8
REMARK    3  A    between atoms: C_11  and  O_12
REMARK    4  A    between atoms: C_22  and  C_23
REMARK    5  A    between atoms: C_22  and  C_24
REMARK                            x       y       z     vdW  Elec       q    Type
REMARK                         _______ _______ _______ _____ _____    ______ ____
ROOT
ATOM      1  C   LIG A   1      -9.865   5.524 131.792  0.00  0.00    +0.142 A 
ATOM      2  C   LIG A   1      -8.673   5.082 131.195  0.00  0.00    +0.107 A 
ATOM      3  C   LIG A   1      -8.423   5.361 129.855  0.00  0.00    +0.145 A 
ATOM      4  O   LIG A   1      -7.282   4.958 129.208  0.00  0.00    -0.462 OA
ATOM      5  C   LIG A   1      -6.356   4.245 129.929  0.00  0.00    +0.208 A 
ATOM      6  C   LIG A   1      -6.435   3.901 131.224  0.00  0.00    +0.064 A 
ATOM      7  C   LIG A   1      -7.665   4.318 131.952  0.00  0.00    +0.204 A 
ATOM      8  O   LIG A   1      -7.866   4.056 133.134  0.00  0.00    -0.286 OA
ATOM      9  C   LIG A   1      -9.352   6.078 129.104  0.00  0.00    +0.093 A 
ATOM     10  C   LIG A   1     -10.539   6.517 129.693  0.00  0.00    +0.136 A 
ATOM     11  C   LIG A   1     -10.807   6.245 131.040  0.00  0.00    +0.059 A 
ATOM     12  C   LIG A   1     -12.056   6.721 131.621  0.00  0.00    +0.015 C 
ATOM     13  C   LIG A   1     -12.909   7.388 130.838  0.00  0.00    +0.020 C 
ATOM     14  C   LIG A   1     -12.645   7.676 129.380  0.00  0.00    +0.123 C 
ATOM     15  C   LIG A   1     -13.730   7.010 128.527  0.00  0.00    +0.060 C 
ATOM     16  C   LIG A   1     -12.668   9.193 129.152  0.00  0.00    +0.060 C 
ATOM     17  O   LIG A   1     -11.379   7.210 128.868  0.00  0.00    -0.481 OA
ENDROOT
BRANCH   6  18
ATOM     18  C   LIG A   1      -5.361   3.117 131.863  0.00  0.00    -0.011 A 
ATOM     19  C   LIG A   1      -4.224   3.758 132.381  0.00  0.00    +0.012 A 
ATOM     20  C   LIG A   1      -3.203   3.024 132.992  0.00  0.00    +0.046 A 
ATOM     21  C   LIG A   1      -3.317   1.643 133.087  0.00  0.00    +0.117 A 
ATOM     22  C   LIG A   1      -4.430   0.986 132.579  0.00  0.00    +0.046 A 
ATOM     23  C   LIG A   1      -5.449   1.719 131.966  0.00  0.00    +0.012 A 
BRANCH  21  24
ATOM     24  O   LIG A   1      -2.347   0.887 133.675  0.00  0.00    -0.507 OA
ATOM     25  H   LIG A   1      -2.770   0.138 134.127  0.00  0.00    +0.292 HD
ENDBRANCH  21  24
ENDBRANCH   6  18
BRANCH   1  26
ATOM     26  O   LIG A   1     -10.145   5.266 133.114  0.00  0.00    -0.505 OA
ATOM     27  H   LIG A   1     -10.802   4.533 133.157  0.00  0.00    +0.292 HD
ENDBRANCH   1  26
TORSDOF 3
ENDMDL
MODEL 7
REMARK VINA RESULT:      -7.7      5.544      8.536
REMARK  Name = NuBBE_2280
REMARK  5 active torsions:
REMARK  status: ('A' for Active; 'I' for Inactive)
REMARK    1  A    between atoms: O_1  and  C_2
REMARK    2  A    between atoms: C_7  and  C_8
REMARK    3  A    between atoms: C_11  and  O_12
REMARK    4  A    between atoms: C_22  and  C_23
REMARK    5  A    between atoms: C_22  and  C_24
REMARK                            x       y       z     vdW  Elec       q    Type
REMARK                         _______ _______ _______ _____ _____    ______ ____
ROOT
ATOM      1  C   LIG A   1      -8.713   5.178 128.744  0.00  0.00    +0.142 A 
ATOM      2  C   LIG A   1      -7.897   4.368 127.938  0.00  0.00    +0.107 A 
ATOM      3  C   LIG A   1      -7.043   3.440 128.527  0.00  0.00    +0.145 A 
ATOM      4  O   LIG A   1      -6.217   2.620 127.801  0.00  0.00    -0.462 OA
ATOM      5  C   LIG A   1      -6.243   2.733 126.433  0.00  0.00    +0.208 A 
ATOM      6  C   LIG A   1      -7.009   3.565 125.709  0.00  0.00    +0.064 A 
ATOM      7  C   LIG A   1      -7.912   4.473 126.468  0.00  0.00    +0.204 A 
ATOM      8  O   LIG A   1      -8.653   5.288 125.928  0.00  0.00    -0.286 OA
ATOM      9  C   LIG A   1      -6.997   3.313 129.914  0.00  0.00    +0.093 A 
ATOM     10  C   LIG A   1      -7.806   4.117 130.718  0.00  0.00    +0.136 A 
ATOM     11  C   LIG A   1      -8.670   5.056 130.143  0.00  0.00    +0.059 A 
ATOM     12  C   LIG A   1      -9.501   5.876 131.015  0.00  0.00    +0.015 C 
ATOM     13  C   LIG A   1      -9.393   5.712 132.337  0.00  0.00    +0.020 C 
ATOM     14  C   LIG A   1      -8.455   4.717 132.975  0.00  0.00    +0.123 C 
ATOM     15  C   LIG A   1      -7.446   5.463 133.855  0.00  0.00    +0.060 C 
ATOM     16  C   LIG A   1      -9.265   3.739 133.834  0.00  0.00    +0.060 C 
ATOM     17  O   LIG A   1      -7.683   3.910 132.063  0.00  0.00    -0.481 OA
ENDROOT
BRANCH   6  18
ATOM     18  C   LIG A   1      -6.917   3.585 124.237  0.00  0.00    -0.011 A 
ATOM     19  C   LIG A   1      -7.995   3.147 123.451  0.00  0.00    +0.012 A 
ATOM     20  C   LIG A   1      -7.919   3.166 122.055  0.00  0.00    +0.046 A 
ATOM     21  C   LIG A   1      -6.761   3.624 121.439  0.00  0.00    +0.117 A 
ATOM     22  C   LIG A   1      -5.681   4.058 122.195  0.00  0.00    +0.046 A 
ATOM     23  C   LIG A   1      -5.755   4.037 123.591  0.00  0.00    +0.012 A 
BRANCH  21  24
ATOM     24  O   LIG A   1      -6.642   3.661 120.082  0.00  0.00    -0.507 OA
ATOM     25  H   LIG A   1      -6.476   2.758 119.762  0.00  0.00    +0.292 HD
ENDBRANCH  21  24
ENDBRANCH   6  18
BRANCH   1  26
ATOM     26  O   LIG A   1      -9.569   6.106 128.197  0.00  0.00    -0.505 OA
ATOM     27  H   LIG A   1     -10.492   5.853 128.426  0.00  0.00    +0.292 HD
ENDBRANCH   1  26
TORSDOF 3
ENDMDL
MODEL 8
REMARK VINA RESULT:      -7.6      7.546     10.053
REMARK  Name = NuBBE_2280
REMARK  5 active torsions:
REMARK  status: ('A' for Active; 'I' for Inactive)
REMARK    1  A    between atoms: O_1  and  C_2
REMARK    2  A    between atoms: C_7  and  C_8
REMARK    3  A    between atoms: C_11  and  O_12
REMARK    4  A    between atoms: C_22  and  C_23
REMARK    5  A    between atoms: C_22  and  C_24
REMARK                            x       y       z     vdW  Elec       q    Type
REMARK                         _______ _______ _______ _____ _____    ______ ____
ROOT
ATOM      1  C   LIG A   1      -4.619   2.523 126.958  0.00  0.00    +0.142 A 
ATOM      2  C   LIG A   1      -5.973   2.182 126.816  0.00  0.00    +0.107 A 
ATOM      3  C   LIG A   1      -6.955   2.994 127.375  0.00  0.00    +0.145 A 
ATOM      4  O   LIG A   1      -8.296   2.720 127.277  0.00  0.00    -0.462 OA
ATOM      5  C   LIG A   1      -8.670   1.589 126.595  0.00  0.00    +0.208 A 
ATOM      6  C   LIG A   1      -7.857   0.707 125.991  0.00  0.00    +0.064 A 
ATOM      7  C   LIG A   1      -6.395   0.974 126.086  0.00  0.00    +0.204 A 
ATOM      8  O   LIG A   1      -5.546   0.240 125.588  0.00  0.00    -0.286 OA
ATOM      9  C   LIG A   1      -6.598   4.144 128.075  0.00  0.00    +0.093 A 
ATOM     10  C   LIG A   1      -5.252   4.485 128.221  0.00  0.00    +0.136 A 
ATOM     11  C   LIG A   1      -4.250   3.680 127.664  0.00  0.00    +0.059 A 
ATOM     12  C   LIG A   1      -2.857   4.069 127.835  0.00  0.00    +0.015 C 
ATOM     13  C   LIG A   1      -2.585   5.176 128.533  0.00  0.00    +0.020 C 
ATOM     14  C   LIG A   1      -3.650   6.047 129.153  0.00  0.00    +0.123 C 
ATOM     15  C   LIG A   1      -3.457   6.080 130.674  0.00  0.00    +0.060 C 
ATOM     16  C   LIG A   1      -3.534   7.468 128.588  0.00  0.00    +0.060 C 
ATOM     17  O   LIG A   1      -5.012   5.632 128.924  0.00  0.00    -0.481 OA
ENDROOT
BRANCH   6  18
ATOM     18  C   LIG A   1      -8.406  -0.477 125.305  0.00  0.00    -0.011 A 
ATOM     19  C   LIG A   1      -8.786  -1.613 126.037  0.00  0.00    +0.012 A 
ATOM     20  C   LIG A   1      -9.310  -2.738 125.395  0.00  0.00    +0.046 A 
ATOM     21  C   LIG A   1      -9.457  -2.732 124.014  0.00  0.00    +0.117 A 
ATOM     22  C   LIG A   1      -9.084  -1.622 123.267  0.00  0.00    +0.046 A 
ATOM     23  C   LIG A   1      -8.557  -0.498 123.908  0.00  0.00    +0.012 A 
BRANCH  21  24
ATOM     24  O   LIG A   1      -9.964  -3.806 123.346  0.00  0.00    -0.507 OA
ATOM     25  H   LIG A   1      -9.340  -4.055 122.643  0.00  0.00    +0.292 HD
ENDBRANCH  21  24
ENDBRANCH   6  18
BRANCH   1  26
ATOM     26  O   LIG A   1      -3.621   1.744 126.418  0.00  0.00    -0.505 OA
ATOM     27  H   LIG A   1      -3.350   2.136 125.557  0.00  0.00    +0.292 HD
ENDBRANCH   1  26
TORSDOF 3
ENDMDL
MODEL 9
REMARK VINA RESULT:      -7.5      7.373      8.279
REMARK  Name = NuBBE_2280
REMARK  5 active torsions:
REMARK  status: ('A' for Active; 'I' for Inactive)
REMARK    1  A    between atoms: O_1  and  C_2
REMARK    2  A    between atoms: C_7  and  C_8
REMARK    3  A    between atoms: C_11  and  O_12
REMARK    4  A    between atoms: C_22  and  C_23
REMARK    5  A    between atoms: C_22  and  C_24
REMARK                            x       y       z     vdW  Elec       q    Type
REMARK                         _______ _______ _______ _____ _____    ______ ____
ROOT
ATOM      1  C   LIG A   1      -8.527   1.118 126.564  0.00  0.00    +0.142 A 
ATOM      2  C   LIG A   1      -8.212   0.792 127.893  0.00  0.00    +0.107 A 
ATOM      3  C   LIG A   1      -7.717  -0.472 128.199  0.00  0.00    +0.145 A 
ATOM      4  O   LIG A   1      -7.393  -0.859 129.475  0.00  0.00    -0.462 OA
ATOM      5  C   LIG A   1      -7.572   0.054 130.485  0.00  0.00    +0.208 A 
ATOM      6  C   LIG A   1      -8.027   1.311 130.363  0.00  0.00    +0.064 A 
ATOM      7  C   LIG A   1      -8.395   1.758 128.992  0.00  0.00    +0.204 A 
ATOM      8  O   LIG A   1      -8.834   2.877 128.746  0.00  0.00    -0.286 OA
ATOM      9  C   LIG A   1      -7.533  -1.415 127.190  0.00  0.00    +0.093 A 
ATOM     10  C   LIG A   1      -7.847  -1.095 125.868  0.00  0.00    +0.136 A 
ATOM     11  C   LIG A   1      -8.346   0.172 125.542  0.00  0.00    +0.059 A 
ATOM     12  C   LIG A   1      -8.659   0.469 124.151  0.00  0.00    +0.015 C 
ATOM     13  C   LIG A   1      -8.474  -0.488 123.237  0.00  0.00    +0.020 C 
ATOM     14  C   LIG A   1      -7.952  -1.864 123.571  0.00  0.00    +0.123 C 
ATOM     15  C   LIG A   1      -9.007  -2.911 123.196  0.00  0.00    +0.060 C 
ATOM     16  C   LIG A   1      -6.664  -2.123 122.781  0.00  0.00    +0.060 C 
ATOM     17  O   LIG A   1      -7.627  -2.091 124.958  0.00  0.00    -0.481 OA
ENDROOT
BRANCH   6  18
ATOM     18  C   LIG A   1      -8.181   2.176 131.548  0.00  0.00    -0.011 A 
ATOM     19  C   LIG A   1      -7.111   2.968 131.996  0.00  0.00    +0.012 A 
ATOM     20  C   LIG A   1      -7.248   3.793 133.115  0.00  0.00    +0.046 A 
ATOM     21  C   LIG A   1      -8.460   3.830 133.793  0.00  0.00    +0.117 A 
ATOM     22  C   LIG A   1      -9.532   3.053 133.373  0.00  0.00    +0.046 A 
ATOM     23  C   LIG A   1      -9.393   2.225 132.255  0.00  0.00    +0.012 A 
BRANCH  21  24
ATOM     24  O   LIG A   1      -8.640   4.620 134.889  0.00  0.00    -0.507 OA
ATOM     25  H   LIG A   1      -8.121   4.252 135.624  0.00  0.00    +0.292 HD
ENDBRANCH  21  24
ENDBRANCH   6  18
BRANCH   1  26
ATOM     26  O   LIG A   1      -9.018   2.358 126.225  0.00  0.00    -0.505 OA
ATOM     27  H   LIG A   1      -8.266   2.993 126.192  0.00  0.00    +0.292 HD
ENDBRANCH   1  26
TORSDOF 3
ENDMDL
