MODEL 1
REMARK VINA RESULT:      -6.6      0.000      0.000
REMARK  Name = NuBBE_2442
REMARK  0 active torsions:
REMARK  status: ('A' for Active; 'I' for Inactive)
REMARK                            x       y       z     vdW  Elec       q    Type
REMARK                         _______ _______ _______ _____ _____    ______ ____
ROOT
ATOM      1  O   LIG A   1      -8.627   4.900 133.930  0.00  0.00    -0.245 OA
ATOM      2  C   LIG A   1      -8.943   5.563 132.952  0.00  0.00    +0.337 A 
ATOM      3  O   LIG A   1     -10.267   5.808 132.613  0.00  0.00    -0.422 OA
ATOM      4  C   LIG A   1     -10.608   6.486 131.422  0.00  0.00    +0.143 A 
ATOM      5  C   LIG A   1      -9.613   7.015 130.594  0.00  0.00    +0.018 A 
ATOM      6  C   LIG A   1      -8.220   6.855 130.981  0.00  0.00    +0.018 A 
ATOM      7  C   LIG A   1      -7.915   6.158 132.079  0.00  0.00    +0.092 A 
ATOM      8  C   LIG A   1      -9.967   7.645 129.391  0.00  0.00    +0.023 A 
ATOM      9  C   LIG A   1     -11.326   7.682 129.023  0.00  0.00    +0.021 A 
ATOM     10  C   LIG A   1     -12.270   7.140 129.889  0.00  0.00    +0.138 A 
ATOM     11  C   LIG A   1     -11.968   6.552 131.113  0.00  0.00    +0.093 A 
ATOM     12  O   LIG A   1     -13.518   7.246 129.353  0.00  0.00    -0.463 OA
ATOM     13  C   LIG A   1     -13.378   7.839 128.139  0.00  0.00    +0.196 A 
ATOM     14  C   LIG A   1     -12.059   8.141 127.896  0.00  0.00    +0.049 A 
ENDROOT
TORSDOF 0
ENDMDL
MODEL 2
REMARK VINA RESULT:      -6.6      1.954      5.337
REMARK  Name = NuBBE_2442
REMARK  0 active torsions:
REMARK  status: ('A' for Active; 'I' for Inactive)
REMARK                            x       y       z     vdW  Elec       q    Type
REMARK                         _______ _______ _______ _____ _____    ______ ____
ROOT
ATOM      1  O   LIG A   1     -10.975   8.041 125.362  0.00  0.00    -0.245 OA
ATOM      2  C   LIG A   1     -11.168   7.718 126.526  0.00  0.00    +0.337 A 
ATOM      3  O   LIG A   1     -10.186   7.826 127.502  0.00  0.00    -0.422 OA
ATOM      4  C   LIG A   1     -10.399   7.349 128.814  0.00  0.00    +0.143 A 
ATOM      5  C   LIG A   1     -11.642   6.836 129.192  0.00  0.00    +0.018 A 
ATOM      6  C   LIG A   1     -12.717   6.804 128.211  0.00  0.00    +0.018 A 
ATOM      7  C   LIG A   1     -12.479   7.203 126.958  0.00  0.00    +0.092 A 
ATOM      8  C   LIG A   1     -11.823   6.323 130.486  0.00  0.00    +0.023 A 
ATOM      9  C   LIG A   1     -10.718   6.292 131.359  0.00  0.00    +0.021 A 
ATOM     10  C   LIG A   1      -9.506   6.818 130.926  0.00  0.00    +0.138 A 
ATOM     11  C   LIG A   1      -9.298   7.382 129.672  0.00  0.00    +0.093 A 
ATOM     12  O   LIG A   1      -8.557   6.677 131.893  0.00  0.00    -0.463 OA
ATOM     13  C   LIG A   1      -9.151   6.047 132.940  0.00  0.00    +0.196 A 
ATOM     14  C   LIG A   1     -10.477   5.803 132.671  0.00  0.00    +0.049 A 
ENDROOT
TORSDOF 0
ENDMDL
MODEL 3
REMARK VINA RESULT:      -6.5      9.697     10.923
REMARK  Name = NuBBE_2442
REMARK  0 active torsions:
REMARK  status: ('A' for Active; 'I' for Inactive)
REMARK                            x       y       z     vdW  Elec       q    Type
REMARK                         _______ _______ _______ _____ _____    ______ ____
ROOT
ATOM      1  O   LIG A   1      -6.011   5.758 118.227  0.00  0.00    -0.245 OA
ATOM      2  C   LIG A   1      -6.070   5.145 119.284  0.00  0.00    +0.337 A 
ATOM      3  O   LIG A   1      -7.193   4.424 119.666  0.00  0.00    -0.422 OA
ATOM      4  C   LIG A   1      -7.276   3.812 120.937  0.00  0.00    +0.143 A 
ATOM      5  C   LIG A   1      -6.187   3.837 121.812  0.00  0.00    +0.018 A 
ATOM      6  C   LIG A   1      -4.964   4.504 121.392  0.00  0.00    +0.018 A 
ATOM      7  C   LIG A   1      -4.925   5.130 120.212  0.00  0.00    +0.092 A 
ATOM      8  C   LIG A   1      -6.303   3.266 123.089  0.00  0.00    +0.023 A 
ATOM      9  C   LIG A   1      -7.543   2.721 123.474  0.00  0.00    +0.021 A 
ATOM     10  C   LIG A   1      -8.590   2.724 122.558  0.00  0.00    +0.138 A 
ATOM     11  C   LIG A   1      -8.503   3.234 121.267  0.00  0.00    +0.093 A 
ATOM     12  O   LIG A   1      -9.708   2.182 123.117  0.00  0.00    -0.463 OA
ATOM     13  C   LIG A   1      -9.388   1.847 124.394  0.00  0.00    +0.196 A 
ATOM     14  C   LIG A   1      -8.071   2.140 124.658  0.00  0.00    +0.049 A 
ENDROOT
TORSDOF 0
ENDMDL
MODEL 4
REMARK VINA RESULT:      -6.4      1.193      4.976
REMARK  Name = NuBBE_2442
REMARK  0 active torsions:
REMARK  status: ('A' for Active; 'I' for Inactive)
REMARK                            x       y       z     vdW  Elec       q    Type
REMARK                         _______ _______ _______ _____ _____    ______ ____
ROOT
ATOM      1  O   LIG A   1     -13.685   7.285 127.384  0.00  0.00    -0.245 OA
ATOM      2  C   LIG A   1     -12.631   7.239 128.002  0.00  0.00    +0.337 A 
ATOM      3  O   LIG A   1     -12.330   6.213 128.888  0.00  0.00    -0.422 OA
ATOM      4  C   LIG A   1     -11.153   6.237 129.669  0.00  0.00    +0.143 A 
ATOM      5  C   LIG A   1     -10.209   7.254 129.503  0.00  0.00    +0.018 A 
ATOM      6  C   LIG A   1     -10.458   8.288 128.509  0.00  0.00    +0.018 A 
ATOM      7  C   LIG A   1     -11.605   8.282 127.823  0.00  0.00    +0.092 A 
ATOM      8  C   LIG A   1      -9.068   7.289 130.319  0.00  0.00    +0.023 A 
ATOM      9  C   LIG A   1      -8.931   6.317 131.329  0.00  0.00    +0.021 A 
ATOM     10  C   LIG A   1      -9.904   5.329 131.445  0.00  0.00    +0.138 A 
ATOM     11  C   LIG A   1     -11.023   5.227 130.624  0.00  0.00    +0.093 A 
ATOM     12  O   LIG A   1      -9.613   4.500 132.486  0.00  0.00    -0.463 OA
ATOM     13  C   LIG A   1      -8.467   4.961 133.051  0.00  0.00    +0.196 A 
ATOM     14  C   LIG A   1      -8.000   6.061 132.370  0.00  0.00    +0.049 A 
ENDROOT
TORSDOF 0
ENDMDL
MODEL 5
REMARK VINA RESULT:      -6.2      1.718      5.397
REMARK  Name = NuBBE_2442
REMARK  0 active torsions:
REMARK  status: ('A' for Active; 'I' for Inactive)
REMARK                            x       y       z     vdW  Elec       q    Type
REMARK                         _______ _______ _______ _____ _____    ______ ____
ROOT
ATOM      1  O   LIG A   1     -10.967   8.684 127.359  0.00  0.00    -0.245 OA
ATOM      2  C   LIG A   1     -10.856   8.175 128.466  0.00  0.00    +0.337 A 
ATOM      3  O   LIG A   1      -9.623   7.949 129.062  0.00  0.00    -0.422 OA
ATOM      4  C   LIG A   1      -9.516   7.265 130.293  0.00  0.00    +0.143 A 
ATOM      5  C   LIG A   1     -10.660   6.876 130.993  0.00  0.00    +0.018 A 
ATOM      6  C   LIG A   1     -11.967   7.190 130.433  0.00  0.00    +0.018 A 
ATOM      7  C   LIG A   1     -12.048   7.784 129.239  0.00  0.00    +0.092 A 
ATOM      8  C   LIG A   1     -10.536   6.155 132.191  0.00  0.00    +0.023 A 
ATOM      9  C   LIG A   1      -9.247   5.796 132.631  0.00  0.00    +0.021 A 
ATOM     10  C   LIG A   1      -8.145   6.213 131.892  0.00  0.00    +0.138 A 
ATOM     11  C   LIG A   1      -8.222   6.972 130.728  0.00  0.00    +0.093 A 
ATOM     12  O   LIG A   1      -6.995   5.752 132.457  0.00  0.00    -0.463 OA
ATOM     13  C   LIG A   1      -7.354   5.026 133.547  0.00  0.00    +0.196 A 
ATOM     14  C   LIG A   1      -8.720   5.035 133.708  0.00  0.00    +0.049 A 
ENDROOT
TORSDOF 0
ENDMDL
MODEL 6
REMARK VINA RESULT:      -6.2      1.698      2.397
REMARK  Name = NuBBE_2442
REMARK  0 active torsions:
REMARK  status: ('A' for Active; 'I' for Inactive)
REMARK                            x       y       z     vdW  Elec       q    Type
REMARK                         _______ _______ _______ _____ _____    ______ ____
ROOT
ATOM      1  O   LIG A   1      -5.672   6.540 131.863  0.00  0.00    -0.245 OA
ATOM      2  C   LIG A   1      -6.889   6.463 131.773  0.00  0.00    +0.337 A 
ATOM      3  O   LIG A   1      -7.589   6.953 130.679  0.00  0.00    -0.422 OA
ATOM      4  C   LIG A   1      -9.001   6.948 130.647  0.00  0.00    +0.143 A 
ATOM      5  C   LIG A   1      -9.735   6.361 131.681  0.00  0.00    +0.018 A 
ATOM      6  C   LIG A   1      -9.018   5.753 132.793  0.00  0.00    +0.018 A 
ATOM      7  C   LIG A   1      -7.685   5.821 132.835  0.00  0.00    +0.092 A 
ATOM      8  C   LIG A   1     -11.137   6.405 131.657  0.00  0.00    +0.023 A 
ATOM      9  C   LIG A   1     -11.772   7.093 130.604  0.00  0.00    +0.021 A 
ATOM     10  C   LIG A   1     -10.988   7.657 129.602  0.00  0.00    +0.138 A 
ATOM     11  C   LIG A   1      -9.599   7.591 129.562  0.00  0.00    +0.093 A 
ATOM     12  O   LIG A   1     -11.774   8.296 128.692  0.00  0.00    -0.463 OA
ATOM     13  C   LIG A   1     -13.058   8.161 129.113  0.00  0.00    +0.196 A 
ATOM     14  C   LIG A   1     -13.114   7.419 130.270  0.00  0.00    +0.049 A 
ENDROOT
TORSDOF 0
ENDMDL
MODEL 7
REMARK VINA RESULT:      -6.2     10.685     11.015
REMARK  Name = NuBBE_2442
REMARK  0 active torsions:
REMARK  status: ('A' for Active; 'I' for Inactive)
REMARK                            x       y       z     vdW  Elec       q    Type
REMARK                         _______ _______ _______ _____ _____    ______ ____
ROOT
ATOM      1  O   LIG A   1      -6.207  -2.239 130.279  0.00  0.00    -0.245 OA
ATOM      2  C   LIG A   1      -6.829  -2.549 129.272  0.00  0.00    +0.337 A 
ATOM      3  O   LIG A   1      -6.403  -2.205 127.996  0.00  0.00    -0.422 OA
ATOM      4  C   LIG A   1      -7.191  -2.481 126.858  0.00  0.00    +0.143 A 
ATOM      5  C   LIG A   1      -8.386  -3.196 126.976  0.00  0.00    +0.018 A 
ATOM      6  C   LIG A   1      -8.804  -3.652 128.293  0.00  0.00    +0.018 A 
ATOM      7  C   LIG A   1      -8.076  -3.329 129.366  0.00  0.00    +0.092 A 
ATOM      8  C   LIG A   1      -9.182  -3.422 125.842  0.00  0.00    +0.023 A 
ATOM      9  C   LIG A   1      -8.773  -2.871 124.612  0.00  0.00    +0.021 A 
ATOM     10  C   LIG A   1      -7.573  -2.169 124.556  0.00  0.00    +0.138 A 
ATOM     11  C   LIG A   1      -6.731  -1.967 125.645  0.00  0.00    +0.093 A 
ATOM     12  O   LIG A   1      -7.361  -1.695 123.297  0.00  0.00    -0.463 OA
ATOM     13  C   LIG A   1      -8.428  -2.073 122.547  0.00  0.00    +0.196 A 
ATOM     14  C   LIG A   1      -9.313  -2.809 123.299  0.00  0.00    +0.049 A 
ENDROOT
TORSDOF 0
ENDMDL
MODEL 8
REMARK VINA RESULT:      -6.0     10.846     11.916
REMARK  Name = NuBBE_2442
REMARK  0 active torsions:
REMARK  status: ('A' for Active; 'I' for Inactive)
REMARK                            x       y       z     vdW  Elec       q    Type
REMARK                         _______ _______ _______ _____ _____    ______ ____
ROOT
ATOM      1  O   LIG A   1      -6.810  -1.886 122.138  0.00  0.00    -0.245 OA
ATOM      2  C   LIG A   1      -7.302  -2.152 123.226  0.00  0.00    +0.337 A 
ATOM      3  O   LIG A   1      -6.685  -1.817 124.424  0.00  0.00    -0.422 OA
ATOM      4  C   LIG A   1      -7.220  -2.228 125.665  0.00  0.00    +0.143 A 
ATOM      5  C   LIG A   1      -8.440  -2.906 125.725  0.00  0.00    +0.018 A 
ATOM      6  C   LIG A   1      -9.153  -3.181 124.486  0.00  0.00    +0.018 A 
ATOM      7  C   LIG A   1      -8.602  -2.839 123.318  0.00  0.00    +0.092 A 
ATOM      8  C   LIG A   1      -8.935  -3.348 126.962  0.00  0.00    +0.023 A 
ATOM      9  C   LIG A   1      -8.152  -3.138 128.115  0.00  0.00    +0.021 A 
ATOM     10  C   LIG A   1      -6.946  -2.456 127.992  0.00  0.00    +0.138 A 
ATOM     11  C   LIG A   1      -6.445  -1.957 126.794  0.00  0.00    +0.093 A 
ATOM     12  O   LIG A   1      -6.325  -2.373 129.201  0.00  0.00    -0.463 OA
ATOM     13  C   LIG A   1      -7.119  -3.014 130.098  0.00  0.00    +0.196 A 
ATOM     14  C   LIG A   1      -8.257  -3.486 129.488  0.00  0.00    +0.049 A 
ENDROOT
TORSDOF 0
ENDMDL
MODEL 9
REMARK VINA RESULT:      -5.8      9.285     10.388
REMARK  Name = NuBBE_2442
REMARK  0 active torsions:
REMARK  status: ('A' for Active; 'I' for Inactive)
REMARK                            x       y       z     vdW  Elec       q    Type
REMARK                         _______ _______ _______ _____ _____    ______ ____
ROOT
ATOM      1  O   LIG A   1      -4.168   6.128 120.863  0.00  0.00    -0.245 OA
ATOM      2  C   LIG A   1      -4.841   5.223 121.337  0.00  0.00    +0.337 A 
ATOM      3  O   LIG A   1      -5.015   5.061 122.705  0.00  0.00    -0.422 OA
ATOM      4  C   LIG A   1      -5.709   3.949 123.231  0.00  0.00    +0.143 A 
ATOM      5  C   LIG A   1      -6.322   3.025 122.381  0.00  0.00    +0.018 A 
ATOM      6  C   LIG A   1      -6.236   3.229 120.943  0.00  0.00    +0.018 A 
ATOM      7  C   LIG A   1      -5.524   4.253 120.463  0.00  0.00    +0.092 A 
ATOM      8  C   LIG A   1      -6.967   1.900 122.919  0.00  0.00    +0.023 A 
ATOM      9  C   LIG A   1      -6.933   1.706 124.313  0.00  0.00    +0.021 A 
ATOM     10  C   LIG A   1      -6.308   2.661 125.108  0.00  0.00    +0.138 A 
ATOM     11  C   LIG A   1      -5.702   3.815 124.621  0.00  0.00    +0.093 A 
ATOM     12  O   LIG A   1      -6.355   2.289 126.418  0.00  0.00    -0.463 OA
ATOM     13  C   LIG A   1      -6.993   1.091 126.466  0.00  0.00    +0.196 A 
ATOM     14  C   LIG A   1      -7.382   0.697 125.207  0.00  0.00    +0.049 A 
ENDROOT
TORSDOF 0
ENDMDL
