MODEL 1
REMARK VINA RESULT:      -6.4      0.000      0.000
REMARK  Name = NuBBE_399
REMARK  4 active torsions:
REMARK  status: ('A' for Active; 'I' for Inactive)
REMARK    1  A    between atoms: C_1  and  C_2
REMARK    2  A    between atoms: C_2  and  S_3
REMARK    3  A    between atoms: S_3  and  C_4
REMARK    4  A    between atoms: C_4  and  C_5
REMARK                            x       y       z     vdW  Elec       q    Type
REMARK                         _______ _______ _______ _____ _____    ______ ____
ROOT
ATOM      1  S   LIG A   1      -8.359   1.272 124.089  0.00  0.00    -0.151 S 
ENDROOT
BRANCH   1   2
ATOM      2  C   LIG A   1      -9.022   2.492 122.905  0.00  0.00    +0.104 C 
BRANCH   2   3
ATOM      3  C   LIG A   1      -7.994   3.077 121.968  0.00  0.00    -0.037 A 
ATOM      4  C   LIG A   1      -6.634   3.079 122.311  0.00  0.00    +0.004 A 
ATOM      5  C   LIG A   1      -5.685   3.635 121.449  0.00  0.00    +0.000 A 
ATOM      6  C   LIG A   1      -6.083   4.183 120.236  0.00  0.00    +0.000 A 
ATOM      7  C   LIG A   1      -7.429   4.201 119.889  0.00  0.00    +0.000 A 
ATOM      8  C   LIG A   1      -8.380   3.662 120.755  0.00  0.00    +0.004 A 
ENDBRANCH   2   3
ENDBRANCH   1   2
BRANCH   1   9
ATOM      9  C   LIG A   1      -8.875  -0.300 123.315  0.00  0.00    +0.104 C 
BRANCH   9  10
ATOM     10  C   LIG A   1      -7.909  -1.437 123.531  0.00  0.00    -0.037 A 
ATOM     11  C   LIG A   1      -6.543  -1.282 123.249  0.00  0.00    +0.004 A 
ATOM     12  C   LIG A   1      -5.641  -2.310 123.525  0.00  0.00    +0.000 A 
ATOM     13  C   LIG A   1      -6.090  -3.501 124.088  0.00  0.00    +0.000 A 
ATOM     14  C   LIG A   1      -7.449  -3.683 124.338  0.00  0.00    +0.000 A 
ATOM     15  C   LIG A   1      -8.355  -2.665 124.039  0.00  0.00    +0.004 A 
ENDBRANCH   9  10
ENDBRANCH   1   9
TORSDOF 4
ENDMDL
MODEL 2
REMARK VINA RESULT:      -6.3      0.907      6.793
REMARK  Name = NuBBE_399
REMARK  4 active torsions:
REMARK  status: ('A' for Active; 'I' for Inactive)
REMARK    1  A    between atoms: C_1  and  C_2
REMARK    2  A    between atoms: C_2  and  S_3
REMARK    3  A    between atoms: S_3  and  C_4
REMARK    4  A    between atoms: C_4  and  C_5
REMARK                            x       y       z     vdW  Elec       q    Type
REMARK                         _______ _______ _______ _____ _____    ______ ____
ROOT
ATOM      1  S   LIG A   1      -8.903   1.288 123.227  0.00  0.00    -0.151 S 
ENDROOT
BRANCH   1   2
ATOM      2  C   LIG A   1      -7.395   0.280 123.429  0.00  0.00    +0.104 C 
BRANCH   2   3
ATOM      3  C   LIG A   1      -7.652  -1.180 123.712  0.00  0.00    -0.037 A 
ATOM      4  C   LIG A   1      -8.924  -1.735 123.506  0.00  0.00    +0.004 A 
ATOM      5  C   LIG A   1      -9.164  -3.083 123.783  0.00  0.00    +0.000 A 
ATOM      6  C   LIG A   1      -8.137  -3.890 124.259  0.00  0.00    +0.000 A 
ATOM      7  C   LIG A   1      -6.876  -3.350 124.483  0.00  0.00    +0.000 A 
ATOM      8  C   LIG A   1      -6.638  -2.001 124.222  0.00  0.00    +0.004 A 
ENDBRANCH   2   3
ENDBRANCH   1   2
BRANCH   1   9
ATOM      9  C   LIG A   1      -8.203   2.973 123.142  0.00  0.00    +0.104 C 
BRANCH   9  10
ATOM     10  C   LIG A   1      -7.851   3.422 121.747  0.00  0.00    -0.037 A 
ATOM     11  C   LIG A   1      -8.852   3.634 120.787  0.00  0.00    +0.004 A 
ATOM     12  C   LIG A   1      -8.529   4.126 119.522  0.00  0.00    +0.000 A 
ATOM     13  C   LIG A   1      -7.205   4.415 119.202  0.00  0.00    +0.000 A 
ATOM     14  C   LIG A   1      -6.197   4.173 120.133  0.00  0.00    +0.000 A 
ATOM     15  C   LIG A   1      -6.516   3.657 121.389  0.00  0.00    +0.004 A 
ENDBRANCH   9  10
ENDBRANCH   1   9
TORSDOF 4
ENDMDL
MODEL 3
REMARK VINA RESULT:      -6.3      1.530      2.400
REMARK  Name = NuBBE_399
REMARK  4 active torsions:
REMARK  status: ('A' for Active; 'I' for Inactive)
REMARK    1  A    between atoms: C_1  and  C_2
REMARK    2  A    between atoms: C_2  and  S_3
REMARK    3  A    between atoms: S_3  and  C_4
REMARK    4  A    between atoms: C_4  and  C_5
REMARK                            x       y       z     vdW  Elec       q    Type
REMARK                         _______ _______ _______ _____ _____    ______ ____
ROOT
ATOM      1  S   LIG A   1      -8.576   1.956 124.423  0.00  0.00    -0.151 S 
ENDROOT
BRANCH   1   2
ATOM      2  C   LIG A   1      -7.049   2.458 123.560  0.00  0.00    +0.104 C 
BRANCH   2   3
ATOM      3  C   LIG A   1      -7.273   3.082 122.205  0.00  0.00    -0.037 A 
ATOM      4  C   LIG A   1      -8.572   3.263 121.707  0.00  0.00    +0.004 A 
ATOM      5  C   LIG A   1      -8.777   3.827 120.446  0.00  0.00    +0.000 A 
ATOM      6  C   LIG A   1      -7.691   4.224 119.675  0.00  0.00    +0.000 A 
ATOM      7  C   LIG A   1      -6.397   4.036 120.149  0.00  0.00    +0.000 A 
ATOM      8  C   LIG A   1      -6.189   3.459 121.401  0.00  0.00    +0.004 A 
ENDBRANCH   2   3
ENDBRANCH   1   2
BRANCH   1   9
ATOM      9  C   LIG A   1      -7.982   0.542 125.416  0.00  0.00    +0.104 C 
BRANCH   9  10
ATOM     10  C   LIG A   1      -8.413  -0.803 124.888  0.00  0.00    -0.037 A 
ATOM     11  C   LIG A   1      -8.817  -1.822 125.763  0.00  0.00    +0.004 A 
ATOM     12  C   LIG A   1      -9.290  -3.037 125.267  0.00  0.00    +0.000 A 
ATOM     13  C   LIG A   1      -9.368  -3.248 123.893  0.00  0.00    +0.000 A 
ATOM     14  C   LIG A   1      -8.935  -2.258 123.013  0.00  0.00    +0.000 A 
ATOM     15  C   LIG A   1      -8.438  -1.052 123.509  0.00  0.00    +0.004 A 
ENDBRANCH   9  10
ENDBRANCH   1   9
TORSDOF 4
ENDMDL
MODEL 4
REMARK VINA RESULT:      -6.2      2.784      5.861
REMARK  Name = NuBBE_399
REMARK  4 active torsions:
REMARK  status: ('A' for Active; 'I' for Inactive)
REMARK    1  A    between atoms: C_1  and  C_2
REMARK    2  A    between atoms: C_2  and  S_3
REMARK    3  A    between atoms: S_3  and  C_4
REMARK    4  A    between atoms: C_4  and  C_5
REMARK                            x       y       z     vdW  Elec       q    Type
REMARK                         _______ _______ _______ _____ _____    ______ ____
ROOT
ATOM      1  S   LIG A   1      -5.557  -0.814 126.427  0.00  0.00    -0.151 S 
ENDROOT
BRANCH   1   2
ATOM      2  C   LIG A   1      -5.485  -1.760 124.869  0.00  0.00    +0.104 C 
BRANCH   2   3
ATOM      3  C   LIG A   1      -6.829  -2.198 124.339  0.00  0.00    -0.037 A 
ATOM      4  C   LIG A   1      -7.266  -1.783 123.072  0.00  0.00    +0.004 A 
ATOM      5  C   LIG A   1      -8.517  -2.177 122.589  0.00  0.00    +0.000 A 
ATOM      6  C   LIG A   1      -9.337  -2.992 123.360  0.00  0.00    +0.000 A 
ATOM      7  C   LIG A   1      -8.922  -3.398 124.624  0.00  0.00    +0.000 A 
ATOM      8  C   LIG A   1      -7.681  -2.994 125.115  0.00  0.00    +0.004 A 
ENDBRANCH   2   3
ENDBRANCH   1   2
BRANCH   1   9
ATOM      9  C   LIG A   1      -5.931   0.865 125.814  0.00  0.00    +0.104 C 
BRANCH   9  10
ATOM     10  C   LIG A   1      -7.353   1.047 125.349  0.00  0.00    -0.037 A 
ATOM     11  C   LIG A   1      -7.635   1.702 124.140  0.00  0.00    +0.004 A 
ATOM     12  C   LIG A   1      -8.947   1.798 123.675  0.00  0.00    +0.000 A 
ATOM     13  C   LIG A   1      -9.991   1.239 124.407  0.00  0.00    +0.000 A 
ATOM     14  C   LIG A   1      -9.729   0.619 125.628  0.00  0.00    +0.000 A 
ATOM     15  C   LIG A   1      -8.421   0.545 126.106  0.00  0.00    +0.004 A 
ENDBRANCH   9  10
ENDBRANCH   1   9
TORSDOF 4
ENDMDL
MODEL 5
REMARK VINA RESULT:      -6.2     10.531     11.889
REMARK  Name = NuBBE_399
REMARK  4 active torsions:
REMARK  status: ('A' for Active; 'I' for Inactive)
REMARK    1  A    between atoms: C_1  and  C_2
REMARK    2  A    between atoms: C_2  and  S_3
REMARK    3  A    between atoms: S_3  and  C_4
REMARK    4  A    between atoms: C_4  and  C_5
REMARK                            x       y       z     vdW  Elec       q    Type
REMARK                         _______ _______ _______ _____ _____    ______ ____
ROOT
ATOM      1  S   LIG A   1     -10.638   5.693 131.331  0.00  0.00    -0.151 S 
ENDROOT
BRANCH   1   2
ATOM      2  C   LIG A   1      -9.310   6.823 130.796  0.00  0.00    +0.104 C 
BRANCH   2   3
ATOM      3  C   LIG A   1      -7.968   6.559 131.435  0.00  0.00    -0.037 A 
ATOM      4  C   LIG A   1      -7.878   5.839 132.636  0.00  0.00    +0.004 A 
ATOM      5  C   LIG A   1      -6.637   5.609 133.234  0.00  0.00    +0.000 A 
ATOM      6  C   LIG A   1      -5.476   6.085 132.636  0.00  0.00    +0.000 A 
ATOM      7  C   LIG A   1      -5.552   6.813 131.454  0.00  0.00    +0.000 A 
ATOM      8  C   LIG A   1      -6.791   7.058 130.863  0.00  0.00    +0.004 A 
ENDBRANCH   2   3
ENDBRANCH   1   2
BRANCH   1   9
ATOM      9  C   LIG A   1     -12.036   6.850 131.539  0.00  0.00    +0.104 C 
BRANCH   9  10
ATOM     10  C   LIG A   1     -12.576   7.401 130.243  0.00  0.00    -0.037 A 
ATOM     11  C   LIG A   1     -12.698   8.784 130.047  0.00  0.00    +0.004 A 
ATOM     12  C   LIG A   1     -13.122   9.292 128.819  0.00  0.00    +0.000 A 
ATOM     13  C   LIG A   1     -13.426   8.425 127.772  0.00  0.00    +0.000 A 
ATOM     14  C   LIG A   1     -13.345   7.047 127.966  0.00  0.00    +0.000 A 
ATOM     15  C   LIG A   1     -12.945   6.538 129.202  0.00  0.00    +0.004 A 
ENDBRANCH   9  10
ENDBRANCH   1   9
TORSDOF 4
ENDMDL
MODEL 6
REMARK VINA RESULT:      -6.2      4.279      6.824
REMARK  Name = NuBBE_399
REMARK  4 active torsions:
REMARK  status: ('A' for Active; 'I' for Inactive)
REMARK    1  A    between atoms: C_1  and  C_2
REMARK    2  A    between atoms: C_2  and  S_3
REMARK    3  A    between atoms: S_3  and  C_4
REMARK    4  A    between atoms: C_4  and  C_5
REMARK                            x       y       z     vdW  Elec       q    Type
REMARK                         _______ _______ _______ _____ _____    ______ ____
ROOT
ATOM      1  S   LIG A   1      -9.462  -3.117 126.135  0.00  0.00    -0.151 S 
ENDROOT
BRANCH   1   2
ATOM      2  C   LIG A   1      -8.263  -1.856 126.682  0.00  0.00    +0.104 C 
BRANCH   2   3
ATOM      3  C   LIG A   1      -7.251  -2.349 127.688  0.00  0.00    -0.037 A 
ATOM      4  C   LIG A   1      -5.883  -2.098 127.507  0.00  0.00    +0.004 A 
ATOM      5  C   LIG A   1      -4.946  -2.567 128.431  0.00  0.00    +0.000 A 
ATOM      6  C   LIG A   1      -5.366  -3.282 129.546  0.00  0.00    +0.000 A 
ATOM      7  C   LIG A   1      -6.718  -3.552 129.731  0.00  0.00    +0.000 A 
ATOM      8  C   LIG A   1      -7.653  -3.098 128.801  0.00  0.00    +0.004 A 
ENDBRANCH   2   3
ENDBRANCH   1   2
BRANCH   1   9
ATOM      9  C   LIG A   1      -9.227  -3.079 124.324  0.00  0.00    +0.104 C 
BRANCH   9  10
ATOM     10  C   LIG A   1      -7.783  -3.034 123.892  0.00  0.00    -0.037 A 
ATOM     11  C   LIG A   1      -7.328  -2.044 123.009  0.00  0.00    +0.004 A 
ATOM     12  C   LIG A   1      -5.977  -1.958 122.675  0.00  0.00    +0.000 A 
ATOM     13  C   LIG A   1      -5.063  -2.857 123.220  0.00  0.00    +0.000 A 
ATOM     14  C   LIG A   1      -5.508  -3.869 124.069  0.00  0.00    +0.000 A 
ATOM     15  C   LIG A   1      -6.864  -3.971 124.384  0.00  0.00    +0.004 A 
ENDBRANCH   9  10
ENDBRANCH   1   9
TORSDOF 4
ENDMDL
MODEL 7
REMARK VINA RESULT:      -6.2      2.988      4.444
REMARK  Name = NuBBE_399
REMARK  4 active torsions:
REMARK  status: ('A' for Active; 'I' for Inactive)
REMARK    1  A    between atoms: C_1  and  C_2
REMARK    2  A    between atoms: C_2  and  S_3
REMARK    3  A    between atoms: S_3  and  C_4
REMARK    4  A    between atoms: C_4  and  C_5
REMARK                            x       y       z     vdW  Elec       q    Type
REMARK                         _______ _______ _______ _____ _____    ______ ____
ROOT
ATOM      1  S   LIG A   1      -5.757  -1.644 126.845  0.00  0.00    -0.151 S 
ENDROOT
BRANCH   1   2
ATOM      2  C   LIG A   1      -5.865   0.102 126.329  0.00  0.00    +0.104 C 
BRANCH   2   3
ATOM      3  C   LIG A   1      -7.181   0.489 125.701  0.00  0.00    -0.037 A 
ATOM      4  C   LIG A   1      -8.395   0.130 126.306  0.00  0.00    +0.004 A 
ATOM      5  C   LIG A   1      -9.613   0.476 125.715  0.00  0.00    +0.000 A 
ATOM      6  C   LIG A   1      -9.631   1.189 124.523  0.00  0.00    +0.000 A 
ATOM      7  C   LIG A   1      -8.436   1.538 123.903  0.00  0.00    +0.000 A 
ATOM      8  C   LIG A   1      -7.219   1.181 124.483  0.00  0.00    +0.004 A 
ENDBRANCH   2   3
ENDBRANCH   1   2
BRANCH   1   9
ATOM      9  C   LIG A   1      -5.592  -2.488 125.234  0.00  0.00    +0.104 C 
BRANCH   9  10
ATOM     10  C   LIG A   1      -6.892  -2.645 124.486  0.00  0.00    -0.037 A 
ATOM     11  C   LIG A   1      -7.981  -3.307 125.071  0.00  0.00    +0.004 A 
ATOM     12  C   LIG A   1      -9.206  -3.380 124.408  0.00  0.00    +0.000 A 
ATOM     13  C   LIG A   1      -9.359  -2.791 123.156  0.00  0.00    +0.000 A 
ATOM     14  C   LIG A   1      -8.274  -2.163 122.546  0.00  0.00    +0.000 A 
ATOM     15  C   LIG A   1      -7.041  -2.112 123.198  0.00  0.00    +0.004 A 
ENDBRANCH   9  10
ENDBRANCH   1   9
TORSDOF 4
ENDMDL
MODEL 8
REMARK VINA RESULT:      -6.1      0.974      6.432
REMARK  Name = NuBBE_399
REMARK  4 active torsions:
REMARK  status: ('A' for Active; 'I' for Inactive)
REMARK    1  A    between atoms: C_1  and  C_2
REMARK    2  A    between atoms: C_2  and  S_3
REMARK    3  A    between atoms: S_3  and  C_4
REMARK    4  A    between atoms: C_4  and  C_5
REMARK                            x       y       z     vdW  Elec       q    Type
REMARK                         _______ _______ _______ _____ _____    ______ ____
ROOT
ATOM      1  S   LIG A   1      -7.102   1.498 124.553  0.00  0.00    -0.151 S 
ENDROOT
BRANCH   1   2
ATOM      2  C   LIG A   1      -7.037   0.305 123.175  0.00  0.00    +0.104 C 
BRANCH   2   3
ATOM      3  C   LIG A   1      -7.177  -1.139 123.589  0.00  0.00    -0.037 A 
ATOM      4  C   LIG A   1      -6.048  -1.892 123.946  0.00  0.00    +0.004 A 
ATOM      5  C   LIG A   1      -6.177  -3.233 124.315  0.00  0.00    +0.000 A 
ATOM      6  C   LIG A   1      -7.431  -3.831 124.341  0.00  0.00    +0.000 A 
ATOM      7  C   LIG A   1      -8.557  -3.101 123.975  0.00  0.00    +0.000 A 
ATOM      8  C   LIG A   1      -8.429  -1.767 123.591  0.00  0.00    +0.004 A 
ENDBRANCH   2   3
ENDBRANCH   1   2
BRANCH   1   9
ATOM      9  C   LIG A   1      -7.847   2.953 123.739  0.00  0.00    +0.104 C 
BRANCH   9  10
ATOM     10  C   LIG A   1      -7.026   3.510 122.604  0.00  0.00    -0.037 A 
ATOM     11  C   LIG A   1      -5.728   3.994 122.826  0.00  0.00    +0.004 A 
ATOM     12  C   LIG A   1      -4.943   4.434 121.761  0.00  0.00    +0.000 A 
ATOM     13  C   LIG A   1      -5.441   4.392 120.461  0.00  0.00    +0.000 A 
ATOM     14  C   LIG A   1      -6.743   3.949 120.230  0.00  0.00    +0.000 A 
ATOM     15  C   LIG A   1      -7.538   3.533 121.299  0.00  0.00    +0.004 A 
ENDBRANCH   9  10
ENDBRANCH   1   9
TORSDOF 4
ENDMDL
MODEL 9
REMARK VINA RESULT:      -6.0     10.514     11.332
REMARK  Name = NuBBE_399
REMARK  4 active torsions:
REMARK  status: ('A' for Active; 'I' for Inactive)
REMARK    1  A    between atoms: C_1  and  C_2
REMARK    2  A    between atoms: C_2  and  S_3
REMARK    3  A    between atoms: S_3  and  C_4
REMARK    4  A    between atoms: C_4  and  C_5
REMARK                            x       y       z     vdW  Elec       q    Type
REMARK                         _______ _______ _______ _____ _____    ______ ____
ROOT
ATOM      1  S   LIG A   1     -10.832   6.240 131.719  0.00  0.00    -0.151 S 
ENDROOT
BRANCH   1   2
ATOM      2  C   LIG A   1     -11.743   5.751 130.217  0.00  0.00    +0.104 C 
BRANCH   2   3
ATOM      3  C   LIG A   1     -12.398   6.895 129.481  0.00  0.00    -0.037 A 
ATOM      4  C   LIG A   1     -13.234   6.651 128.381  0.00  0.00    +0.004 A 
ATOM      5  C   LIG A   1     -13.827   7.712 127.691  0.00  0.00    +0.000 A 
ATOM      6  C   LIG A   1     -13.599   9.021 128.098  0.00  0.00    +0.000 A 
ATOM      7  C   LIG A   1     -12.761   9.278 129.178  0.00  0.00    +0.000 A 
ATOM      8  C   LIG A   1     -12.155   8.222 129.858  0.00  0.00    +0.004 A 
ENDBRANCH   2   3
ENDBRANCH   1   2
BRANCH   1   9
ATOM      9  C   LIG A   1      -9.153   6.510 131.053  0.00  0.00    +0.104 C 
BRANCH   9  10
ATOM     10  C   LIG A   1      -8.049   6.251 132.046  0.00  0.00    -0.037 A 
ATOM     11  C   LIG A   1      -8.338   5.773 133.332  0.00  0.00    +0.004 A 
ATOM     12  C   LIG A   1      -7.309   5.459 134.220  0.00  0.00    +0.000 A 
ATOM     13  C   LIG A   1      -5.980   5.616 133.834  0.00  0.00    +0.000 A 
ATOM     14  C   LIG A   1      -5.679   6.126 132.572  0.00  0.00    +0.000 A 
ATOM     15  C   LIG A   1      -6.708   6.464 131.693  0.00  0.00    +0.004 A 
ENDBRANCH   9  10
ENDBRANCH   1   9
TORSDOF 4
ENDMDL
