MODEL 1
REMARK VINA RESULT:      -7.8      0.000      0.000
REMARK  Name = NuBBE_2504
REMARK  7 active torsions:
REMARK  status: ('A' for Active; 'I' for Inactive)
REMARK    1  A    between atoms: C_1  and  C_2
REMARK    2  A    between atoms: C_2  and  C_3
REMARK    3  A    between atoms: C_2  and  C_4
REMARK    4  A    between atoms: C_8  and  O_9
REMARK    5  A    between atoms: C_10  and  O_11
REMARK    6  A    between atoms: C_16  and  C_17
REMARK    7  A    between atoms: C_16  and  C_18
REMARK                            x       y       z     vdW  Elec       q    Type
REMARK                         _______ _______ _______ _____ _____    ______ ____
ROOT
ATOM      1  C   LIG A   1     -11.972   6.946 129.512  0.00  0.00    +0.001 A 
ATOM      2  C   LIG A   1     -10.866   6.385 128.858  0.00  0.00    +0.014 A 
ATOM      3  C   LIG A   1      -9.896   5.693 129.589  0.00  0.00    -0.011 A 
ATOM      4  C   LIG A   1      -9.983   5.532 130.998  0.00  0.00    +0.012 A 
ATOM      5  C   LIG A   1     -11.092   6.067 131.636  0.00  0.00    +0.163 A 
ATOM      6  C   LIG A   1     -12.059   6.776 130.898  0.00  0.00    +0.162 A 
ATOM      7  C   LIG A   1      -8.740   4.792 131.546  0.00  0.00    +0.026 C 
ATOM      8  C   LIG A   1      -8.583   4.636 133.070  0.00  0.00    +0.014 C 
ATOM      9  C   LIG A   1      -9.142   3.310 133.577  0.00  0.00    +0.001 C 
ATOM     10  C   LIG A   1      -8.415   2.097 132.985  0.00  0.00    +0.007 C 
ATOM     11  C   LIG A   1      -7.961   2.260 131.503  0.00  0.00    -0.031 C 
ATOM     12  C   LIG A   1      -8.217   0.922 130.770  0.00  0.00    +0.011 C 
ATOM     13  C   LIG A   1      -6.437   2.501 131.476  0.00  0.00    +0.011 C 
ATOM     14  C   LIG A   1      -8.787   3.395 130.824  0.00  0.00    +0.010 C 
ATOM     15  C   LIG A   1      -8.557   3.597 129.302  0.00  0.00    +0.041 C 
ATOM     16  C   LIG A   1      -8.654   5.092 128.964  0.00  0.00    +0.149 C 
ATOM     17  O   LIG A   1      -7.517   5.733 129.563  0.00  0.00    -0.371 OA
ATOM     18  C   LIG A   1      -7.550   5.652 131.001  0.00  0.00    +0.172 C 
ENDROOT
BRANCH   1  20
ATOM     19  C   LIG A   1     -13.114   7.245 127.282  0.00  0.00    +0.012 C 
ATOM     20  C   LIG A   1     -13.031   7.713 128.739  0.00  0.00    +0.017 C 
ATOM     21  C   LIG A   1     -12.794   9.225 128.812  0.00  0.00    +0.012 C 
ENDBRANCH   1  20
BRANCH   5  22
ATOM     22  O   LIG A   1     -11.353   5.958 132.972  0.00  0.00    -0.503 OA
ATOM     23  H   LIG A   1     -10.665   6.456 133.440  0.00  0.00    +0.292 HD
ENDBRANCH   5  22
BRANCH   6  24
ATOM     24  O   LIG A   1     -13.123   7.305 131.586  0.00  0.00    -0.503 OA
ATOM     25  H   LIG A   1     -13.655   7.754 130.900  0.00  0.00    +0.292 HD
ENDBRANCH   6  24
TORSDOF 3
ENDMDL
MODEL 2
REMARK VINA RESULT:      -7.6      2.534      4.297
REMARK  Name = NuBBE_2504
REMARK  7 active torsions:
REMARK  status: ('A' for Active; 'I' for Inactive)
REMARK    1  A    between atoms: C_1  and  C_2
REMARK    2  A    between atoms: C_2  and  C_3
REMARK    3  A    between atoms: C_2  and  C_4
REMARK    4  A    between atoms: C_8  and  O_9
REMARK    5  A    between atoms: C_10  and  O_11
REMARK    6  A    between atoms: C_16  and  C_17
REMARK    7  A    between atoms: C_16  and  C_18
REMARK                            x       y       z     vdW  Elec       q    Type
REMARK                         _______ _______ _______ _____ _____    ______ ____
ROOT
ATOM      1  C   LIG A   1     -10.411   6.671 131.010  0.00  0.00    +0.001 A 
ATOM      2  C   LIG A   1     -10.413   5.736 132.055  0.00  0.00    +0.014 A 
ATOM      3  C   LIG A   1      -9.206   5.282 132.594  0.00  0.00    -0.011 A 
ATOM      4  C   LIG A   1      -7.947   5.734 132.115  0.00  0.00    +0.012 A 
ATOM      5  C   LIG A   1      -7.951   6.677 131.098  0.00  0.00    +0.163 A 
ATOM      6  C   LIG A   1      -9.168   7.121 130.549  0.00  0.00    +0.162 A 
ATOM      7  C   LIG A   1      -6.789   5.010 132.842  0.00  0.00    +0.026 C 
ATOM      8  C   LIG A   1      -5.345   5.266 132.371  0.00  0.00    +0.014 C 
ATOM      9  C   LIG A   1      -4.665   6.376 133.168  0.00  0.00    +0.001 C 
ATOM     10  C   LIG A   1      -4.534   6.038 134.658  0.00  0.00    +0.007 C 
ATOM     11  C   LIG A   1      -5.730   5.238 135.259  0.00  0.00    -0.031 C 
ATOM     12  C   LIG A   1      -6.028   5.802 136.668  0.00  0.00    +0.011 C 
ATOM     13  C   LIG A   1      -5.297   3.769 135.447  0.00  0.00    +0.011 C 
ATOM     14  C   LIG A   1      -6.985   5.410 134.350  0.00  0.00    +0.010 C 
ATOM     15  C   LIG A   1      -8.306   4.788 134.877  0.00  0.00    +0.041 C 
ATOM     16  C   LIG A   1      -9.123   4.246 133.695  0.00  0.00    +0.149 C 
ATOM     17  O   LIG A   1      -8.406   3.116 133.172  0.00  0.00    -0.371 OA
ATOM     18  C   LIG A   1      -7.129   3.497 132.626  0.00  0.00    +0.172 C 
ENDROOT
BRANCH   1  20
ATOM     19  C   LIG A   1     -12.767   7.439 131.479  0.00  0.00    +0.012 C 
ATOM     20  C   LIG A   1     -11.711   7.168 130.402  0.00  0.00    +0.017 C 
ATOM     21  C   LIG A   1     -12.245   6.194 129.347  0.00  0.00    +0.012 C 
ENDBRANCH   1  20
BRANCH   5  22
ATOM     22  O   LIG A   1      -6.833   7.251 130.561  0.00  0.00    -0.503 OA
ATOM     23  H   LIG A   1      -6.271   7.529 131.299  0.00  0.00    +0.292 HD
ENDBRANCH   5  22
BRANCH   6  24
ATOM     24  O   LIG A   1      -9.110   8.037 129.528  0.00  0.00    -0.503 OA
ATOM     25  H   LIG A   1     -10.044   8.172 129.270  0.00  0.00    +0.292 HD
ENDBRANCH   6  24
TORSDOF 3
ENDMDL
MODEL 3
REMARK VINA RESULT:      -7.5      1.929      2.572
REMARK  Name = NuBBE_2504
REMARK  7 active torsions:
REMARK  status: ('A' for Active; 'I' for Inactive)
REMARK    1  A    between atoms: C_1  and  C_2
REMARK    2  A    between atoms: C_2  and  C_3
REMARK    3  A    between atoms: C_2  and  C_4
REMARK    4  A    between atoms: C_8  and  O_9
REMARK    5  A    between atoms: C_10  and  O_11
REMARK    6  A    between atoms: C_16  and  C_17
REMARK    7  A    between atoms: C_16  and  C_18
REMARK                            x       y       z     vdW  Elec       q    Type
REMARK                         _______ _______ _______ _____ _____    ______ ____
ROOT
ATOM      1  C   LIG A   1     -10.331   7.032 129.760  0.00  0.00    +0.001 A 
ATOM      2  C   LIG A   1      -9.185   7.087 130.564  0.00  0.00    +0.014 A 
ATOM      3  C   LIG A   1      -8.819   5.984 131.342  0.00  0.00    -0.011 A 
ATOM      4  C   LIG A   1      -9.578   4.783 131.355  0.00  0.00    +0.012 A 
ATOM      5  C   LIG A   1     -10.698   4.725 130.538  0.00  0.00    +0.163 A 
ATOM      6  C   LIG A   1     -11.070   5.843 129.768  0.00  0.00    +0.162 A 
ATOM      7  C   LIG A   1      -8.983   3.766 132.358  0.00  0.00    +0.026 C 
ATOM      8  C   LIG A   1      -9.741   2.450 132.615  0.00  0.00    +0.014 C 
ATOM      9  C   LIG A   1      -9.244   1.313 131.727  0.00  0.00    +0.001 C 
ATOM     10  C   LIG A   1      -7.771   0.969 131.978  0.00  0.00    +0.007 C 
ATOM     11  C   LIG A   1      -6.856   2.188 132.305  0.00  0.00    -0.031 C 
ATOM     12  C   LIG A   1      -5.508   1.990 131.574  0.00  0.00    +0.011 C 
ATOM     13  C   LIG A   1      -6.550   2.185 133.818  0.00  0.00    +0.011 C 
ATOM     14  C   LIG A   1      -7.534   3.501 131.806  0.00  0.00    +0.010 C 
ATOM     15  C   LIG A   1      -6.693   4.800 131.929  0.00  0.00    +0.041 C 
ATOM     16  C   LIG A   1      -7.619   5.978 132.266  0.00  0.00    +0.149 C 
ATOM     17  O   LIG A   1      -8.103   5.764 133.601  0.00  0.00    -0.371 OA
ATOM     18  C   LIG A   1      -8.922   4.583 133.692  0.00  0.00    +0.172 C 
ENDROOT
BRANCH   1  20
ATOM     19  C   LIG A   1     -12.151   8.718 129.303  0.00  0.00    +0.012 C 
ATOM     20  C   LIG A   1     -10.754   8.223 128.917  0.00  0.00    +0.017 C 
ATOM     21  C   LIG A   1     -10.684   7.902 127.420  0.00  0.00    +0.012 C 
ENDBRANCH   1  20
BRANCH   5  22
ATOM     22  O   LIG A   1     -11.505   3.632 130.396  0.00  0.00    -0.503 OA
ATOM     23  H   LIG A   1     -11.552   3.196 131.260  0.00  0.00    +0.292 HD
ENDBRANCH   5  22
BRANCH   6  24
ATOM     24  O   LIG A   1     -12.201   5.736 128.997  0.00  0.00    -0.503 OA
ATOM     25  H   LIG A   1     -12.937   5.864 129.629  0.00  0.00    +0.292 HD
ENDBRANCH   6  24
TORSDOF 3
ENDMDL
MODEL 4
REMARK VINA RESULT:      -7.4      7.274      9.035
REMARK  Name = NuBBE_2504
REMARK  7 active torsions:
REMARK  status: ('A' for Active; 'I' for Inactive)
REMARK    1  A    between atoms: C_1  and  C_2
REMARK    2  A    between atoms: C_2  and  C_3
REMARK    3  A    between atoms: C_2  and  C_4
REMARK    4  A    between atoms: C_8  and  O_9
REMARK    5  A    between atoms: C_10  and  O_11
REMARK    6  A    between atoms: C_16  and  C_17
REMARK    7  A    between atoms: C_16  and  C_18
REMARK                            x       y       z     vdW  Elec       q    Type
REMARK                         _______ _______ _______ _____ _____    ______ ____
ROOT
ATOM      1  C   LIG A   1      -4.624   2.948 126.010  0.00  0.00    +0.001 A 
ATOM      2  C   LIG A   1      -4.632   1.747 126.733  0.00  0.00    +0.014 A 
ATOM      3  C   LIG A   1      -5.590   0.767 126.457  0.00  0.00    -0.011 A 
ATOM      4  C   LIG A   1      -6.581   0.941 125.453  0.00  0.00    +0.012 A 
ATOM      5  C   LIG A   1      -6.553   2.120 124.724  0.00  0.00    +0.163 A 
ATOM      6  C   LIG A   1      -5.596   3.109 125.015  0.00  0.00    +0.162 A 
ATOM      7  C   LIG A   1      -7.547  -0.267 125.419  0.00  0.00    +0.026 C 
ATOM      8  C   LIG A   1      -8.771  -0.209 124.487  0.00  0.00    +0.014 C 
ATOM      9  C   LIG A   1      -8.498  -0.856 123.132  0.00  0.00    +0.001 C 
ATOM     10  C   LIG A   1      -8.167  -2.349 123.246  0.00  0.00    +0.007 C 
ATOM     11  C   LIG A   1      -7.335  -2.745 124.504  0.00  0.00    -0.031 C 
ATOM     12  C   LIG A   1      -6.285  -3.796 124.078  0.00  0.00    +0.011 C 
ATOM     13  C   LIG A   1      -8.273  -3.432 125.520  0.00  0.00    +0.011 C 
ATOM     14  C   LIG A   1      -6.613  -1.484 125.073  0.00  0.00    +0.010 C 
ATOM     15  C   LIG A   1      -5.630  -1.727 126.249  0.00  0.00    +0.041 C 
ATOM     16  C   LIG A   1      -5.690  -0.538 127.219  0.00  0.00    +0.149 C 
ATOM     17  O   LIG A   1      -6.981  -0.572 127.848  0.00  0.00    -0.371 OA
ATOM     18  C   LIG A   1      -8.045  -0.361 126.901  0.00  0.00    +0.172 C 
ENDROOT
BRANCH   1  20
ATOM     19  C   LIG A   1      -2.234   3.432 126.655  0.00  0.00    +0.012 C 
ATOM     20  C   LIG A   1      -3.600   4.031 126.302  0.00  0.00    +0.017 C 
ATOM     21  C   LIG A   1      -4.082   4.975 127.408  0.00  0.00    +0.012 C 
ENDBRANCH   1  20
BRANCH   5  22
ATOM     22  O   LIG A   1      -7.399   2.421 123.694  0.00  0.00    -0.503 OA
ATOM     23  H   LIG A   1      -8.301   2.253 124.006  0.00  0.00    +0.292 HD
ENDBRANCH   5  22
BRANCH   6  24
ATOM     24  O   LIG A   1      -5.631   4.266 124.276  0.00  0.00    -0.503 OA
ATOM     25  H   LIG A   1      -5.100   4.902 124.797  0.00  0.00    +0.292 HD
ENDBRANCH   6  24
TORSDOF 3
ENDMDL
MODEL 5
REMARK VINA RESULT:      -7.3      1.881      3.674
REMARK  Name = NuBBE_2504
REMARK  7 active torsions:
REMARK  status: ('A' for Active; 'I' for Inactive)
REMARK    1  A    between atoms: C_1  and  C_2
REMARK    2  A    between atoms: C_2  and  C_3
REMARK    3  A    between atoms: C_2  and  C_4
REMARK    4  A    between atoms: C_8  and  O_9
REMARK    5  A    between atoms: C_10  and  O_11
REMARK    6  A    between atoms: C_16  and  C_17
REMARK    7  A    between atoms: C_16  and  C_18
REMARK                            x       y       z     vdW  Elec       q    Type
REMARK                         _______ _______ _______ _____ _____    ______ ____
ROOT
ATOM      1  C   LIG A   1     -11.399   7.504 128.643  0.00  0.00    +0.001 A 
ATOM      2  C   LIG A   1     -11.116   7.278 129.997  0.00  0.00    +0.014 A 
ATOM      3  C   LIG A   1     -10.078   6.416 130.362  0.00  0.00    -0.011 A 
ATOM      4  C   LIG A   1      -9.280   5.742 129.398  0.00  0.00    +0.012 A 
ATOM      5  C   LIG A   1      -9.548   5.989 128.060  0.00  0.00    +0.163 A 
ATOM      6  C   LIG A   1     -10.604   6.846 127.697  0.00  0.00    +0.162 A 
ATOM      7  C   LIG A   1      -8.262   4.802 130.086  0.00  0.00    +0.026 C 
ATOM      8  C   LIG A   1      -7.393   3.882 129.208  0.00  0.00    +0.014 C 
ATOM      9  C   LIG A   1      -6.041   4.506 128.878  0.00  0.00    +0.001 C 
ATOM     10  C   LIG A   1      -5.190   4.769 130.126  0.00  0.00    +0.007 C 
ATOM     11  C   LIG A   1      -5.991   5.215 131.387  0.00  0.00    -0.031 C 
ATOM     12  C   LIG A   1      -5.186   6.324 132.103  0.00  0.00    +0.011 C 
ATOM     13  C   LIG A   1      -6.080   4.024 132.364  0.00  0.00    +0.011 C 
ATOM     14  C   LIG A   1      -7.381   5.774 130.953  0.00  0.00    +0.010 C 
ATOM     15  C   LIG A   1      -8.255   6.392 132.078  0.00  0.00    +0.041 C 
ATOM     16  C   LIG A   1      -9.734   6.088 131.800  0.00  0.00    +0.149 C 
ATOM     17  O   LIG A   1      -9.913   4.674 131.975  0.00  0.00    -0.371 OA
ATOM     18  C   LIG A   1      -9.167   3.915 131.005  0.00  0.00    +0.172 C 
ENDROOT
BRANCH   1  20
ATOM     19  C   LIG A   1     -12.840   9.465 129.307  0.00  0.00    +0.012 C 
ATOM     20  C   LIG A   1     -12.531   8.427 128.224  0.00  0.00    +0.017 C 
ATOM     21  C   LIG A   1     -13.789   7.637 127.851  0.00  0.00    +0.012 C 
ENDBRANCH   1  20
BRANCH   5  22
ATOM     22  O   LIG A   1      -8.846   5.464 127.013  0.00  0.00    -0.503 OA
ATOM     23  H   LIG A   1      -8.538   6.208 126.473  0.00  0.00    +0.292 HD
ENDBRANCH   5  22
BRANCH   6  24
ATOM     24  O   LIG A   1     -10.838   7.035 126.357  0.00  0.00    -0.503 OA
ATOM     25  H   LIG A   1     -10.639   6.166 125.953  0.00  0.00    +0.292 HD
ENDBRANCH   6  24
TORSDOF 3
ENDMDL
MODEL 6
REMARK VINA RESULT:      -7.0      1.800      2.218
REMARK  Name = NuBBE_2504
REMARK  7 active torsions:
REMARK  status: ('A' for Active; 'I' for Inactive)
REMARK    1  A    between atoms: C_1  and  C_2
REMARK    2  A    between atoms: C_2  and  C_3
REMARK    3  A    between atoms: C_2  and  C_4
REMARK    4  A    between atoms: C_8  and  O_9
REMARK    5  A    between atoms: C_10  and  O_11
REMARK    6  A    between atoms: C_16  and  C_17
REMARK    7  A    between atoms: C_16  and  C_18
REMARK                            x       y       z     vdW  Elec       q    Type
REMARK                         _______ _______ _______ _____ _____    ______ ____
ROOT
ATOM      1  C   LIG A   1     -10.443   6.849 130.548  0.00  0.00    +0.001 A 
ATOM      2  C   LIG A   1      -9.106   6.890 130.131  0.00  0.00    +0.014 A 
ATOM      3  C   LIG A   1      -8.125   6.201 130.851  0.00  0.00    -0.011 A 
ATOM      4  C   LIG A   1      -8.432   5.446 132.015  0.00  0.00    +0.012 A 
ATOM      5  C   LIG A   1      -9.761   5.389 132.408  0.00  0.00    +0.163 A 
ATOM      6  C   LIG A   1     -10.742   6.096 131.689  0.00  0.00    +0.162 A 
ATOM      7  C   LIG A   1      -7.147   4.857 132.644  0.00  0.00    +0.026 C 
ATOM      8  C   LIG A   1      -7.255   4.115 133.989  0.00  0.00    +0.014 C 
ATOM      9  C   LIG A   1      -7.420   2.609 133.808  0.00  0.00    +0.001 C 
ATOM     10  C   LIG A   1      -6.220   1.964 133.104  0.00  0.00    +0.007 C 
ATOM     11  C   LIG A   1      -5.562   2.837 131.992  0.00  0.00    -0.031 C 
ATOM     12  C   LIG A   1      -5.195   1.914 130.807  0.00  0.00    +0.011 C 
ATOM     13  C   LIG A   1      -4.238   3.414 132.536  0.00  0.00    +0.011 C 
ATOM     14  C   LIG A   1      -6.571   3.925 131.515  0.00  0.00    +0.010 C 
ATOM     15  C   LIG A   1      -6.124   4.797 130.310  0.00  0.00    +0.041 C 
ATOM     16  C   LIG A   1      -6.654   6.227 130.490  0.00  0.00    +0.149 C 
ATOM     17  O   LIG A   1      -5.947   6.802 131.600  0.00  0.00    -0.371 OA
ATOM     18  C   LIG A   1      -6.238   6.117 132.834  0.00  0.00    +0.172 C 
ENDROOT
BRANCH   1  20
ATOM     19  C   LIG A   1     -12.513   6.640 129.121  0.00  0.00    +0.012 C 
ATOM     20  C   LIG A   1     -11.523   7.600 129.787  0.00  0.00    +0.017 C 
ATOM     21  C   LIG A   1     -10.918   8.560 128.758  0.00  0.00    +0.012 C 
ENDBRANCH   1  20
BRANCH   5  22
ATOM     22  O   LIG A   1     -10.231   4.670 133.470  0.00  0.00    -0.503 OA
ATOM     23  H   LIG A   1      -9.524   4.643 134.133  0.00  0.00    +0.292 HD
ENDBRANCH   5  22
BRANCH   6  24
ATOM     24  O   LIG A   1     -12.037   6.022 132.139  0.00  0.00    -0.503 OA
ATOM     25  H   LIG A   1     -12.012   5.337 132.837  0.00  0.00    +0.292 HD
ENDBRANCH   6  24
TORSDOF 3
ENDMDL
MODEL 7
REMARK VINA RESULT:      -6.9      7.013      8.691
REMARK  Name = NuBBE_2504
REMARK  7 active torsions:
REMARK  status: ('A' for Active; 'I' for Inactive)
REMARK    1  A    between atoms: C_1  and  C_2
REMARK    2  A    between atoms: C_2  and  C_3
REMARK    3  A    between atoms: C_2  and  C_4
REMARK    4  A    between atoms: C_8  and  O_9
REMARK    5  A    between atoms: C_10  and  O_11
REMARK    6  A    between atoms: C_16  and  C_17
REMARK    7  A    between atoms: C_16  and  C_18
REMARK                            x       y       z     vdW  Elec       q    Type
REMARK                         _______ _______ _______ _____ _____    ______ ____
ROOT
ATOM      1  C   LIG A   1      -8.543  -1.338 124.936  0.00  0.00    +0.001 A 
ATOM      2  C   LIG A   1      -7.608  -0.526 125.592  0.00  0.00    +0.014 A 
ATOM      3  C   LIG A   1      -7.192  -0.841 126.889  0.00  0.00    -0.011 A 
ATOM      4  C   LIG A   1      -7.689  -1.973 127.588  0.00  0.00    +0.012 A 
ATOM      5  C   LIG A   1      -8.596  -2.787 126.925  0.00  0.00    +0.163 A 
ATOM      6  C   LIG A   1      -9.023  -2.458 125.625  0.00  0.00    +0.162 A 
ATOM      7  C   LIG A   1      -7.113  -2.031 129.023  0.00  0.00    +0.026 C 
ATOM      8  C   LIG A   1      -7.634  -3.113 129.987  0.00  0.00    +0.014 C 
ATOM      9  C   LIG A   1      -6.761  -4.365 129.978  0.00  0.00    +0.001 C 
ATOM     10  C   LIG A   1      -5.327  -4.088 130.443  0.00  0.00    +0.007 C 
ATOM     11  C   LIG A   1      -4.749  -2.706 130.010  0.00  0.00    -0.031 C 
ATOM     12  C   LIG A   1      -3.272  -2.907 129.597  0.00  0.00    +0.011 C 
ATOM     13  C   LIG A   1      -4.748  -1.765 131.234  0.00  0.00    +0.011 C 
ATOM     14  C   LIG A   1      -5.561  -2.155 128.798  0.00  0.00    +0.010 C 
ATOM     15  C   LIG A   1      -5.030  -0.847 128.152  0.00  0.00    +0.041 C 
ATOM     16  C   LIG A   1      -6.216   0.006 127.678  0.00  0.00    +0.149 C 
ATOM     17  O   LIG A   1      -6.899   0.467 128.855  0.00  0.00    -0.371 OA
ATOM     18  C   LIG A   1      -7.473  -0.622 129.603  0.00  0.00    +0.172 C 
ENDROOT
BRANCH   1  20
ATOM     19  C   LIG A   1      -8.231  -1.787 122.473  0.00  0.00    +0.012 C 
ATOM     20  C   LIG A   1      -9.018  -1.008 123.531  0.00  0.00    +0.017 C 
ATOM     21  C   LIG A   1      -8.954   0.498 123.258  0.00  0.00    +0.012 C 
ENDBRANCH   1  20
BRANCH   5  22
ATOM     22  O   LIG A   1      -9.130  -3.937 127.434  0.00  0.00    -0.503 OA
ATOM     23  H   LIG A   1      -9.978  -4.081 126.987  0.00  0.00    +0.292 HD
ENDBRANCH   5  22
BRANCH   6  24
ATOM     24  O   LIG A   1      -9.939  -3.288 125.028  0.00  0.00    -0.503 OA
ATOM     25  H   LIG A   1     -10.326  -2.745 124.311  0.00  0.00    +0.292 HD
ENDBRANCH   6  24
TORSDOF 3
ENDMDL
MODEL 8
REMARK VINA RESULT:      -6.8      3.048      6.501
REMARK  Name = NuBBE_2504
REMARK  7 active torsions:
REMARK  status: ('A' for Active; 'I' for Inactive)
REMARK    1  A    between atoms: C_1  and  C_2
REMARK    2  A    between atoms: C_2  and  C_3
REMARK    3  A    between atoms: C_2  and  C_4
REMARK    4  A    between atoms: C_8  and  O_9
REMARK    5  A    between atoms: C_10  and  O_11
REMARK    6  A    between atoms: C_16  and  C_17
REMARK    7  A    between atoms: C_16  and  C_18
REMARK                            x       y       z     vdW  Elec       q    Type
REMARK                         _______ _______ _______ _____ _____    ______ ____
ROOT
ATOM      1  C   LIG A   1      -7.235  -0.478 129.848  0.00  0.00    +0.001 A 
ATOM      2  C   LIG A   1      -7.687   0.666 129.175  0.00  0.00    +0.014 A 
ATOM      3  C   LIG A   1      -8.162   1.764 129.899  0.00  0.00    -0.011 A 
ATOM      4  C   LIG A   1      -8.210   1.770 131.319  0.00  0.00    +0.012 A 
ATOM      5  C   LIG A   1      -7.738   0.645 131.979  0.00  0.00    +0.163 A 
ATOM      6  C   LIG A   1      -7.274  -0.463 131.247  0.00  0.00    +0.162 A 
ATOM      7  C   LIG A   1      -8.847   3.078 131.843  0.00  0.00    +0.026 C 
ATOM      8  C   LIG A   1      -9.110   3.220 133.354  0.00  0.00    +0.014 C 
ATOM      9  C   LIG A   1      -7.963   3.919 134.077  0.00  0.00    +0.001 C 
ATOM     10  C   LIG A   1      -7.741   5.354 133.585  0.00  0.00    +0.007 C 
ATOM     11  C   LIG A   1      -7.974   5.571 132.059  0.00  0.00    -0.031 C 
ATOM     12  C   LIG A   1      -6.876   6.523 131.532  0.00  0.00    +0.011 C 
ATOM     13  C   LIG A   1      -9.325   6.292 131.863  0.00  0.00    +0.011 C 
ATOM     14  C   LIG A   1      -7.882   4.202 131.316  0.00  0.00    +0.010 C 
ATOM     15  C   LIG A   1      -7.954   4.255 129.766  0.00  0.00    +0.041 C 
ATOM     16  C   LIG A   1      -8.704   3.019 129.247  0.00  0.00    +0.149 C 
ATOM     17  O   LIG A   1     -10.075   3.158 129.652  0.00  0.00    -0.371 OA
ATOM     18  C   LIG A   1     -10.217   3.131 131.085  0.00  0.00    +0.172 C 
ENDROOT
BRANCH   1  20
ATOM     19  C   LIG A   1      -5.881  -1.271 127.872  0.00  0.00    +0.012 C 
ATOM     20  C   LIG A   1      -6.726  -1.686 129.081  0.00  0.00    +0.017 C 
ATOM     21  C   LIG A   1      -7.877  -2.603 128.651  0.00  0.00    +0.012 C 
ENDBRANCH   1  20
BRANCH   5  22
ATOM     22  O   LIG A   1      -7.668   0.509 133.337  0.00  0.00    -0.503 OA
ATOM     23  H   LIG A   1      -7.845   1.381 133.722  0.00  0.00    +0.292 HD
ENDBRANCH   5  22
BRANCH   6  24
ATOM     24  O   LIG A   1      -6.842  -1.558 131.954  0.00  0.00    -0.503 OA
ATOM     25  H   LIG A   1      -7.018  -1.327 132.888  0.00  0.00    +0.292 HD
ENDBRANCH   6  24
TORSDOF 3
ENDMDL
MODEL 9
REMARK VINA RESULT:      -6.7      3.423      5.561
REMARK  Name = NuBBE_2504
REMARK  7 active torsions:
REMARK  status: ('A' for Active; 'I' for Inactive)
REMARK    1  A    between atoms: C_1  and  C_2
REMARK    2  A    between atoms: C_2  and  C_3
REMARK    3  A    between atoms: C_2  and  C_4
REMARK    4  A    between atoms: C_8  and  O_9
REMARK    5  A    between atoms: C_10  and  O_11
REMARK    6  A    between atoms: C_16  and  C_17
REMARK    7  A    between atoms: C_16  and  C_18
REMARK                            x       y       z     vdW  Elec       q    Type
REMARK                         _______ _______ _______ _____ _____    ______ ____
ROOT
ATOM      1  C   LIG A   1      -9.336   3.280 130.610  0.00  0.00    +0.001 A 
ATOM      2  C   LIG A   1      -8.679   3.181 129.376  0.00  0.00    +0.014 A 
ATOM      3  C   LIG A   1      -8.077   1.978 128.995  0.00  0.00    -0.011 A 
ATOM      4  C   LIG A   1      -8.100   0.825 129.826  0.00  0.00    +0.012 A 
ATOM      5  C   LIG A   1      -8.774   0.922 131.035  0.00  0.00    +0.163 A 
ATOM      6  C   LIG A   1      -9.366   2.139 131.420  0.00  0.00    +0.162 A 
ATOM      7  C   LIG A   1      -7.296  -0.331 129.187  0.00  0.00    +0.026 C 
ATOM      8  C   LIG A   1      -7.092  -1.626 129.995  0.00  0.00    +0.014 C 
ATOM      9  C   LIG A   1      -8.152  -2.677 129.681  0.00  0.00    +0.001 C 
ATOM     10  C   LIG A   1      -8.124  -3.125 128.215  0.00  0.00    +0.007 C 
ATOM     11  C   LIG A   1      -7.782  -2.002 127.189  0.00  0.00    -0.031 C 
ATOM     12  C   LIG A   1      -8.692  -2.185 125.952  0.00  0.00    +0.011 C 
ATOM     13  C   LIG A   1      -6.329  -2.197 126.709  0.00  0.00    +0.011 C 
ATOM     14  C   LIG A   1      -8.048  -0.607 127.833  0.00  0.00    +0.010 C 
ATOM     15  C   LIG A   1      -7.889   0.623 126.899  0.00  0.00    +0.041 C 
ATOM     16  C   LIG A   1      -7.315   1.801 127.699  0.00  0.00    +0.149 C 
ATOM     17  O   LIG A   1      -5.961   1.460 128.037  0.00  0.00    -0.371 OA
ATOM     18  C   LIG A   1      -5.898   0.321 128.916  0.00  0.00    +0.172 C 
ENDROOT
BRANCH   1  20
ATOM     19  C   LIG A   1     -11.299   4.834 130.299  0.00  0.00    +0.012 C 
ATOM     20  C   LIG A   1      -9.986   4.582 131.048  0.00  0.00    +0.017 C 
ATOM     21  C   LIG A   1      -9.030   5.768 130.886  0.00  0.00    +0.012 C 
ENDBRANCH   1  20
BRANCH   5  22
ATOM     22  O   LIG A   1      -8.934  -0.103 131.924  0.00  0.00    -0.503 OA
ATOM     23  H   LIG A   1      -9.773  -0.538 131.711  0.00  0.00    +0.292 HD
ENDBRANCH   5  22
BRANCH   6  24
ATOM     24  O   LIG A   1      -9.998   2.182 132.638  0.00  0.00    -0.503 OA
ATOM     25  H   LIG A   1     -10.341   1.275 132.765  0.00  0.00    +0.292 HD
ENDBRANCH   6  24
TORSDOF 3
ENDMDL
