MODEL 1
REMARK VINA RESULT:      -8.5      0.000      0.000
REMARK  Name = NuBBE_1563
REMARK  10 active torsions:
REMARK  status: ('A' for Active; 'I' for Inactive)
REMARK    1  A    between atoms: C_1  and  C_2
REMARK    2  A    between atoms: C_2  and  C_3
REMARK    3  A    between atoms: C_3  and  C_4
REMARK    4  A    between atoms: C_4  and  C_5
REMARK    5  A    between atoms: C_5  and  C_6
REMARK    6  A    between atoms: C_6  and  C_7
REMARK    7  A    between atoms: C_7  and  C_8
REMARK    8  A    between atoms: C_8  and  C_9
REMARK    9  A    between atoms: C_9  and  C_10
REMARK   10  A    between atoms: C_10  and  C_11
REMARK                            x       y       z     vdW  Elec       q    Type
REMARK                         _______ _______ _______ _____ _____    ______ ____
ROOT
ATOM      1  C   LIG A   1      -8.357   2.167 123.875  0.00  0.00    +0.211 C 
ATOM      2  C   LIG A   1      -7.233   2.823 124.623  0.00  0.00    +0.083 A 
ATOM      3  C   LIG A   1      -6.230   3.447 123.978  0.00  0.00    +0.149 A 
ATOM      4  C   LIG A   1      -6.383   3.677 122.549  0.00  0.00    +0.059 A 
ATOM      5  C   LIG A   1      -5.334   4.187 121.770  0.00  0.00    +0.015 A 
ATOM      6  C   LIG A   1      -5.516   4.422 120.409  0.00  0.00    +0.001 A 
ATOM      7  C   LIG A   1      -6.770   4.227 119.834  0.00  0.00    +0.004 A 
ATOM      8  C   LIG A   1      -7.835   3.760 120.611  0.00  0.00    +0.046 A 
ATOM      9  C   LIG A   1      -7.627   3.433 121.953  0.00  0.00    +0.132 A 
ATOM     10  O   LIG A   1      -8.683   2.879 122.642  0.00  0.00    -0.483 OA
ATOM     11  O   LIG A   1      -5.062   3.874 124.559  0.00  0.00    -0.454 OA
ATOM     12  C   LIG A   1      -4.833   3.492 125.850  0.00  0.00    +0.139 A 
ATOM     13  C   LIG A   1      -3.524   3.528 126.320  0.00  0.00    +0.047 A 
ATOM     14  C   LIG A   1      -3.264   3.224 127.656  0.00  0.00    +0.004 A 
ATOM     15  C   LIG A   1      -4.320   2.930 128.526  0.00  0.00    +0.001 A 
ATOM     16  C   LIG A   1      -5.627   2.861 128.047  0.00  0.00    +0.015 A 
ATOM     17  C   LIG A   1      -5.874   3.094 126.694  0.00  0.00    +0.064 A 
ATOM     18  C   LIG A   1      -7.183   2.839 126.090  0.00  0.00    +0.200 A 
ATOM     19  O   LIG A   1      -8.187   2.612 126.790  0.00  0.00    -0.287 OA
ENDROOT
BRANCH   1  20
ATOM     20  C   LIG A   1      -8.032   0.684 123.512  0.00  0.00    +0.050 C 
BRANCH  20  21
ATOM     21  C   LIG A   1      -9.192  -0.313 123.288  0.00  0.00    +0.004 C 
BRANCH  21  22
ATOM     22  C   LIG A   1      -8.826  -1.620 122.560  0.00  0.00    +0.000 C 
BRANCH  22  23
ATOM     23  C   LIG A   1      -9.339  -2.871 123.305  0.00  0.00    -0.000 C 
BRANCH  23  24
ATOM     24  C   LIG A   1      -8.912  -2.923 124.780  0.00  0.00    -0.000 C 
BRANCH  24  25
ATOM     25  C   LIG A   1      -7.523  -3.525 125.077  0.00  0.00    -0.000 C 
BRANCH  25  26
ATOM     26  C   LIG A   1      -6.367  -2.598 125.481  0.00  0.00    -0.000 C 
BRANCH  26  27
ATOM     27  C   LIG A   1      -5.548  -1.956 124.356  0.00  0.00    -0.000 C 
BRANCH  27  29
ATOM     28  C   LIG A   1      -4.282  -4.047 123.620  0.00  0.00    +0.004 C 
ATOM     29  C   LIG A   1      -5.294  -2.976 123.241  0.00  0.00    -0.003 C 
ENDBRANCH  27  29
ENDBRANCH  26  27
ENDBRANCH  25  26
ENDBRANCH  24  25
ENDBRANCH  23  24
ENDBRANCH  22  23
ENDBRANCH  21  22
ENDBRANCH  20  21
ENDBRANCH   1  20
TORSDOF 9
ENDMDL
MODEL 2
REMARK VINA RESULT:      -8.3      0.995      2.088
REMARK  Name = NuBBE_1563
REMARK  10 active torsions:
REMARK  status: ('A' for Active; 'I' for Inactive)
REMARK    1  A    between atoms: C_1  and  C_2
REMARK    2  A    between atoms: C_2  and  C_3
REMARK    3  A    between atoms: C_3  and  C_4
REMARK    4  A    between atoms: C_4  and  C_5
REMARK    5  A    between atoms: C_5  and  C_6
REMARK    6  A    between atoms: C_6  and  C_7
REMARK    7  A    between atoms: C_7  and  C_8
REMARK    8  A    between atoms: C_8  and  C_9
REMARK    9  A    between atoms: C_9  and  C_10
REMARK   10  A    between atoms: C_10  and  C_11
REMARK                            x       y       z     vdW  Elec       q    Type
REMARK                         _______ _______ _______ _____ _____    ______ ____
ROOT
ATOM      1  C   LIG A   1      -8.578   2.485 123.996  0.00  0.00    +0.211 C 
ATOM      2  C   LIG A   1      -7.368   3.071 124.663  0.00  0.00    +0.083 A 
ATOM      3  C   LIG A   1      -6.334   3.549 123.947  0.00  0.00    +0.149 A 
ATOM      4  C   LIG A   1      -6.517   3.702 122.511  0.00  0.00    +0.059 A 
ATOM      5  C   LIG A   1      -5.453   4.055 121.668  0.00  0.00    +0.015 A 
ATOM      6  C   LIG A   1      -5.662   4.220 120.301  0.00  0.00    +0.001 A 
ATOM      7  C   LIG A   1      -6.950   4.115 119.779  0.00  0.00    +0.004 A 
ATOM      8  C   LIG A   1      -8.025   3.807 120.618  0.00  0.00    +0.046 A 
ATOM      9  C   LIG A   1      -7.800   3.546 121.972  0.00  0.00    +0.132 A 
ATOM     10  O   LIG A   1      -8.879   3.145 122.728  0.00  0.00    -0.483 OA
ATOM     11  O   LIG A   1      -5.109   3.893 124.462  0.00  0.00    -0.454 OA
ATOM     12  C   LIG A   1      -4.870   3.573 125.768  0.00  0.00    +0.139 A 
ATOM     13  C   LIG A   1      -3.548   3.507 126.194  0.00  0.00    +0.047 A 
ATOM     14  C   LIG A   1      -3.269   3.264 127.538  0.00  0.00    +0.004 A 
ATOM     15  C   LIG A   1      -4.315   3.133 128.458  0.00  0.00    +0.001 A 
ATOM     16  C   LIG A   1      -5.640   3.165 128.025  0.00  0.00    +0.015 A 
ATOM     17  C   LIG A   1      -5.913   3.336 126.669  0.00  0.00    +0.064 A 
ATOM     18  C   LIG A   1      -7.262   3.175 126.124  0.00  0.00    +0.200 A 
ATOM     19  O   LIG A   1      -8.257   3.094 126.868  0.00  0.00    -0.287 OA
ENDROOT
BRANCH   1  20
ATOM     20  C   LIG A   1      -8.414   0.957 123.723  0.00  0.00    +0.050 C 
BRANCH  20  21
ATOM     21  C   LIG A   1      -7.699   0.072 124.771  0.00  0.00    +0.004 C 
BRANCH  21  22
ATOM     22  C   LIG A   1      -6.377  -0.575 124.316  0.00  0.00    +0.000 C 
BRANCH  22  23
ATOM     23  C   LIG A   1      -6.607  -1.814 123.422  0.00  0.00    -0.000 C 
BRANCH  23  24
ATOM     24  C   LIG A   1      -6.347  -3.145 124.142  0.00  0.00    -0.000 C 
BRANCH  24  25
ATOM     25  C   LIG A   1      -7.585  -3.995 124.494  0.00  0.00    -0.000 C 
BRANCH  25  26
ATOM     26  C   LIG A   1      -8.976  -3.342 124.500  0.00  0.00    -0.000 C 
BRANCH  26  27
ATOM     27  C   LIG A   1      -9.531  -2.870 125.847  0.00  0.00    -0.000 C 
BRANCH  27  29
ATOM     28  C   LIG A   1      -9.051  -4.047 128.060  0.00  0.00    +0.004 C 
ATOM     29  C   LIG A   1      -8.515  -3.143 126.961  0.00  0.00    -0.003 C 
ENDBRANCH  27  29
ENDBRANCH  26  27
ENDBRANCH  25  26
ENDBRANCH  24  25
ENDBRANCH  23  24
ENDBRANCH  22  23
ENDBRANCH  21  22
ENDBRANCH  20  21
ENDBRANCH   1  20
TORSDOF 9
ENDMDL
MODEL 3
REMARK VINA RESULT:      -8.2      6.432      8.192
REMARK  Name = NuBBE_1563
REMARK  10 active torsions:
REMARK  status: ('A' for Active; 'I' for Inactive)
REMARK    1  A    between atoms: C_1  and  C_2
REMARK    2  A    between atoms: C_2  and  C_3
REMARK    3  A    between atoms: C_3  and  C_4
REMARK    4  A    between atoms: C_4  and  C_5
REMARK    5  A    between atoms: C_5  and  C_6
REMARK    6  A    between atoms: C_6  and  C_7
REMARK    7  A    between atoms: C_7  and  C_8
REMARK    8  A    between atoms: C_8  and  C_9
REMARK    9  A    between atoms: C_9  and  C_10
REMARK   10  A    between atoms: C_10  and  C_11
REMARK                            x       y       z     vdW  Elec       q    Type
REMARK                         _______ _______ _______ _____ _____    ______ ____
ROOT
ATOM      1  C   LIG A   1     -10.634   5.032 131.409  0.00  0.00    +0.211 C 
ATOM      2  C   LIG A   1      -9.392   5.874 131.456  0.00  0.00    +0.083 A 
ATOM      3  C   LIG A   1      -9.175   6.856 130.562  0.00  0.00    +0.149 A 
ATOM      4  C   LIG A   1     -10.280   7.239 129.696  0.00  0.00    +0.059 A 
ATOM      5  C   LIG A   1     -10.106   8.148 128.642  0.00  0.00    +0.015 A 
ATOM      6  C   LIG A   1     -11.186   8.518 127.844  0.00  0.00    +0.001 A 
ATOM      7  C   LIG A   1     -12.462   8.046 128.145  0.00  0.00    +0.004 A 
ATOM      8  C   LIG A   1     -12.655   7.174 129.221  0.00  0.00    +0.046 A 
ATOM      9  C   LIG A   1     -11.557   6.728 129.960  0.00  0.00    +0.132 A 
ATOM     10  O   LIG A   1     -11.792   5.789 130.940  0.00  0.00    -0.483 OA
ATOM     11  O   LIG A   1      -7.986   7.519 130.391  0.00  0.00    -0.454 OA
ATOM     12  C   LIG A   1      -6.900   7.035 131.064  0.00  0.00    +0.139 A 
ATOM     13  C   LIG A   1      -5.635   7.388 130.604  0.00  0.00    +0.047 A 
ATOM     14  C   LIG A   1      -4.507   6.981 131.315  0.00  0.00    +0.004 A 
ATOM     15  C   LIG A   1      -4.651   6.260 132.505  0.00  0.00    +0.001 A 
ATOM     16  C   LIG A   1      -5.916   5.878 132.947  0.00  0.00    +0.015 A 
ATOM     17  C   LIG A   1      -7.038   6.225 132.195  0.00  0.00    +0.064 A 
ATOM     18  C   LIG A   1      -8.366   5.686 132.490  0.00  0.00    +0.200 A 
ATOM     19  O   LIG A   1      -8.596   5.069 133.547  0.00  0.00    -0.287 OA
ENDROOT
BRANCH   1  20
ATOM     20  C   LIG A   1     -10.461   3.784 130.488  0.00  0.00    +0.050 C 
BRANCH  20  21
ATOM     21  C   LIG A   1      -9.056   3.164 130.306  0.00  0.00    +0.004 C 
BRANCH  21  22
ATOM     22  C   LIG A   1      -8.322   3.532 129.002  0.00  0.00    +0.000 C 
BRANCH  22  23
ATOM     23  C   LIG A   1      -6.838   3.887 129.245  0.00  0.00    -0.000 C 
BRANCH  23  24
ATOM     24  C   LIG A   1      -6.227   3.169 130.457  0.00  0.00    -0.000 C 
BRANCH  24  25
ATOM     25  C   LIG A   1      -4.687   3.119 130.528  0.00  0.00    -0.000 C 
BRANCH  25  26
ATOM     26  C   LIG A   1      -3.868   3.142 129.228  0.00  0.00    -0.000 C 
BRANCH  26  27
ATOM     27  C   LIG A   1      -3.017   4.386 128.950  0.00  0.00    -0.000 C 
BRANCH  27  29
ATOM     28  C   LIG A   1      -1.998   3.240 126.910  0.00  0.00    +0.004 C 
ATOM     29  C   LIG A   1      -2.692   4.479 127.456  0.00  0.00    -0.003 C 
ENDBRANCH  27  29
ENDBRANCH  26  27
ENDBRANCH  25  26
ENDBRANCH  24  25
ENDBRANCH  23  24
ENDBRANCH  22  23
ENDBRANCH  21  22
ENDBRANCH  20  21
ENDBRANCH   1  20
TORSDOF 9
ENDMDL
MODEL 4
REMARK VINA RESULT:      -8.0      6.579      8.232
REMARK  Name = NuBBE_1563
REMARK  10 active torsions:
REMARK  status: ('A' for Active; 'I' for Inactive)
REMARK    1  A    between atoms: C_1  and  C_2
REMARK    2  A    between atoms: C_2  and  C_3
REMARK    3  A    between atoms: C_3  and  C_4
REMARK    4  A    between atoms: C_4  and  C_5
REMARK    5  A    between atoms: C_5  and  C_6
REMARK    6  A    between atoms: C_6  and  C_7
REMARK    7  A    between atoms: C_7  and  C_8
REMARK    8  A    between atoms: C_8  and  C_9
REMARK    9  A    between atoms: C_9  and  C_10
REMARK   10  A    between atoms: C_10  and  C_11
REMARK                            x       y       z     vdW  Elec       q    Type
REMARK                         _______ _______ _______ _____ _____    ______ ____
ROOT
ATOM      1  C   LIG A   1     -10.822   5.116 131.448  0.00  0.00    +0.211 C 
ATOM      2  C   LIG A   1      -9.552   5.913 131.500  0.00  0.00    +0.083 A 
ATOM      3  C   LIG A   1      -9.296   6.887 130.607  0.00  0.00    +0.149 A 
ATOM      4  C   LIG A   1     -10.383   7.310 129.737  0.00  0.00    +0.059 A 
ATOM      5  C   LIG A   1     -10.173   8.213 128.684  0.00  0.00    +0.015 A 
ATOM      6  C   LIG A   1     -11.236   8.621 127.882  0.00  0.00    +0.001 A 
ATOM      7  C   LIG A   1     -12.530   8.195 128.178  0.00  0.00    +0.004 A 
ATOM      8  C   LIG A   1     -12.757   7.330 129.253  0.00  0.00    +0.046 A 
ATOM      9  C   LIG A   1     -11.678   6.845 129.996  0.00  0.00    +0.132 A 
ATOM     10  O   LIG A   1     -11.950   5.914 130.975  0.00  0.00    -0.483 OA
ATOM     11  O   LIG A   1      -8.083   7.508 130.441  0.00  0.00    -0.454 OA
ATOM     12  C   LIG A   1      -7.018   6.985 131.118  0.00  0.00    +0.139 A 
ATOM     13  C   LIG A   1      -5.740   7.293 130.663  0.00  0.00    +0.047 A 
ATOM     14  C   LIG A   1      -4.629   6.845 131.377  0.00  0.00    +0.004 A 
ATOM     15  C   LIG A   1      -4.803   6.129 132.567  0.00  0.00    +0.001 A 
ATOM     16  C   LIG A   1      -6.083   5.792 133.004  0.00  0.00    +0.015 A 
ATOM     17  C   LIG A   1      -7.189   6.180 132.248  0.00  0.00    +0.064 A 
ATOM     18  C   LIG A   1      -8.537   5.688 132.537  0.00  0.00    +0.200 A 
ATOM     19  O   LIG A   1      -8.793   5.079 133.593  0.00  0.00    -0.287 OA
ENDROOT
BRANCH   1  20
ATOM     20  C   LIG A   1     -10.691   3.863 130.527  0.00  0.00    +0.050 C 
BRANCH  20  21
ATOM     21  C   LIG A   1      -9.604   2.806 130.835  0.00  0.00    +0.004 C 
BRANCH  21  22
ATOM     22  C   LIG A   1      -9.948   1.791 131.941  0.00  0.00    +0.000 C 
BRANCH  22  23
ATOM     23  C   LIG A   1      -9.086   0.512 131.853  0.00  0.00    -0.000 C 
BRANCH  23  24
ATOM     24  C   LIG A   1      -8.229   0.439 130.580  0.00  0.00    -0.000 C 
BRANCH  24  25
ATOM     25  C   LIG A   1      -6.749   0.045 130.764  0.00  0.00    -0.000 C 
BRANCH  25  26
ATOM     26  C   LIG A   1      -5.658   1.120 130.638  0.00  0.00    -0.000 C 
BRANCH  26  27
ATOM     27  C   LIG A   1      -6.022   2.549 131.054  0.00  0.00    -0.000 C 
BRANCH  27  29
ATOM     28  C   LIG A   1      -6.726   3.981 129.062  0.00  0.00    +0.004 C 
ATOM     29  C   LIG A   1      -5.587   3.540 129.970  0.00  0.00    -0.003 C 
ENDBRANCH  27  29
ENDBRANCH  26  27
ENDBRANCH  25  26
ENDBRANCH  24  25
ENDBRANCH  23  24
ENDBRANCH  22  23
ENDBRANCH  21  22
ENDBRANCH  20  21
ENDBRANCH   1  20
TORSDOF 9
ENDMDL
MODEL 5
REMARK VINA RESULT:      -7.9      4.839      8.196
REMARK  Name = NuBBE_1563
REMARK  10 active torsions:
REMARK  status: ('A' for Active; 'I' for Inactive)
REMARK    1  A    between atoms: C_1  and  C_2
REMARK    2  A    between atoms: C_2  and  C_3
REMARK    3  A    between atoms: C_3  and  C_4
REMARK    4  A    between atoms: C_4  and  C_5
REMARK    5  A    between atoms: C_5  and  C_6
REMARK    6  A    between atoms: C_6  and  C_7
REMARK    7  A    between atoms: C_7  and  C_8
REMARK    8  A    between atoms: C_8  and  C_9
REMARK    9  A    between atoms: C_9  and  C_10
REMARK   10  A    between atoms: C_10  and  C_11
REMARK                            x       y       z     vdW  Elec       q    Type
REMARK                         _______ _______ _______ _____ _____    ______ ____
ROOT
ATOM      1  C   LIG A   1      -7.132  -2.820 129.144  0.00  0.00    +0.211 C 
ATOM      2  C   LIG A   1      -7.370  -1.567 129.935  0.00  0.00    +0.083 A 
ATOM      3  C   LIG A   1      -7.354  -1.572 131.280  0.00  0.00    +0.149 A 
ATOM      4  C   LIG A   1      -6.864  -2.770 131.947  0.00  0.00    +0.059 A 
ATOM      5  C   LIG A   1      -6.945  -2.921 133.339  0.00  0.00    +0.015 A 
ATOM      6  C   LIG A   1      -6.445  -4.067 133.954  0.00  0.00    +0.001 A 
ATOM      7  C   LIG A   1      -5.788  -5.031 133.193  0.00  0.00    +0.004 A 
ATOM      8  C   LIG A   1      -5.663  -4.869 131.809  0.00  0.00    +0.046 A 
ATOM      9  C   LIG A   1      -6.249  -3.768 131.181  0.00  0.00    +0.132 A 
ATOM     10  O   LIG A   1      -6.186  -3.715 129.806  0.00  0.00    -0.483 OA
ATOM     11  O   LIG A   1      -7.776  -0.539 132.080  0.00  0.00    -0.454 OA
ATOM     12  C   LIG A   1      -8.410   0.504 131.466  0.00  0.00    +0.139 A 
ATOM     13  C   LIG A   1      -9.210   1.332 132.246  0.00  0.00    +0.047 A 
ATOM     14  C   LIG A   1      -9.806   2.453 131.670  0.00  0.00    +0.004 A 
ATOM     15  C   LIG A   1      -9.563   2.765 130.329  0.00  0.00    +0.001 A 
ATOM     16  C   LIG A   1      -8.789   1.916 129.539  0.00  0.00    +0.015 A 
ATOM     17  C   LIG A   1      -8.254   0.758 130.100  0.00  0.00    +0.064 A 
ATOM     18  C   LIG A   1      -7.609  -0.273 129.284  0.00  0.00    +0.200 A 
ATOM     19  O   LIG A   1      -7.315  -0.066 128.092  0.00  0.00    -0.287 OA
ENDROOT
BRANCH   1  20
ATOM     20  C   LIG A   1      -8.453  -3.610 128.886  0.00  0.00    +0.050 C 
BRANCH  20  21
ATOM     21  C   LIG A   1      -8.936  -3.827 127.432  0.00  0.00    +0.004 C 
BRANCH  21  22
ATOM     22  C   LIG A   1      -8.182  -3.034 126.348  0.00  0.00    +0.000 C 
BRANCH  22  23
ATOM     23  C   LIG A   1      -9.140  -2.345 125.352  0.00  0.00    -0.000 C 
BRANCH  23  24
ATOM     24  C   LIG A   1      -9.404  -3.172 124.085  0.00  0.00    -0.000 C 
BRANCH  24  25
ATOM     25  C   LIG A   1      -8.535  -2.847 122.852  0.00  0.00    -0.000 C 
BRANCH  25  26
ATOM     26  C   LIG A   1      -7.531  -1.686 122.919  0.00  0.00    -0.000 C 
BRANCH  26  27
ATOM     27  C   LIG A   1      -6.059  -2.008 122.643  0.00  0.00    -0.000 C 
BRANCH  27  29
ATOM     28  C   LIG A   1      -4.924  -3.989 123.785  0.00  0.00    +0.004 C 
ATOM     29  C   LIG A   1      -5.390  -2.546 123.912  0.00  0.00    -0.003 C 
ENDBRANCH  27  29
ENDBRANCH  26  27
ENDBRANCH  25  26
ENDBRANCH  24  25
ENDBRANCH  23  24
ENDBRANCH  22  23
ENDBRANCH  21  22
ENDBRANCH  20  21
ENDBRANCH   1  20
TORSDOF 9
ENDMDL
MODEL 6
REMARK VINA RESULT:      -7.6      6.597      8.248
REMARK  Name = NuBBE_1563
REMARK  10 active torsions:
REMARK  status: ('A' for Active; 'I' for Inactive)
REMARK    1  A    between atoms: C_1  and  C_2
REMARK    2  A    between atoms: C_2  and  C_3
REMARK    3  A    between atoms: C_3  and  C_4
REMARK    4  A    between atoms: C_4  and  C_5
REMARK    5  A    between atoms: C_5  and  C_6
REMARK    6  A    between atoms: C_6  and  C_7
REMARK    7  A    between atoms: C_7  and  C_8
REMARK    8  A    between atoms: C_8  and  C_9
REMARK    9  A    between atoms: C_9  and  C_10
REMARK   10  A    between atoms: C_10  and  C_11
REMARK                            x       y       z     vdW  Elec       q    Type
REMARK                         _______ _______ _______ _____ _____    ______ ____
ROOT
ATOM      1  C   LIG A   1     -10.954   5.147 131.433  0.00  0.00    +0.211 C 
ATOM      2  C   LIG A   1      -9.671   5.925 131.482  0.00  0.00    +0.083 A 
ATOM      3  C   LIG A   1      -9.386   6.868 130.565  0.00  0.00    +0.149 A 
ATOM      4  C   LIG A   1     -10.453   7.282 129.666  0.00  0.00    +0.059 A 
ATOM      5  C   LIG A   1     -10.211   8.150 128.590  0.00  0.00    +0.015 A 
ATOM      6  C   LIG A   1     -11.255   8.551 127.759  0.00  0.00    +0.001 A 
ATOM      7  C   LIG A   1     -12.560   8.155 128.047  0.00  0.00    +0.004 A 
ATOM      8  C   LIG A   1     -12.818   7.326 129.143  0.00  0.00    +0.046 A 
ATOM      9  C   LIG A   1     -11.759   6.845 129.917  0.00  0.00    +0.132 A 
ATOM     10  O   LIG A   1     -12.061   5.949 130.918  0.00  0.00    -0.483 OA
ATOM     11  O   LIG A   1      -8.160   7.464 130.399  0.00  0.00    -0.454 OA
ATOM     12  C   LIG A   1      -7.115   6.945 131.109  0.00  0.00    +0.139 A 
ATOM     13  C   LIG A   1      -5.825   7.218 130.665  0.00  0.00    +0.047 A 
ATOM     14  C   LIG A   1      -4.733   6.774 131.410  0.00  0.00    +0.004 A 
ATOM     15  C   LIG A   1      -4.937   6.097 132.617  0.00  0.00    +0.001 A 
ATOM     16  C   LIG A   1      -6.229   5.794 133.043  0.00  0.00    +0.015 A 
ATOM     17  C   LIG A   1      -7.316   6.176 132.259  0.00  0.00    +0.064 A 
ATOM     18  C   LIG A   1      -8.677   5.715 132.541  0.00  0.00    +0.200 A 
ATOM     19  O   LIG A   1      -8.959   5.142 133.610  0.00  0.00    -0.287 OA
ENDROOT
BRANCH   1  20
ATOM     20  C   LIG A   1     -10.829   3.865 130.551  0.00  0.00    +0.050 C 
BRANCH  20  21
ATOM     21  C   LIG A   1      -9.483   3.104 130.506  0.00  0.00    +0.004 C 
BRANCH  21  22
ATOM     22  C   LIG A   1      -8.563   3.434 129.315  0.00  0.00    +0.000 C 
BRANCH  22  23
ATOM     23  C   LIG A   1      -7.252   2.618 129.343  0.00  0.00    -0.000 C 
BRANCH  23  24
ATOM     24  C   LIG A   1      -6.202   3.180 130.313  0.00  0.00    -0.000 C 
BRANCH  24  25
ATOM     25  C   LIG A   1      -6.040   2.443 131.659  0.00  0.00    -0.000 C 
BRANCH  25  26
ATOM     26  C   LIG A   1      -6.329   0.936 131.738  0.00  0.00    -0.000 C 
BRANCH  26  27
ATOM     27  C   LIG A   1      -7.577   0.494 132.510  0.00  0.00    -0.000 C 
BRANCH  27  29
ATOM     28  C   LIG A   1      -7.997  -1.053 130.524  0.00  0.00    +0.004 C 
ATOM     29  C   LIG A   1      -8.606  -0.107 131.548  0.00  0.00    -0.003 C 
ENDBRANCH  27  29
ENDBRANCH  26  27
ENDBRANCH  25  26
ENDBRANCH  24  25
ENDBRANCH  23  24
ENDBRANCH  22  23
ENDBRANCH  21  22
ENDBRANCH  20  21
ENDBRANCH   1  20
TORSDOF 9
ENDMDL
MODEL 7
REMARK VINA RESULT:      -7.5      5.807      9.563
REMARK  Name = NuBBE_1563
REMARK  10 active torsions:
REMARK  status: ('A' for Active; 'I' for Inactive)
REMARK    1  A    between atoms: C_1  and  C_2
REMARK    2  A    between atoms: C_2  and  C_3
REMARK    3  A    between atoms: C_3  and  C_4
REMARK    4  A    between atoms: C_4  and  C_5
REMARK    5  A    between atoms: C_5  and  C_6
REMARK    6  A    between atoms: C_6  and  C_7
REMARK    7  A    between atoms: C_7  and  C_8
REMARK    8  A    between atoms: C_8  and  C_9
REMARK    9  A    between atoms: C_9  and  C_10
REMARK   10  A    between atoms: C_10  and  C_11
REMARK                            x       y       z     vdW  Elec       q    Type
REMARK                         _______ _______ _______ _____ _____    ______ ____
ROOT
ATOM      1  C   LIG A   1      -8.789   5.065 132.186  0.00  0.00    +0.211 C 
ATOM      2  C   LIG A   1      -9.650   5.538 131.051  0.00  0.00    +0.083 A 
ATOM      3  C   LIG A   1      -9.321   5.293 129.770  0.00  0.00    +0.149 A 
ATOM      4  C   LIG A   1      -8.238   4.354 129.517  0.00  0.00    +0.059 A 
ATOM      5  C   LIG A   1      -7.732   4.146 128.226  0.00  0.00    +0.015 A 
ATOM      6  C   LIG A   1      -6.712   3.223 128.007  0.00  0.00    +0.001 A 
ATOM      7  C   LIG A   1      -6.249   2.441 129.064  0.00  0.00    +0.004 A 
ATOM      8  C   LIG A   1      -6.777   2.609 130.347  0.00  0.00    +0.046 A 
ATOM      9  C   LIG A   1      -7.730   3.602 130.584  0.00  0.00    +0.132 A 
ATOM     10  O   LIG A   1      -8.138   3.793 131.886  0.00  0.00    -0.483 OA
ATOM     11  O   LIG A   1      -9.918   5.869 128.676  0.00  0.00    -0.454 OA
ATOM     12  C   LIG A   1     -10.798   6.887 128.912  0.00  0.00    +0.139 A 
ATOM     13  C   LIG A   1     -11.085   7.758 127.866  0.00  0.00    +0.047 A 
ATOM     14  C   LIG A   1     -12.040   8.758 128.045  0.00  0.00    +0.004 A 
ATOM     15  C   LIG A   1     -12.735   8.854 129.256  0.00  0.00    +0.001 A 
ATOM     16  C   LIG A   1     -12.423   8.002 130.314  0.00  0.00    +0.015 A 
ATOM     17  C   LIG A   1     -11.417   7.051 130.154  0.00  0.00    +0.064 A 
ATOM     18  C   LIG A   1     -10.903   6.269 131.281  0.00  0.00    +0.200 A 
ATOM     19  O   LIG A   1     -11.483   6.260 132.383  0.00  0.00    -0.287 OA
ENDROOT
BRANCH   1  20
ATOM     20  C   LIG A   1      -7.684   6.104 132.556  0.00  0.00    +0.050 C 
BRANCH  20  21
ATOM     21  C   LIG A   1      -6.346   5.607 133.150  0.00  0.00    +0.004 C 
BRANCH  21  22
ATOM     22  C   LIG A   1      -5.138   5.622 132.194  0.00  0.00    +0.000 C 
BRANCH  22  23
ATOM     23  C   LIG A   1      -5.311   6.643 131.047  0.00  0.00    -0.000 C 
BRANCH  23  24
ATOM     24  C   LIG A   1      -4.136   7.622 130.917  0.00  0.00    -0.000 C 
BRANCH  24  25
ATOM     25  C   LIG A   1      -3.889   8.225 129.518  0.00  0.00    -0.000 C 
BRANCH  25  26
ATOM     26  C   LIG A   1      -3.253   7.358 128.421  0.00  0.00    -0.000 C 
BRANCH  26  27
ATOM     27  C   LIG A   1      -2.173   6.358 128.846  0.00  0.00    -0.000 C 
BRANCH  27  29
ATOM     28  C   LIG A   1      -3.555   4.787 127.385  0.00  0.00    +0.004 C 
ATOM     29  C   LIG A   1      -2.656   4.925 128.605  0.00  0.00    -0.003 C 
ENDBRANCH  27  29
ENDBRANCH  26  27
ENDBRANCH  25  26
ENDBRANCH  24  25
ENDBRANCH  23  24
ENDBRANCH  22  23
ENDBRANCH  21  22
ENDBRANCH  20  21
ENDBRANCH   1  20
TORSDOF 9
ENDMDL
MODEL 8
REMARK VINA RESULT:      -7.5      5.544      7.531
REMARK  Name = NuBBE_1563
REMARK  10 active torsions:
REMARK  status: ('A' for Active; 'I' for Inactive)
REMARK    1  A    between atoms: C_1  and  C_2
REMARK    2  A    between atoms: C_2  and  C_3
REMARK    3  A    between atoms: C_3  and  C_4
REMARK    4  A    between atoms: C_4  and  C_5
REMARK    5  A    between atoms: C_5  and  C_6
REMARK    6  A    between atoms: C_6  and  C_7
REMARK    7  A    between atoms: C_7  and  C_8
REMARK    8  A    between atoms: C_8  and  C_9
REMARK    9  A    between atoms: C_9  and  C_10
REMARK   10  A    between atoms: C_10  and  C_11
REMARK                            x       y       z     vdW  Elec       q    Type
REMARK                         _______ _______ _______ _____ _____    ______ ____
ROOT
ATOM      1  C   LIG A   1     -10.847   5.093 131.422  0.00  0.00    +0.211 C 
ATOM      2  C   LIG A   1      -9.583   5.901 131.479  0.00  0.00    +0.083 A 
ATOM      3  C   LIG A   1      -9.331   6.874 130.585  0.00  0.00    +0.149 A 
ATOM      4  C   LIG A   1     -10.417   7.285 129.707  0.00  0.00    +0.059 A 
ATOM      5  C   LIG A   1     -10.208   8.187 128.653  0.00  0.00    +0.015 A 
ATOM      6  C   LIG A   1     -11.270   8.583 127.843  0.00  0.00    +0.001 A 
ATOM      7  C   LIG A   1     -12.561   8.147 128.133  0.00  0.00    +0.004 A 
ATOM      8  C   LIG A   1     -12.787   7.283 129.209  0.00  0.00    +0.046 A 
ATOM      9  C   LIG A   1     -11.709   6.809 129.960  0.00  0.00    +0.132 A 
ATOM     10  O   LIG A   1     -11.979   5.880 130.939  0.00  0.00    -0.483 OA
ATOM     11  O   LIG A   1      -8.122   7.505 130.424  0.00  0.00    -0.454 OA
ATOM     12  C   LIG A   1      -7.057   6.994 131.109  0.00  0.00    +0.139 A 
ATOM     13  C   LIG A   1      -5.779   7.311 130.661  0.00  0.00    +0.047 A 
ATOM     14  C   LIG A   1      -4.669   6.875 131.383  0.00  0.00    +0.004 A 
ATOM     15  C   LIG A   1      -4.843   6.161 132.573  0.00  0.00    +0.001 A 
ATOM     16  C   LIG A   1      -6.123   5.815 133.004  0.00  0.00    +0.015 A 
ATOM     17  C   LIG A   1      -7.227   6.191 132.240  0.00  0.00    +0.064 A 
ATOM     18  C   LIG A   1      -8.573   5.688 132.523  0.00  0.00    +0.200 A 
ATOM     19  O   LIG A   1      -8.830   5.080 133.579  0.00  0.00    -0.287 OA
ENDROOT
BRANCH   1  20
ATOM     20  C   LIG A   1     -10.699   3.838 130.505  0.00  0.00    +0.050 C 
BRANCH  20  21
ATOM     21  C   LIG A   1      -9.539   2.847 130.758  0.00  0.00    +0.004 C 
BRANCH  21  22
ATOM     22  C   LIG A   1      -8.839   2.295 129.502  0.00  0.00    +0.000 C 
BRANCH  22  23
ATOM     23  C   LIG A   1      -7.712   1.297 129.848  0.00  0.00    -0.000 C 
BRANCH  23  24
ATOM     24  C   LIG A   1      -7.666   0.078 128.915  0.00  0.00    -0.000 C 
BRANCH  24  25
ATOM     25  C   LIG A   1      -7.993   0.332 127.429  0.00  0.00    -0.000 C 
BRANCH  25  26
ATOM     26  C   LIG A   1      -8.487  -0.829 126.553  0.00  0.00    -0.000 C 
BRANCH  26  27
ATOM     27  C   LIG A   1      -7.685  -2.134 126.590  0.00  0.00    -0.000 C 
BRANCH  27  29
ATOM     28  C   LIG A   1      -8.897  -3.935 127.933  0.00  0.00    +0.004 C 
ATOM     29  C   LIG A   1      -8.634  -3.337 126.559  0.00  0.00    -0.003 C 
ENDBRANCH  27  29
ENDBRANCH  26  27
ENDBRANCH  25  26
ENDBRANCH  24  25
ENDBRANCH  23  24
ENDBRANCH  22  23
ENDBRANCH  21  22
ENDBRANCH  20  21
ENDBRANCH   1  20
TORSDOF 9
ENDMDL
MODEL 9
REMARK VINA RESULT:      -7.5      5.866      8.537
REMARK  Name = NuBBE_1563
REMARK  10 active torsions:
REMARK  status: ('A' for Active; 'I' for Inactive)
REMARK    1  A    between atoms: C_1  and  C_2
REMARK    2  A    between atoms: C_2  and  C_3
REMARK    3  A    between atoms: C_3  and  C_4
REMARK    4  A    between atoms: C_4  and  C_5
REMARK    5  A    between atoms: C_5  and  C_6
REMARK    6  A    between atoms: C_6  and  C_7
REMARK    7  A    between atoms: C_7  and  C_8
REMARK    8  A    between atoms: C_8  and  C_9
REMARK    9  A    between atoms: C_9  and  C_10
REMARK   10  A    between atoms: C_10  and  C_11
REMARK                            x       y       z     vdW  Elec       q    Type
REMARK                         _______ _______ _______ _____ _____    ______ ____
ROOT
ATOM      1  C   LIG A   1      -8.359   4.871 133.045  0.00  0.00    +0.211 C 
ATOM      2  C   LIG A   1      -7.351   5.816 132.460  0.00  0.00    +0.083 A 
ATOM      3  C   LIG A   1      -7.660   6.626 131.431  0.00  0.00    +0.149 A 
ATOM      4  C   LIG A   1      -9.062   6.736 131.055  0.00  0.00    +0.059 A 
ATOM      5  C   LIG A   1      -9.462   7.440 129.909  0.00  0.00    +0.015 A 
ATOM      6  C   LIG A   1     -10.812   7.552 129.586  0.00  0.00    +0.001 A 
ATOM      7  C   LIG A   1     -11.776   7.032 130.448  0.00  0.00    +0.004 A 
ATOM      8  C   LIG A   1     -11.390   6.367 131.615  0.00  0.00    +0.046 A 
ATOM      9  C   LIG A   1     -10.034   6.170 131.889  0.00  0.00    +0.132 A 
ATOM     10  O   LIG A   1      -9.713   5.417 132.996  0.00  0.00    -0.483 OA
ATOM     11  O   LIG A   1      -6.756   7.350 130.695  0.00  0.00    -0.454 OA
ATOM     12  C   LIG A   1      -5.431   7.103 130.919  0.00  0.00    +0.139 A 
ATOM     13  C   LIG A   1      -4.521   7.475 129.935  0.00  0.00    +0.047 A 
ATOM     14  C   LIG A   1      -3.155   7.314 130.165  0.00  0.00    +0.004 A 
ATOM     15  C   LIG A   1      -2.705   6.822 131.394  0.00  0.00    +0.001 A 
ATOM     16  C   LIG A   1      -3.618   6.418 132.367  0.00  0.00    +0.015 A 
ATOM     17  C   LIG A   1      -4.984   6.513 132.105  0.00  0.00    +0.064 A 
ATOM     18  C   LIG A   1      -5.986   5.921 132.993  0.00  0.00    +0.200 A 
ATOM     19  O   LIG A   1      -5.683   5.498 134.124  0.00  0.00    -0.287 OA
ENDROOT
BRANCH   1  20
ATOM     20  C   LIG A   1      -8.363   3.492 132.314  0.00  0.00    +0.050 C 
BRANCH  20  21
ATOM     21  C   LIG A   1      -9.585   3.092 131.455  0.00  0.00    +0.004 C 
BRANCH  21  22
ATOM     22  C   LIG A   1      -9.376   3.130 129.929  0.00  0.00    +0.000 C 
BRANCH  22  23
ATOM     23  C   LIG A   1      -7.918   3.467 129.545  0.00  0.00    -0.000 C 
BRANCH  23  24
ATOM     24  C   LIG A   1      -7.554   3.063 128.109  0.00  0.00    -0.000 C 
BRANCH  24  25
ATOM     25  C   LIG A   1      -6.096   3.311 127.669  0.00  0.00    -0.000 C 
BRANCH  25  26
ATOM     26  C   LIG A   1      -5.210   4.262 128.486  0.00  0.00    -0.000 C 
BRANCH  26  27
ATOM     27  C   LIG A   1      -3.839   3.743 128.933  0.00  0.00    -0.000 C 
BRANCH  27  29
ATOM     28  C   LIG A   1      -2.125   3.225 127.114  0.00  0.00    +0.004 C 
ATOM     29  C   LIG A   1      -2.743   4.287 128.011  0.00  0.00    -0.003 C 
ENDBRANCH  27  29
ENDBRANCH  26  27
ENDBRANCH  25  26
ENDBRANCH  24  25
ENDBRANCH  23  24
ENDBRANCH  22  23
ENDBRANCH  21  22
ENDBRANCH  20  21
ENDBRANCH   1  20
TORSDOF 9
ENDMDL
