MODEL 1
REMARK VINA RESULT:      -7.1      0.000      0.000
REMARK  Name = NuBBE_273
REMARK  11 active torsions:
REMARK  status: ('A' for Active; 'I' for Inactive)
REMARK    1  A    between atoms: O_1  and  C_2
REMARK    2  A    between atoms: C_4  and  C_5
REMARK    3  A    between atoms: C_6  and  C_7
REMARK    4  A    between atoms: C_7  and  O_8
REMARK    5  A    between atoms: O_8  and  C_9
REMARK    6  A    between atoms: C_12  and  C_23
REMARK    7  A    between atoms: C_14  and  O_22
REMARK    8  A    between atoms: C_16  and  O_21
REMARK    9  A    between atoms: C_18  and  O_20
REMARK   10  A    between atoms: C_23  and  O_24
REMARK   11  A    between atoms: C_28  and  O_29
REMARK                            x       y       z     vdW  Elec       q    Type
REMARK                         _______ _______ _______ _____ _____    ______ ____
ROOT
ATOM      1  O   LIG A   1      -7.743   1.193 124.867  0.00  0.00    -0.429 OA
ENDROOT
BRANCH   1   2
ATOM      2  C   LIG A   1      -7.627  -0.198 125.188  0.00  0.00    +0.343 C 
ATOM      3  O   LIG A   1      -6.491  -0.736 124.503  0.00  0.00    -0.331 OA
ATOM      4  C   LIG A   1      -6.298  -2.126 124.765  0.00  0.00    +0.179 C 
ATOM      5  C   LIG A   1      -7.497  -2.933 124.239  0.00  0.00    +0.177 C 
ATOM      6  C   LIG A   1      -8.779  -2.411 124.891  0.00  0.00    +0.180 C 
ATOM      7  C   LIG A   1      -8.918  -0.898 124.724  0.00  0.00    +0.214 C 
BRANCH   7   8
ATOM      8  O   LIG A   1     -10.055  -0.454 125.480  0.00  0.00    -0.383 OA
ATOM      9  H   LIG A   1      -9.916  -0.810 126.381  0.00  0.00    +0.210 HD
ENDBRANCH   7   8
BRANCH   6  10
ATOM     10  O   LIG A   1      -9.925  -3.056 124.313  0.00  0.00    -0.386 OA
ATOM     11  H   LIG A   1      -9.741  -3.081 123.351  0.00  0.00    +0.210 HD
ENDBRANCH   6  10
BRANCH   5  12
ATOM     12  O   LIG A   1      -7.397  -4.330 124.534  0.00  0.00    -0.387 OA
ATOM     13  H   LIG A   1      -7.853  -4.802 123.800  0.00  0.00    +0.210 HD
ENDBRANCH   5  12
BRANCH   4  14
ATOM     14  C   LIG A   1      -4.989  -2.559 124.094  0.00  0.00    +0.190 C 
BRANCH  14  15
ATOM     15  O   LIG A   1      -5.233  -3.108 122.802  0.00  0.00    -0.392 OA
ATOM     16  H   LIG A   1      -5.229  -2.363 122.171  0.00  0.00    +0.209 HD
ENDBRANCH  14  15
ENDBRANCH   4  14
ENDBRANCH   1   2
BRANCH   1  17
ATOM     17  C   LIG A   1      -6.743   1.954 125.362  0.00  0.00    +0.334 C 
ATOM     18  O   LIG A   1      -6.224   1.869 126.464  0.00  0.00    -0.245 OA
BRANCH  17  20
ATOM     19  C   LIG A   1      -6.527   2.624 123.027  0.00  0.00    +0.015 C 
ATOM     20  C   LIG A   1      -6.379   2.937 124.324  0.00  0.00    +0.092 C 
BRANCH  19  23
ATOM     21  C   LIG A   1      -4.862   5.306 120.933  0.00  0.00    +0.159 A 
ATOM     22  C   LIG A   1      -5.141   4.463 122.011  0.00  0.00    +0.057 A 
ATOM     23  C   LIG A   1      -6.178   3.521 121.919  0.00  0.00    -0.021 A 
ATOM     24  C   LIG A   1      -6.942   3.464 120.742  0.00  0.00    +0.012 A 
ATOM     25  C   LIG A   1      -6.660   4.311 119.665  0.00  0.00    +0.050 A 
ATOM     26  C   LIG A   1      -5.618   5.226 119.766  0.00  0.00    +0.158 A 
BRANCH  21  27
ATOM     27  O   LIG A   1      -3.846   6.217 121.019  0.00  0.00    -0.503 OA
ATOM     28  H   LIG A   1      -3.101   5.914 120.478  0.00  0.00    +0.292 HD
ENDBRANCH  21  27
BRANCH  26  29
ATOM     29  O   LIG A   1      -5.327   6.062 118.722  0.00  0.00    -0.503 OA
ATOM     30  H   LIG A   1      -5.305   6.976 119.044  0.00  0.00    +0.292 HD
ENDBRANCH  26  29
ENDBRANCH  19  23
ENDBRANCH  17  20
ENDBRANCH   1  17
TORSDOF 11
ENDMDL
MODEL 2
REMARK VINA RESULT:      -6.8      7.697      9.727
REMARK  Name = NuBBE_273
REMARK  11 active torsions:
REMARK  status: ('A' for Active; 'I' for Inactive)
REMARK    1  A    between atoms: O_1  and  C_2
REMARK    2  A    between atoms: C_4  and  C_5
REMARK    3  A    between atoms: C_6  and  C_7
REMARK    4  A    between atoms: C_7  and  O_8
REMARK    5  A    between atoms: O_8  and  C_9
REMARK    6  A    between atoms: C_12  and  C_23
REMARK    7  A    between atoms: C_14  and  O_22
REMARK    8  A    between atoms: C_16  and  O_21
REMARK    9  A    between atoms: C_18  and  O_20
REMARK   10  A    between atoms: C_23  and  O_24
REMARK   11  A    between atoms: C_28  and  O_29
REMARK                            x       y       z     vdW  Elec       q    Type
REMARK                         _______ _______ _______ _____ _____    ______ ____
ROOT
ATOM      1  O   LIG A   1      -8.469   6.840 131.365  0.00  0.00    -0.429 OA
ENDROOT
BRANCH   1   2
ATOM      2  C   LIG A   1      -9.637   6.447 130.634  0.00  0.00    +0.343 C 
ATOM      3  O   LIG A   1      -9.646   7.131 129.376  0.00  0.00    -0.331 OA
ATOM      4  C   LIG A   1     -10.781   6.798 128.577  0.00  0.00    +0.179 C 
ATOM      5  C   LIG A   1     -12.072   7.247 129.283  0.00  0.00    +0.177 C 
ATOM      6  C   LIG A   1     -12.145   6.593 130.664  0.00  0.00    +0.180 C 
ATOM      7  C   LIG A   1     -10.870   6.839 131.470  0.00  0.00    +0.214 C 
BRANCH   7   8
ATOM      8  O   LIG A   1     -10.940   6.079 132.686  0.00  0.00    -0.383 OA
ATOM      9  H   LIG A   1     -11.100   6.739 133.390  0.00  0.00    +0.210 HD
ENDBRANCH   7   8
BRANCH   6  10
ATOM     10  O   LIG A   1     -13.271   7.105 131.395  0.00  0.00    -0.386 OA
ATOM     11  H   LIG A   1     -12.936   7.909 131.841  0.00  0.00    +0.210 HD
ENDBRANCH   6  10
BRANCH   5  12
ATOM     12  O   LIG A   1     -13.254   6.879 128.564  0.00  0.00    -0.387 OA
ATOM     13  H   LIG A   1     -12.971   6.704 127.638  0.00  0.00    +0.210 HD
ENDBRANCH   5  12
BRANCH   4  14
ATOM     14  C   LIG A   1     -10.619   7.477 127.213  0.00  0.00    +0.190 C 
BRANCH  14  15
ATOM     15  O   LIG A   1     -11.419   6.838 126.223  0.00  0.00    -0.392 OA
ATOM     16  H   LIG A   1     -12.347   6.907 126.518  0.00  0.00    +0.209 HD
ENDBRANCH  14  15
ENDBRANCH   4  14
ENDBRANCH   1   2
BRANCH   1  17
ATOM     17  C   LIG A   1      -7.800   5.808 131.923  0.00  0.00    +0.334 C 
ATOM     18  O   LIG A   1      -7.935   5.361 133.051  0.00  0.00    -0.245 OA
BRANCH  17  20
ATOM     19  C   LIG A   1      -5.651   5.895 130.773  0.00  0.00    +0.015 C 
ATOM     20  C   LIG A   1      -6.847   5.303 130.917  0.00  0.00    +0.092 C 
BRANCH  19  23
ATOM     21  C   LIG A   1      -2.791   5.943 128.288  0.00  0.00    +0.159 A 
ATOM     22  C   LIG A   1      -3.720   6.384 129.233  0.00  0.00    +0.057 A 
ATOM     23  C   LIG A   1      -4.641   5.482 129.791  0.00  0.00    -0.021 A 
ATOM     24  C   LIG A   1      -4.628   4.146 129.361  0.00  0.00    +0.012 A 
ATOM     25  C   LIG A   1      -3.697   3.708 128.413  0.00  0.00    +0.050 A 
ATOM     26  C   LIG A   1      -2.781   4.610 127.884  0.00  0.00    +0.158 A 
BRANCH  21  27
ATOM     27  O   LIG A   1      -1.889   6.819 127.753  0.00  0.00    -0.503 OA
ATOM     28  H   LIG A   1      -2.250   7.716 127.799  0.00  0.00    +0.292 HD
ENDBRANCH  21  27
BRANCH  26  29
ATOM     29  O   LIG A   1      -1.861   4.200 126.957  0.00  0.00    -0.503 OA
ATOM     30  H   LIG A   1      -2.190   3.401 126.517  0.00  0.00    +0.292 HD
ENDBRANCH  26  29
ENDBRANCH  19  23
ENDBRANCH  17  20
ENDBRANCH   1  17
TORSDOF 11
ENDMDL
MODEL 3
REMARK VINA RESULT:      -6.7      9.180     11.157
REMARK  Name = NuBBE_273
REMARK  11 active torsions:
REMARK  status: ('A' for Active; 'I' for Inactive)
REMARK    1  A    between atoms: O_1  and  C_2
REMARK    2  A    between atoms: C_4  and  C_5
REMARK    3  A    between atoms: C_6  and  C_7
REMARK    4  A    between atoms: C_7  and  O_8
REMARK    5  A    between atoms: O_8  and  C_9
REMARK    6  A    between atoms: C_12  and  C_23
REMARK    7  A    between atoms: C_14  and  O_22
REMARK    8  A    between atoms: C_16  and  O_21
REMARK    9  A    between atoms: C_18  and  O_20
REMARK   10  A    between atoms: C_23  and  O_24
REMARK   11  A    between atoms: C_28  and  O_29
REMARK                            x       y       z     vdW  Elec       q    Type
REMARK                         _______ _______ _______ _____ _____    ______ ____
ROOT
ATOM      1  O   LIG A   1      -8.401   6.899 131.212  0.00  0.00    -0.429 OA
ENDROOT
BRANCH   1   2
ATOM      2  C   LIG A   1      -9.589   6.471 130.537  0.00  0.00    +0.343 C 
ATOM      3  O   LIG A   1      -9.695   7.179 129.297  0.00  0.00    -0.331 OA
ATOM      4  C   LIG A   1     -10.858   6.815 128.553  0.00  0.00    +0.179 C 
ATOM      5  C   LIG A   1     -12.126   7.196 129.336  0.00  0.00    +0.177 C 
ATOM      6  C   LIG A   1     -12.096   6.511 130.705  0.00  0.00    +0.180 C 
ATOM      7  C   LIG A   1     -10.790   6.794 131.446  0.00  0.00    +0.214 C 
BRANCH   7   8
ATOM      8  O   LIG A   1     -10.763   6.008 132.647  0.00  0.00    -0.383 OA
ATOM      9  H   LIG A   1     -11.661   5.628 132.723  0.00  0.00    +0.210 HD
ENDBRANCH   7   8
BRANCH   6  10
ATOM     10  O   LIG A   1     -13.200   6.961 131.506  0.00  0.00    -0.386 OA
ATOM     11  H   LIG A   1     -13.973   6.461 131.170  0.00  0.00    +0.210 HD
ENDBRANCH   6  10
BRANCH   5  12
ATOM     12  O   LIG A   1     -13.329   6.792 128.674  0.00  0.00    -0.387 OA
ATOM     13  H   LIG A   1     -13.837   7.616 128.496  0.00  0.00    +0.210 HD
ENDBRANCH   5  12
BRANCH   4  14
ATOM     14  C   LIG A   1     -10.798   7.528 127.197  0.00  0.00    +0.190 C 
BRANCH  14  15
ATOM     15  O   LIG A   1     -11.484   6.782 126.195  0.00  0.00    -0.392 OA
ATOM     16  H   LIG A   1     -11.204   7.142 125.331  0.00  0.00    +0.209 HD
ENDBRANCH  14  15
ENDBRANCH   4  14
ENDBRANCH   1   2
BRANCH   1  17
ATOM     17  C   LIG A   1      -7.611   5.883 131.625  0.00  0.00    +0.334 C 
ATOM     18  O   LIG A   1      -7.937   4.723 131.817  0.00  0.00    -0.245 OA
BRANCH  17  20
ATOM     19  C   LIG A   1      -5.202   5.598 131.870  0.00  0.00    +0.015 C 
ATOM     20  C   LIG A   1      -6.254   6.429 131.819  0.00  0.00    +0.092 C 
BRANCH  19  23
ATOM     21  C   LIG A   1      -2.143   7.746 132.490  0.00  0.00    +0.159 A 
ATOM     22  C   LIG A   1      -3.479   7.378 132.318  0.00  0.00    +0.057 A 
ATOM     23  C   LIG A   1      -3.816   6.037 132.077  0.00  0.00    -0.021 A 
ATOM     24  C   LIG A   1      -2.788   5.085 131.983  0.00  0.00    +0.012 A 
ATOM     25  C   LIG A   1      -1.451   5.457 132.154  0.00  0.00    +0.050 A 
ATOM     26  C   LIG A   1      -1.135   6.787 132.410  0.00  0.00    +0.158 A 
BRANCH  21  27
ATOM     27  O   LIG A   1      -1.815   9.050 132.734  0.00  0.00    -0.503 OA
ATOM     28  H   LIG A   1      -1.194   9.088 133.477  0.00  0.00    +0.292 HD
ENDBRANCH  21  27
BRANCH  26  29
ATOM     29  O   LIG A   1       0.167   7.169 132.581  0.00  0.00    -0.503 OA
ATOM     30  H   LIG A   1       0.721   6.378 132.671  0.00  0.00    +0.292 HD
ENDBRANCH  26  29
ENDBRANCH  19  23
ENDBRANCH  17  20
ENDBRANCH   1  17
TORSDOF 11
ENDMDL
MODEL 4
REMARK VINA RESULT:      -6.7      1.985      3.293
REMARK  Name = NuBBE_273
REMARK  11 active torsions:
REMARK  status: ('A' for Active; 'I' for Inactive)
REMARK    1  A    between atoms: O_1  and  C_2
REMARK    2  A    between atoms: C_4  and  C_5
REMARK    3  A    between atoms: C_6  and  C_7
REMARK    4  A    between atoms: C_7  and  O_8
REMARK    5  A    between atoms: O_8  and  C_9
REMARK    6  A    between atoms: C_12  and  C_23
REMARK    7  A    between atoms: C_14  and  O_22
REMARK    8  A    between atoms: C_16  and  O_21
REMARK    9  A    between atoms: C_18  and  O_20
REMARK   10  A    between atoms: C_23  and  O_24
REMARK   11  A    between atoms: C_28  and  O_29
REMARK                            x       y       z     vdW  Elec       q    Type
REMARK                         _______ _______ _______ _____ _____    ______ ____
ROOT
ATOM      1  O   LIG A   1     -10.087   1.240 124.443  0.00  0.00    -0.429 OA
ENDROOT
BRANCH   1   2
ATOM      2  C   LIG A   1      -9.048   0.477 125.067  0.00  0.00    +0.343 C 
ATOM      3  O   LIG A   1      -9.397  -0.910 125.013  0.00  0.00    -0.331 OA
ATOM      4  C   LIG A   1      -8.412  -1.749 125.616  0.00  0.00    +0.179 C 
ATOM      5  C   LIG A   1      -8.295  -1.429 127.117  0.00  0.00    +0.177 C 
ATOM      6  C   LIG A   1      -7.954   0.053 127.289  0.00  0.00    +0.180 C 
ATOM      7  C   LIG A   1      -8.933   0.947 126.530  0.00  0.00    +0.214 C 
BRANCH   7   8
ATOM      8  O   LIG A   1      -8.473   2.305 126.608  0.00  0.00    -0.383 OA
ATOM      9  H   LIG A   1      -8.285   2.564 125.684  0.00  0.00    +0.210 HD
ENDBRANCH   7   8
BRANCH   6  10
ATOM     10  O   LIG A   1      -7.974   0.406 128.681  0.00  0.00    -0.386 OA
ATOM     11  H   LIG A   1      -8.496   1.233 128.723  0.00  0.00    +0.210 HD
ENDBRANCH   6  10
BRANCH   5  12
ATOM     12  O   LIG A   1      -7.272  -2.190 127.767  0.00  0.00    -0.387 OA
ATOM     13  H   LIG A   1      -6.781  -2.660 127.056  0.00  0.00    +0.210 HD
ENDBRANCH   5  12
BRANCH   4  14
ATOM     14  C   LIG A   1      -8.823  -3.208 125.382  0.00  0.00    +0.190 C 
BRANCH  14  15
ATOM     15  O   LIG A   1      -9.875  -3.297 124.427  0.00  0.00    -0.392 OA
ATOM     16  H   LIG A   1     -10.715  -3.283 124.925  0.00  0.00    +0.209 HD
ENDBRANCH  14  15
ENDBRANCH   4  14
ENDBRANCH   1   2
BRANCH   1  17
ATOM     17  C   LIG A   1      -9.889   1.457 123.124  0.00  0.00    +0.334 C 
ATOM     18  O   LIG A   1     -10.494   0.954 122.192  0.00  0.00    -0.245 OA
BRANCH  17  20
ATOM     19  C   LIG A   1      -8.140   2.554 121.827  0.00  0.00    +0.015 C 
ATOM     20  C   LIG A   1      -8.784   2.426 122.997  0.00  0.00    +0.092 C 
BRANCH  19  23
ATOM     21  C   LIG A   1      -5.655   4.892 120.179  0.00  0.00    +0.159 A 
ATOM     22  C   LIG A   1      -6.747   4.038 120.345  0.00  0.00    +0.057 A 
ATOM     23  C   LIG A   1      -7.017   3.473 121.601  0.00  0.00    -0.021 A 
ATOM     24  C   LIG A   1      -6.157   3.759 122.673  0.00  0.00    +0.012 A 
ATOM     25  C   LIG A   1      -5.063   4.615 122.504  0.00  0.00    +0.050 A 
ATOM     26  C   LIG A   1      -4.820   5.179 121.257  0.00  0.00    +0.158 A 
BRANCH  21  27
ATOM     27  O   LIG A   1      -5.397   5.449 118.958  0.00  0.00    -0.503 OA
ATOM     28  H   LIG A   1      -4.973   4.789 118.390  0.00  0.00    +0.292 HD
ENDBRANCH  21  27
BRANCH  26  29
ATOM     29  O   LIG A   1      -3.755   6.019 121.073  0.00  0.00    -0.503 OA
ATOM     30  H   LIG A   1      -3.900   6.543 120.270  0.00  0.00    +0.292 HD
ENDBRANCH  26  29
ENDBRANCH  19  23
ENDBRANCH  17  20
ENDBRANCH   1  17
TORSDOF 11
ENDMDL
MODEL 5
REMARK VINA RESULT:      -6.5      5.627      8.044
REMARK  Name = NuBBE_273
REMARK  11 active torsions:
REMARK  status: ('A' for Active; 'I' for Inactive)
REMARK    1  A    between atoms: O_1  and  C_2
REMARK    2  A    between atoms: C_4  and  C_5
REMARK    3  A    between atoms: C_6  and  C_7
REMARK    4  A    between atoms: C_7  and  O_8
REMARK    5  A    between atoms: O_8  and  C_9
REMARK    6  A    between atoms: C_12  and  C_23
REMARK    7  A    between atoms: C_14  and  O_22
REMARK    8  A    between atoms: C_16  and  O_21
REMARK    9  A    between atoms: C_18  and  O_20
REMARK   10  A    between atoms: C_23  and  O_24
REMARK   11  A    between atoms: C_28  and  O_29
REMARK                            x       y       z     vdW  Elec       q    Type
REMARK                         _______ _______ _______ _____ _____    ______ ____
ROOT
ATOM      1  O   LIG A   1      -8.064   5.013 128.872  0.00  0.00    -0.429 OA
ENDROOT
BRANCH   1   2
ATOM      2  C   LIG A   1      -9.241   4.966 129.687  0.00  0.00    +0.343 C 
ATOM      3  O   LIG A   1     -10.256   5.772 129.079  0.00  0.00    -0.331 OA
ATOM      4  C   LIG A   1     -11.471   5.784 129.828  0.00  0.00    +0.179 C 
ATOM      5  C   LIG A   1     -11.233   6.421 131.208  0.00  0.00    +0.177 C 
ATOM      6  C   LIG A   1     -10.131   5.647 131.936  0.00  0.00    +0.180 C 
ATOM      7  C   LIG A   1      -8.874   5.519 131.077  0.00  0.00    +0.214 C 
BRANCH   7   8
ATOM      8  O   LIG A   1      -7.941   4.662 131.752  0.00  0.00    -0.383 OA
ATOM      9  H   LIG A   1      -7.965   3.819 131.255  0.00  0.00    +0.210 HD
ENDBRANCH   7   8
BRANCH   6  10
ATOM     10  O   LIG A   1      -9.797   6.306 133.168  0.00  0.00    -0.386 OA
ATOM     11  H   LIG A   1      -9.770   7.259 132.944  0.00  0.00    +0.210 HD
ENDBRANCH   6  10
BRANCH   5  12
ATOM     12  O   LIG A   1     -12.400   6.400 132.037  0.00  0.00    -0.387 OA
ATOM     13  H   LIG A   1     -12.275   7.107 132.710  0.00  0.00    +0.210 HD
ENDBRANCH   5  12
BRANCH   4  14
ATOM     14  C   LIG A   1     -12.519   6.561 129.022  0.00  0.00    +0.190 C 
BRANCH  14  15
ATOM     15  O   LIG A   1     -12.884   7.768 129.685  0.00  0.00    -0.392 OA
ATOM     16  H   LIG A   1     -12.249   7.894 130.417  0.00  0.00    +0.209 HD
ENDBRANCH  14  15
ENDBRANCH   4  14
ENDBRANCH   1   2
BRANCH   1  17
ATOM     17  C   LIG A   1      -7.608   3.797 128.498  0.00  0.00    +0.334 C 
ATOM     18  O   LIG A   1      -7.208   2.901 129.224  0.00  0.00    -0.245 OA
BRANCH  17  20
ATOM     19  C   LIG A   1      -6.536   3.692 126.311  0.00  0.00    +0.015 C 
ATOM     20  C   LIG A   1      -7.671   3.736 127.026  0.00  0.00    +0.092 C 
BRANCH  19  23
ATOM     21  C   LIG A   1      -5.559   4.314 122.703  0.00  0.00    +0.159 A 
ATOM     22  C   LIG A   1      -5.549   4.377 124.098  0.00  0.00    +0.057 A 
ATOM     23  C   LIG A   1      -6.489   3.648 124.844  0.00  0.00    -0.021 A 
ATOM     24  C   LIG A   1      -7.450   2.884 124.163  0.00  0.00    +0.012 A 
ATOM     25  C   LIG A   1      -7.458   2.824 122.766  0.00  0.00    +0.050 A 
ATOM     26  C   LIG A   1      -6.509   3.539 122.043  0.00  0.00    +0.158 A 
BRANCH  21  27
ATOM     27  O   LIG A   1      -4.638   5.017 121.978  0.00  0.00    -0.503 OA
ATOM     28  H   LIG A   1      -3.748   4.715 122.215  0.00  0.00    +0.292 HD
ENDBRANCH  21  27
BRANCH  26  29
ATOM     29  O   LIG A   1      -6.500   3.491 120.675  0.00  0.00    -0.503 OA
ATOM     30  H   LIG A   1      -5.621   3.217 120.373  0.00  0.00    +0.292 HD
ENDBRANCH  26  29
ENDBRANCH  19  23
ENDBRANCH  17  20
ENDBRANCH   1  17
TORSDOF 11
ENDMDL
MODEL 6
REMARK VINA RESULT:      -6.4      6.692      9.894
REMARK  Name = NuBBE_273
REMARK  11 active torsions:
REMARK  status: ('A' for Active; 'I' for Inactive)
REMARK    1  A    between atoms: O_1  and  C_2
REMARK    2  A    between atoms: C_4  and  C_5
REMARK    3  A    between atoms: C_6  and  C_7
REMARK    4  A    between atoms: C_7  and  O_8
REMARK    5  A    between atoms: O_8  and  C_9
REMARK    6  A    between atoms: C_12  and  C_23
REMARK    7  A    between atoms: C_14  and  O_22
REMARK    8  A    between atoms: C_16  and  O_21
REMARK    9  A    between atoms: C_18  and  O_20
REMARK   10  A    between atoms: C_23  and  O_24
REMARK   11  A    between atoms: C_28  and  O_29
REMARK                            x       y       z     vdW  Elec       q    Type
REMARK                         _______ _______ _______ _____ _____    ______ ____
ROOT
ATOM      1  O   LIG A   1      -3.400   5.651 130.607  0.00  0.00    -0.429 OA
ENDROOT
BRANCH   1   2
ATOM      2  C   LIG A   1      -3.745   4.953 129.405  0.00  0.00    +0.343 C 
ATOM      3  O   LIG A   1      -4.170   3.629 129.747  0.00  0.00    -0.331 OA
ATOM      4  C   LIG A   1      -4.534   2.856 128.603  0.00  0.00    +0.179 C 
ATOM      5  C   LIG A   1      -3.312   2.657 127.690  0.00  0.00    +0.177 C 
ATOM      6  C   LIG A   1      -2.755   4.025 127.291  0.00  0.00    +0.180 C 
ATOM      7  C   LIG A   1      -2.490   4.902 128.513  0.00  0.00    +0.214 C 
BRANCH   7   8
ATOM      8  O   LIG A   1      -2.114   6.214 128.065  0.00  0.00    -0.383 OA
ATOM      9  H   LIG A   1      -2.745   6.430 127.350  0.00  0.00    +0.210 HD
ENDBRANCH   7   8
BRANCH   6  10
ATOM     10  O   LIG A   1      -1.533   3.864 126.552  0.00  0.00    -0.386 OA
ATOM     11  H   LIG A   1      -1.099   4.740 126.591  0.00  0.00    +0.210 HD
ENDBRANCH   6  10
BRANCH   5  12
ATOM     12  O   LIG A   1      -3.628   1.947 126.488  0.00  0.00    -0.387 OA
ATOM     13  H   LIG A   1      -3.912   2.624 125.833  0.00  0.00    +0.210 HD
ENDBRANCH   5  12
BRANCH   4  14
ATOM     14  C   LIG A   1      -5.095   1.516 129.094  0.00  0.00    +0.190 C 
BRANCH  14  15
ATOM     15  O   LIG A   1      -4.481   1.121 130.317  0.00  0.00    -0.392 OA
ATOM     16  H   LIG A   1      -4.168   0.204 130.195  0.00  0.00    +0.209 HD
ENDBRANCH  14  15
ENDBRANCH   4  14
ENDBRANCH   1   2
BRANCH   1  17
ATOM     17  C   LIG A   1      -4.144   6.757 130.830  0.00  0.00    +0.334 C 
ATOM     18  O   LIG A   1      -3.777   7.919 130.781  0.00  0.00    -0.245 OA
BRANCH  17  20
ATOM     19  C   LIG A   1      -6.553   7.123 130.931  0.00  0.00    +0.015 C 
ATOM     20  C   LIG A   1      -5.511   6.310 131.161  0.00  0.00    +0.092 C 
BRANCH  19  23
ATOM     21  C   LIG A   1      -9.640   5.654 132.564  0.00  0.00    +0.159 A 
ATOM     22  C   LIG A   1      -8.299   5.964 132.325  0.00  0.00    +0.057 A 
ATOM     23  C   LIG A   1      -7.947   6.782 131.240  0.00  0.00    -0.021 A 
ATOM     24  C   LIG A   1      -8.959   7.257 130.391  0.00  0.00    +0.012 A 
ATOM     25  C   LIG A   1     -10.301   6.945 130.633  0.00  0.00    +0.050 A 
ATOM     26  C   LIG A   1     -10.634   6.146 131.721  0.00  0.00    +0.158 A 
BRANCH  21  27
ATOM     27  O   LIG A   1      -9.984   4.865 133.625  0.00  0.00    -0.503 OA
ATOM     28  H   LIG A   1     -10.946   4.879 133.734  0.00  0.00    +0.292 HD
ENDBRANCH  21  27
BRANCH  26  29
ATOM     29  O   LIG A   1     -11.942   5.831 131.975  0.00  0.00    -0.503 OA
ATOM     30  H   LIG A   1     -12.505   6.251 131.306  0.00  0.00    +0.292 HD
ENDBRANCH  26  29
ENDBRANCH  19  23
ENDBRANCH  17  20
ENDBRANCH   1  17
TORSDOF 11
ENDMDL
MODEL 7
REMARK VINA RESULT:      -6.4      5.730      8.928
REMARK  Name = NuBBE_273
REMARK  11 active torsions:
REMARK  status: ('A' for Active; 'I' for Inactive)
REMARK    1  A    between atoms: O_1  and  C_2
REMARK    2  A    between atoms: C_4  and  C_5
REMARK    3  A    between atoms: C_6  and  C_7
REMARK    4  A    between atoms: C_7  and  O_8
REMARK    5  A    between atoms: O_8  and  C_9
REMARK    6  A    between atoms: C_12  and  C_23
REMARK    7  A    between atoms: C_14  and  O_22
REMARK    8  A    between atoms: C_16  and  O_21
REMARK    9  A    between atoms: C_18  and  O_20
REMARK   10  A    between atoms: C_23  and  O_24
REMARK   11  A    between atoms: C_28  and  O_29
REMARK                            x       y       z     vdW  Elec       q    Type
REMARK                         _______ _______ _______ _____ _____    ______ ____
ROOT
ATOM      1  O   LIG A   1      -7.950   5.078 129.037  0.00  0.00    -0.429 OA
ENDROOT
BRANCH   1   2
ATOM      2  C   LIG A   1      -9.132   5.001 129.842  0.00  0.00    +0.343 C 
ATOM      3  O   LIG A   1     -10.180   5.732 129.195  0.00  0.00    -0.331 OA
ATOM      4  C   LIG A   1     -11.402   5.709 129.931  0.00  0.00    +0.179 C 
ATOM      5  C   LIG A   1     -11.213   6.408 131.289  0.00  0.00    +0.177 C 
ATOM      6  C   LIG A   1     -10.081   5.718 132.055  0.00  0.00    +0.180 C 
ATOM      7  C   LIG A   1      -8.810   5.624 131.214  0.00  0.00    +0.214 C 
BRANCH   7   8
ATOM      8  O   LIG A   1      -7.842   4.840 131.928  0.00  0.00    -0.383 OA
ATOM      9  H   LIG A   1      -7.669   4.065 131.357  0.00  0.00    +0.210 HD
ENDBRANCH   7   8
BRANCH   6  10
ATOM     10  O   LIG A   1      -9.795   6.438 133.265  0.00  0.00    -0.386 OA
ATOM     11  H   LIG A   1     -10.612   6.942 133.456  0.00  0.00    +0.210 HD
ENDBRANCH   6  10
BRANCH   5  12
ATOM     12  O   LIG A   1     -12.386   6.358 132.106  0.00  0.00    -0.387 OA
ATOM     13  H   LIG A   1     -12.316   5.535 132.642  0.00  0.00    +0.210 HD
ENDBRANCH   5  12
BRANCH   4  14
ATOM     14  C   LIG A   1     -12.479   6.401 129.087  0.00  0.00    +0.190 C 
BRANCH  14  15
ATOM     15  O   LIG A   1     -12.729   7.722 129.558  0.00  0.00    -0.392 OA
ATOM     16  H   LIG A   1     -13.697   7.848 129.554  0.00  0.00    +0.209 HD
ENDBRANCH  14  15
ENDBRANCH   4  14
ENDBRANCH   1   2
BRANCH   1  17
ATOM     17  C   LIG A   1      -7.253   3.923 128.976  0.00  0.00    +0.334 C 
ATOM     18  O   LIG A   1      -6.221   3.648 129.568  0.00  0.00    -0.245 OA
BRANCH  17  20
ATOM     19  C   LIG A   1      -7.726   3.111 126.726  0.00  0.00    +0.015 C 
ATOM     20  C   LIG A   1      -7.963   3.026 128.044  0.00  0.00    +0.092 C 
BRANCH  19  23
ATOM     21  C   LIG A   1      -9.317   0.176 124.934  0.00  0.00    +0.159 A 
ATOM     22  C   LIG A   1      -8.700   0.928 125.936  0.00  0.00    +0.057 A 
ATOM     23  C   LIG A   1      -8.392   2.279 125.715  0.00  0.00    -0.021 A 
ATOM     24  C   LIG A   1      -8.689   2.848 124.467  0.00  0.00    +0.012 A 
ATOM     25  C   LIG A   1      -9.306   2.093 123.465  0.00  0.00    +0.050 A 
ATOM     26  C   LIG A   1      -9.620   0.759 123.705  0.00  0.00    +0.158 A 
BRANCH  21  27
ATOM     27  O   LIG A   1      -9.625  -1.138 125.152  0.00  0.00    -0.503 OA
ATOM     28  H   LIG A   1     -10.277  -1.425 124.495  0.00  0.00    +0.292 HD
ENDBRANCH  21  27
BRANCH  26  29
ATOM     29  O   LIG A   1     -10.225   0.005 122.738  0.00  0.00    -0.503 OA
ATOM     30  H   LIG A   1     -10.790   0.577 122.196  0.00  0.00    +0.292 HD
ENDBRANCH  26  29
ENDBRANCH  19  23
ENDBRANCH  17  20
ENDBRANCH   1  17
TORSDOF 11
ENDMDL
MODEL 8
REMARK VINA RESULT:      -6.3      5.237      8.996
REMARK  Name = NuBBE_273
REMARK  11 active torsions:
REMARK  status: ('A' for Active; 'I' for Inactive)
REMARK    1  A    between atoms: O_1  and  C_2
REMARK    2  A    between atoms: C_4  and  C_5
REMARK    3  A    between atoms: C_6  and  C_7
REMARK    4  A    between atoms: C_7  and  O_8
REMARK    5  A    between atoms: O_8  and  C_9
REMARK    6  A    between atoms: C_12  and  C_23
REMARK    7  A    between atoms: C_14  and  O_22
REMARK    8  A    between atoms: C_16  and  O_21
REMARK    9  A    between atoms: C_18  and  O_20
REMARK   10  A    between atoms: C_23  and  O_24
REMARK   11  A    between atoms: C_28  and  O_29
REMARK                            x       y       z     vdW  Elec       q    Type
REMARK                         _______ _______ _______ _____ _____    ______ ____
ROOT
ATOM      1  O   LIG A   1      -8.846   3.438 128.637  0.00  0.00    -0.429 OA
ENDROOT
BRANCH   1   2
ATOM      2  C   LIG A   1      -8.738   4.361 129.727  0.00  0.00    +0.343 C 
ATOM      3  O   LIG A   1      -8.903   3.645 130.956  0.00  0.00    -0.331 OA
ATOM      4  C   LIG A   1      -8.810   4.491 132.103  0.00  0.00    +0.179 C 
ATOM      5  C   LIG A   1      -9.950   5.524 132.089  0.00  0.00    +0.177 C 
ATOM      6  C   LIG A   1      -9.883   6.329 130.789  0.00  0.00    +0.180 C 
ATOM      7  C   LIG A   1      -9.848   5.416 129.564  0.00  0.00    +0.214 C 
BRANCH   7   8
ATOM      8  O   LIG A   1      -9.636   6.221 128.395  0.00  0.00    -0.383 OA
ATOM      9  H   LIG A   1      -8.683   6.134 128.195  0.00  0.00    +0.210 HD
ENDBRANCH   7   8
BRANCH   6  10
ATOM     10  O   LIG A   1     -11.018   7.205 130.692  0.00  0.00    -0.386 OA
ATOM     11  H   LIG A   1     -11.008   7.527 129.768  0.00  0.00    +0.210 HD
ENDBRANCH   6  10
BRANCH   5  12
ATOM     12  O   LIG A   1      -9.872   6.450 133.178  0.00  0.00    -0.387 OA
ATOM     13  H   LIG A   1      -9.079   6.195 133.702  0.00  0.00    +0.210 HD
ENDBRANCH   5  12
BRANCH   4  14
ATOM     14  C   LIG A   1      -8.867   3.606 133.353  0.00  0.00    +0.190 C 
BRANCH  14  15
ATOM     15  O   LIG A   1     -10.077   3.816 134.075  0.00  0.00    -0.392 OA
ATOM     16  H   LIG A   1     -10.690   3.101 133.816  0.00  0.00    +0.209 HD
ENDBRANCH  14  15
ENDBRANCH   4  14
ENDBRANCH   1   2
BRANCH   1  17
ATOM     17  C   LIG A   1      -7.809   3.487 127.773  0.00  0.00    +0.334 C 
ATOM     18  O   LIG A   1      -7.172   4.472 127.436  0.00  0.00    -0.245 OA
BRANCH  17  20
ATOM     19  C   LIG A   1      -8.291   1.637 126.260  0.00  0.00    +0.015 C 
ATOM     20  C   LIG A   1      -7.573   2.114 127.287  0.00  0.00    +0.092 C 
BRANCH  19  23
ATOM     21  C   LIG A   1      -8.972  -1.960 125.282  0.00  0.00    +0.159 A 
ATOM     22  C   LIG A   1      -9.167  -0.678 125.802  0.00  0.00    +0.057 A 
ATOM     23  C   LIG A   1      -8.147   0.282 125.713  0.00  0.00    -0.021 A 
ATOM     24  C   LIG A   1      -6.925  -0.078 125.123  0.00  0.00    +0.012 A 
ATOM     25  C   LIG A   1      -6.732  -1.363 124.604  0.00  0.00    +0.050 A 
ATOM     26  C   LIG A   1      -7.760  -2.297 124.685  0.00  0.00    +0.158 A 
BRANCH  21  27
ATOM     27  O   LIG A   1      -9.969  -2.892 125.360  0.00  0.00    -0.503 OA
ATOM     28  H   LIG A   1     -10.825  -2.440 125.388  0.00  0.00    +0.292 HD
ENDBRANCH  21  27
BRANCH  26  29
ATOM     29  O   LIG A   1      -7.590  -3.558 124.181  0.00  0.00    -0.503 OA
ATOM     30  H   LIG A   1      -8.302  -3.746 123.551  0.00  0.00    +0.292 HD
ENDBRANCH  26  29
ENDBRANCH  19  23
ENDBRANCH  17  20
ENDBRANCH   1  17
TORSDOF 11
ENDMDL
MODEL 9
REMARK VINA RESULT:      -6.2      5.733      9.267
REMARK  Name = NuBBE_273
REMARK  11 active torsions:
REMARK  status: ('A' for Active; 'I' for Inactive)
REMARK    1  A    between atoms: O_1  and  C_2
REMARK    2  A    between atoms: C_4  and  C_5
REMARK    3  A    between atoms: C_6  and  C_7
REMARK    4  A    between atoms: C_7  and  O_8
REMARK    5  A    between atoms: O_8  and  C_9
REMARK    6  A    between atoms: C_12  and  C_23
REMARK    7  A    between atoms: C_14  and  O_22
REMARK    8  A    between atoms: C_16  and  O_21
REMARK    9  A    between atoms: C_18  and  O_20
REMARK   10  A    between atoms: C_23  and  O_24
REMARK   11  A    between atoms: C_28  and  O_29
REMARK                            x       y       z     vdW  Elec       q    Type
REMARK                         _______ _______ _______ _____ _____    ______ ____
ROOT
ATOM      1  O   LIG A   1      -7.905   4.791 130.190  0.00  0.00    -0.429 OA
ENDROOT
BRANCH   1   2
ATOM      2  C   LIG A   1      -9.242   5.206 129.885  0.00  0.00    +0.343 C 
ATOM      3  O   LIG A   1      -9.198   6.513 129.304  0.00  0.00    -0.331 OA
ATOM      4  C   LIG A   1     -10.494   7.010 128.968  0.00  0.00    +0.179 C 
ATOM      5  C   LIG A   1     -11.343   7.170 130.241  0.00  0.00    +0.177 C 
ATOM      6  C   LIG A   1     -11.426   5.823 130.962  0.00  0.00    +0.180 C 
ATOM      7  C   LIG A   1     -10.040   5.228 131.203  0.00  0.00    +0.214 C 
BRANCH   7   8
ATOM      8  O   LIG A   1     -10.194   3.906 131.743  0.00  0.00    -0.383 OA
ATOM      9  H   LIG A   1      -9.321   3.480 131.623  0.00  0.00    +0.210 HD
ENDBRANCH   7   8
BRANCH   6  10
ATOM     10  O   LIG A   1     -12.099   5.979 132.222  0.00  0.00    -0.386 OA
ATOM     11  H   LIG A   1     -11.877   6.887 132.514  0.00  0.00    +0.210 HD
ENDBRANCH   6  10
BRANCH   5  12
ATOM     12  O   LIG A   1     -12.680   7.599 129.964  0.00  0.00    -0.387 OA
ATOM     13  H   LIG A   1     -13.256   6.811 130.088  0.00  0.00    +0.210 HD
ENDBRANCH   5  12
BRANCH   4  14
ATOM     14  C   LIG A   1     -10.316   8.346 128.237  0.00  0.00    +0.190 C 
BRANCH  14  15
ATOM     15  O   LIG A   1     -11.575   8.894 127.857  0.00  0.00    -0.392 OA
ATOM     16  H   LIG A   1     -12.082   9.038 128.679  0.00  0.00    +0.209 HD
ENDBRANCH  14  15
ENDBRANCH   4  14
ENDBRANCH   1   2
BRANCH   1  17
ATOM     17  C   LIG A   1      -7.177   4.454 129.103  0.00  0.00    +0.334 C 
ATOM     18  O   LIG A   1      -6.284   5.101 128.580  0.00  0.00    -0.245 OA
BRANCH  17  20
ATOM     19  C   LIG A   1      -7.663   2.856 127.326  0.00  0.00    +0.015 C 
ATOM     20  C   LIG A   1      -7.658   3.139 128.638  0.00  0.00    +0.092 C 
BRANCH  19  23
ATOM     21  C   LIG A   1      -9.366   0.298 125.109  0.00  0.00    +0.159 A 
ATOM     22  C   LIG A   1      -8.923   1.530 125.597  0.00  0.00    +0.057 A 
ATOM     23  C   LIG A   1      -8.139   1.588 126.759  0.00  0.00    -0.021 A 
ATOM     24  C   LIG A   1      -7.834   0.395 127.433  0.00  0.00    +0.012 A 
ATOM     25  C   LIG A   1      -8.280  -0.838 126.943  0.00  0.00    +0.050 A 
ATOM     26  C   LIG A   1      -9.042  -0.879 125.781  0.00  0.00    +0.158 A 
BRANCH  21  27
ATOM     27  O   LIG A   1     -10.122   0.241 123.972  0.00  0.00    -0.503 OA
ATOM     28  H   LIG A   1      -9.621  -0.216 123.280  0.00  0.00    +0.292 HD
ENDBRANCH  21  27
BRANCH  26  29
ATOM     29  O   LIG A   1      -9.485  -2.075 125.285  0.00  0.00    -0.503 OA
ATOM     30  H   LIG A   1      -8.842  -2.767 125.505  0.00  0.00    +0.292 HD
ENDBRANCH  26  29
ENDBRANCH  19  23
ENDBRANCH  17  20
ENDBRANCH   1  17
TORSDOF 11
ENDMDL
