MODEL 1
REMARK VINA RESULT:      -6.6      0.000      0.000
REMARK  Name = NuBBE_1482
REMARK  13 active torsions:
REMARK  status: ('A' for Active; 'I' for Inactive)
REMARK    1  A    between atoms: C_3  and  C_4
REMARK    2  A    between atoms: C_4  and  C_5
REMARK    3  A    between atoms: C_7  and  O_8
REMARK    4  A    between atoms: O_8  and  C_9
REMARK    5  A    between atoms: C_10  and  O_11
REMARK    6  A    between atoms: O_11  and  C_12
REMARK    7  A    between atoms: C_13  and  O_14
REMARK    8  A    between atoms: O_14  and  C_15
REMARK    9  A    between atoms: C_16  and  O_17
REMARK   10  A    between atoms: C_19  and  N_20
REMARK   11  A    between atoms: N_20  and  C_21
REMARK   12  A    between atoms: C_22  and  O_23
REMARK   13  A    between atoms: C_24  and  O_25
REMARK                            x       y       z     vdW  Elec       q    Type
REMARK                         _______ _______ _______ _____ _____    ______ ____
ROOT
ATOM      1  C   LIG A   1      -8.429   2.450 123.709  0.00  0.00    +0.199 C 
ATOM      2  O   LIG A   1      -9.058   3.127 124.556  0.00  0.00    -0.286 OA
ENDROOT
BRANCH   1   4
ATOM      3  C   LIG A   1      -9.047   3.163 121.391  0.00  0.00    +0.017 A 
ATOM      4  C   LIG A   1      -8.065   3.115 122.407  0.00  0.00    +0.047 A 
ATOM      5  C   LIG A   1      -6.745   3.608 122.136  0.00  0.00    +0.084 A 
ATOM      6  C   LIG A   1      -6.511   4.101 120.833  0.00  0.00    +0.180 A 
ATOM      7  C   LIG A   1      -7.521   4.215 119.881  0.00  0.00    +0.160 A 
ATOM      8  C   LIG A   1      -8.793   3.759 120.153  0.00  0.00    +0.050 A 
BRANCH   5   9
ATOM      9  N   LIG A   1      -5.681   3.475 123.057  0.00  0.00    -0.343 N 
ATOM     10  C   LIG A   1      -5.496   4.437 124.142  0.00  0.00    +0.125 C 
ATOM     11  H   LIG A   1      -5.614   2.502 123.381  0.00  0.00    +0.146 HD
ENDBRANCH   5   9
BRANCH   6  12
ATOM     12  O   LIG A   1      -5.242   4.358 120.366  0.00  0.00    -0.502 OA
ATOM     13  H   LIG A   1      -4.751   3.552 120.618  0.00  0.00    +0.292 HD
ENDBRANCH   6  12
BRANCH   7  14
ATOM     14  O   LIG A   1      -7.228   4.692 118.636  0.00  0.00    -0.503 OA
ATOM     15  H   LIG A   1      -8.096   4.950 118.263  0.00  0.00    +0.292 HD
ENDBRANCH   7  14
ENDBRANCH   1   4
BRANCH   1  16
ATOM     16  C   LIG A   1      -8.116   1.034 124.112  0.00  0.00    +0.071 A 
ATOM     17  C   LIG A   1      -6.959   0.817 124.877  0.00  0.00    +0.065 A 
ATOM     18  C   LIG A   1      -6.721  -0.414 125.501  0.00  0.00    +0.166 A 
ATOM     19  C   LIG A   1      -7.648  -1.470 125.372  0.00  0.00    +0.207 A 
ATOM     20  C   LIG A   1      -8.791  -1.303 124.554  0.00  0.00    +0.208 A 
ATOM     21  C   LIG A   1      -8.991  -0.043 123.920  0.00  0.00    +0.173 A 
BRANCH  18  22
ATOM     22  O   LIG A   1      -5.588  -0.682 126.239  0.00  0.00    -0.491 OA
ATOM     23  C   LIG A   1      -5.384   0.125 127.392  0.00  0.00    +0.277 C 
ENDBRANCH  18  22
BRANCH  19  24
ATOM     24  O   LIG A   1      -7.479  -2.494 126.280  0.00  0.00    -0.488 OA
ATOM     25  C   LIG A   1      -8.200  -2.465 127.503  0.00  0.00    +0.277 C 
ENDBRANCH  19  24
BRANCH  20  26
ATOM     26  O   LIG A   1      -9.654  -2.374 124.484  0.00  0.00    -0.488 OA
ATOM     27  C   LIG A   1      -9.474  -3.319 123.433  0.00  0.00    +0.277 C 
ENDBRANCH  20  26
BRANCH  21  28
ATOM     28  O   LIG A   1     -10.091   0.186 123.139  0.00  0.00    -0.503 OA
ATOM     29  H   LIG A   1     -10.778   0.528 123.739  0.00  0.00    +0.292 HD
ENDBRANCH  21  28
ENDBRANCH   1  16
TORSDOF 9
ENDMDL
MODEL 2
REMARK VINA RESULT:      -6.6      1.198      2.862
REMARK  Name = NuBBE_1482
REMARK  13 active torsions:
REMARK  status: ('A' for Active; 'I' for Inactive)
REMARK    1  A    between atoms: C_3  and  C_4
REMARK    2  A    between atoms: C_4  and  C_5
REMARK    3  A    between atoms: C_7  and  O_8
REMARK    4  A    between atoms: O_8  and  C_9
REMARK    5  A    between atoms: C_10  and  O_11
REMARK    6  A    between atoms: O_11  and  C_12
REMARK    7  A    between atoms: C_13  and  O_14
REMARK    8  A    between atoms: O_14  and  C_15
REMARK    9  A    between atoms: C_16  and  O_17
REMARK   10  A    between atoms: C_19  and  N_20
REMARK   11  A    between atoms: N_20  and  C_21
REMARK   12  A    between atoms: C_22  and  O_23
REMARK   13  A    between atoms: C_24  and  O_25
REMARK                            x       y       z     vdW  Elec       q    Type
REMARK                         _______ _______ _______ _____ _____    ______ ____
ROOT
ATOM      1  C   LIG A   1      -8.410   2.363 123.686  0.00  0.00    +0.199 C 
ATOM      2  O   LIG A   1      -9.119   2.979 124.515  0.00  0.00    -0.286 OA
ENDROOT
BRANCH   1   4
ATOM      3  C   LIG A   1      -9.073   3.107 121.391  0.00  0.00    +0.017 A 
ATOM      4  C   LIG A   1      -8.076   3.058 122.392  0.00  0.00    +0.047 A 
ATOM      5  C   LIG A   1      -6.769   3.581 122.112  0.00  0.00    +0.084 A 
ATOM      6  C   LIG A   1      -6.563   4.103 120.815  0.00  0.00    +0.180 A 
ATOM      7  C   LIG A   1      -7.588   4.215 119.880  0.00  0.00    +0.160 A 
ATOM      8  C   LIG A   1      -8.847   3.730 120.160  0.00  0.00    +0.050 A 
BRANCH   5   9
ATOM      9  N   LIG A   1      -5.690   3.451 123.015  0.00  0.00    -0.343 N 
ATOM     10  C   LIG A   1      -5.403   4.489 124.003  0.00  0.00    +0.125 C 
ATOM     11  H   LIG A   1      -5.685   2.509 123.425  0.00  0.00    +0.146 HD
ENDBRANCH   5   9
BRANCH   6  12
ATOM     12  O   LIG A   1      -5.306   4.392 120.335  0.00  0.00    -0.502 OA
ATOM     13  H   LIG A   1      -5.496   4.850 119.493  0.00  0.00    +0.292 HD
ENDBRANCH   6  12
BRANCH   7  14
ATOM     14  O   LIG A   1      -7.321   4.720 118.639  0.00  0.00    -0.503 OA
ATOM     15  H   LIG A   1      -7.169   3.930 118.081  0.00  0.00    +0.292 HD
ENDBRANCH   7  14
ENDBRANCH   1   4
BRANCH   1  16
ATOM     16  C   LIG A   1      -7.977   0.982 124.101  0.00  0.00    +0.071 A 
ATOM     17  C   LIG A   1      -8.504  -0.105 123.385  0.00  0.00    +0.065 A 
ATOM     18  C   LIG A   1      -7.978  -1.394 123.532  0.00  0.00    +0.166 A 
ATOM     19  C   LIG A   1      -6.899  -1.628 124.411  0.00  0.00    +0.207 A 
ATOM     20  C   LIG A   1      -6.390  -0.565 125.195  0.00  0.00    +0.208 A 
ATOM     21  C   LIG A   1      -6.962   0.729 125.031  0.00  0.00    +0.173 A 
BRANCH  18  22
ATOM     22  O   LIG A   1      -8.478  -2.496 122.872  0.00  0.00    -0.491 OA
ATOM     23  C   LIG A   1      -9.530  -3.196 123.525  0.00  0.00    +0.277 C 
ENDBRANCH  18  22
BRANCH  19  24
ATOM     24  O   LIG A   1      -6.263  -2.838 124.226  0.00  0.00    -0.488 OA
ATOM     25  C   LIG A   1      -5.143  -2.910 123.356  0.00  0.00    +0.277 C 
ENDBRANCH  19  24
BRANCH  20  26
ATOM     26  O   LIG A   1      -5.331  -0.868 126.022  0.00  0.00    -0.488 OA
ATOM     27  C   LIG A   1      -5.614  -1.311 127.346  0.00  0.00    +0.277 C 
ENDBRANCH  20  26
BRANCH  21  28
ATOM     28  O   LIG A   1      -6.494   1.801 125.743  0.00  0.00    -0.503 OA
ATOM     29  H   LIG A   1      -7.076   1.878 126.520  0.00  0.00    +0.292 HD
ENDBRANCH  21  28
ENDBRANCH   1  16
TORSDOF 9
ENDMDL
MODEL 3
REMARK VINA RESULT:      -6.1      8.312      9.732
REMARK  Name = NuBBE_1482
REMARK  13 active torsions:
REMARK  status: ('A' for Active; 'I' for Inactive)
REMARK    1  A    between atoms: C_3  and  C_4
REMARK    2  A    between atoms: C_4  and  C_5
REMARK    3  A    between atoms: C_7  and  O_8
REMARK    4  A    between atoms: O_8  and  C_9
REMARK    5  A    between atoms: C_10  and  O_11
REMARK    6  A    between atoms: O_11  and  C_12
REMARK    7  A    between atoms: C_13  and  O_14
REMARK    8  A    between atoms: O_14  and  C_15
REMARK    9  A    between atoms: C_16  and  O_17
REMARK   10  A    between atoms: C_19  and  N_20
REMARK   11  A    between atoms: N_20  and  C_21
REMARK   12  A    between atoms: C_22  and  O_23
REMARK   13  A    between atoms: C_24  and  O_25
REMARK                            x       y       z     vdW  Elec       q    Type
REMARK                         _______ _______ _______ _____ _____    ______ ____
ROOT
ATOM      1  C   LIG A   1      -8.770   6.381 131.512  0.00  0.00    +0.199 C 
ATOM      2  O   LIG A   1      -9.222   6.439 132.679  0.00  0.00    -0.286 OA
ENDROOT
BRANCH   1   4
ATOM      3  C   LIG A   1      -9.449   7.890 129.635  0.00  0.00    +0.017 A 
ATOM      4  C   LIG A   1      -9.704   6.716 130.379  0.00  0.00    +0.047 A 
ATOM      5  C   LIG A   1     -10.881   5.944 130.096  0.00  0.00    +0.084 A 
ATOM      6  C   LIG A   1     -11.730   6.438 129.080  0.00  0.00    +0.180 A 
ATOM      7  C   LIG A   1     -11.407   7.550 128.307  0.00  0.00    +0.160 A 
ATOM      8  C   LIG A   1     -10.265   8.276 128.569  0.00  0.00    +0.050 A 
BRANCH   5   9
ATOM      9  N   LIG A   1     -11.268   4.835 130.881  0.00  0.00    -0.343 N 
ATOM     10  C   LIG A   1     -10.936   3.470 130.476  0.00  0.00    +0.125 C 
ATOM     11  H   LIG A   1     -11.055   5.012 131.871  0.00  0.00    +0.146 HD
ENDBRANCH   5   9
BRANCH   6  12
ATOM     12  O   LIG A   1     -13.002   5.948 128.889  0.00  0.00    -0.502 OA
ATOM     13  H   LIG A   1     -13.344   6.511 128.167  0.00  0.00    +0.292 HD
ENDBRANCH   6  12
BRANCH   7  14
ATOM     14  O   LIG A   1     -12.275   7.981 127.345  0.00  0.00    -0.503 OA
ATOM     15  H   LIG A   1     -12.287   7.258 126.684  0.00  0.00    +0.292 HD
ENDBRANCH   7  14
ENDBRANCH   1   4
BRANCH   1  16
ATOM     16  C   LIG A   1      -7.325   5.975 131.394  0.00  0.00    +0.071 A 
ATOM     17  C   LIG A   1      -6.381   6.992 131.179  0.00  0.00    +0.065 A 
ATOM     18  C   LIG A   1      -5.008   6.745 131.302  0.00  0.00    +0.166 A 
ATOM     19  C   LIG A   1      -4.543   5.458 131.648  0.00  0.00    +0.207 A 
ATOM     20  C   LIG A   1      -5.467   4.398 131.806  0.00  0.00    +0.208 A 
ATOM     21  C   LIG A   1      -6.855   4.683 131.655  0.00  0.00    +0.173 A 
BRANCH  18  22
ATOM     22  O   LIG A   1      -4.043   7.703 131.075  0.00  0.00    -0.491 OA
ATOM     23  C   LIG A   1      -4.079   8.342 129.805  0.00  0.00    +0.277 C 
ENDBRANCH  18  22
BRANCH  19  24
ATOM     24  O   LIG A   1      -3.227   5.417 132.059  0.00  0.00    -0.488 OA
ATOM     25  C   LIG A   1      -2.925   5.544 133.440  0.00  0.00    +0.277 C 
ENDBRANCH  19  24
BRANCH  20  26
ATOM     26  O   LIG A   1      -4.939   3.174 132.151  0.00  0.00    -0.488 OA
ATOM     27  C   LIG A   1      -4.594   2.268 131.107  0.00  0.00    +0.277 C 
ENDBRANCH  20  26
BRANCH  21  28
ATOM     28  O   LIG A   1      -7.796   3.704 131.822  0.00  0.00    -0.503 OA
ATOM     29  H   LIG A   1      -8.607   4.038 131.397  0.00  0.00    +0.292 HD
ENDBRANCH  21  28
ENDBRANCH   1  16
TORSDOF 9
ENDMDL
MODEL 4
REMARK VINA RESULT:      -6.0      3.209      6.463
REMARK  Name = NuBBE_1482
REMARK  13 active torsions:
REMARK  status: ('A' for Active; 'I' for Inactive)
REMARK    1  A    between atoms: C_3  and  C_4
REMARK    2  A    between atoms: C_4  and  C_5
REMARK    3  A    between atoms: C_7  and  O_8
REMARK    4  A    between atoms: O_8  and  C_9
REMARK    5  A    between atoms: C_10  and  O_11
REMARK    6  A    between atoms: O_11  and  C_12
REMARK    7  A    between atoms: C_13  and  O_14
REMARK    8  A    between atoms: O_14  and  C_15
REMARK    9  A    between atoms: C_16  and  O_17
REMARK   10  A    between atoms: C_19  and  N_20
REMARK   11  A    between atoms: N_20  and  C_21
REMARK   12  A    between atoms: C_22  and  O_23
REMARK   13  A    between atoms: C_24  and  O_25
REMARK                            x       y       z     vdW  Elec       q    Type
REMARK                         _______ _______ _______ _____ _____    ______ ____
ROOT
ATOM      1  C   LIG A   1      -6.753   1.557 124.421  0.00  0.00    +0.199 C 
ATOM      2  O   LIG A   1      -6.827   2.133 123.311  0.00  0.00    -0.286 OA
ENDROOT
BRANCH   1   4
ATOM      3  C   LIG A   1      -6.013  -0.830 124.558  0.00  0.00    +0.017 A 
ATOM      4  C   LIG A   1      -7.084   0.088 124.475  0.00  0.00    +0.047 A 
ATOM      5  C   LIG A   1      -8.427  -0.404 124.353  0.00  0.00    +0.084 A 
ATOM      6  C   LIG A   1      -8.583  -1.807 124.303  0.00  0.00    +0.180 A 
ATOM      7  C   LIG A   1      -7.517  -2.686 124.473  0.00  0.00    +0.160 A 
ATOM      8  C   LIG A   1      -6.231  -2.209 124.612  0.00  0.00    +0.050 A 
BRANCH   5   9
ATOM      9  N   LIG A   1      -9.532   0.450 124.137  0.00  0.00    -0.343 N 
ATOM     10  C   LIG A   1      -9.986   0.771 122.786  0.00  0.00    +0.125 C 
ATOM     11  H   LIG A   1     -10.308   0.187 124.758  0.00  0.00    +0.146 HD
ENDBRANCH   5   9
BRANCH   6  12
ATOM     12  O   LIG A   1      -9.768  -2.398 123.931  0.00  0.00    -0.502 OA
ATOM     13  H   LIG A   1      -9.499  -2.975 123.189  0.00  0.00    +0.292 HD
ENDBRANCH   6  12
BRANCH   7  14
ATOM     14  O   LIG A   1      -7.732  -4.033 124.406  0.00  0.00    -0.503 OA
ATOM     15  H   LIG A   1      -7.789  -4.319 125.342  0.00  0.00    +0.292 HD
ENDBRANCH   7  14
ENDBRANCH   1   4
BRANCH   1  16
ATOM     16  C   LIG A   1      -6.335   2.426 125.577  0.00  0.00    +0.071 A 
ATOM     17  C   LIG A   1      -4.980   2.785 125.663  0.00  0.00    +0.065 A 
ATOM     18  C   LIG A   1      -4.547   3.779 126.549  0.00  0.00    +0.166 A 
ATOM     19  C   LIG A   1      -5.473   4.445 127.380  0.00  0.00    +0.207 A 
ATOM     20  C   LIG A   1      -6.834   4.059 127.364  0.00  0.00    +0.208 A 
ATOM     21  C   LIG A   1      -7.235   3.032 126.462  0.00  0.00    +0.173 A 
BRANCH  18  22
ATOM     22  O   LIG A   1      -3.227   4.148 126.687  0.00  0.00    -0.491 OA
ATOM     23  C   LIG A   1      -2.324   3.118 127.071  0.00  0.00    +0.277 C 
ENDBRANCH  18  22
BRANCH  19  24
ATOM     24  O   LIG A   1      -4.996   5.607 127.952  0.00  0.00    -0.488 OA
ATOM     25  C   LIG A   1      -4.548   5.585 129.299  0.00  0.00    +0.277 C 
ENDBRANCH  19  24
BRANCH  20  26
ATOM     26  O   LIG A   1      -7.678   4.760 128.196  0.00  0.00    -0.488 OA
ATOM     27  C   LIG A   1      -8.006   4.192 129.461  0.00  0.00    +0.277 C 
ENDBRANCH  20  26
BRANCH  21  28
ATOM     28  O   LIG A   1      -8.542   2.634 126.384  0.00  0.00    -0.503 OA
ATOM     29  H   LIG A   1      -8.580   1.984 125.659  0.00  0.00    +0.292 HD
ENDBRANCH  21  28
ENDBRANCH   1  16
TORSDOF 9
ENDMDL
MODEL 5
REMARK VINA RESULT:      -6.0      4.316      7.391
REMARK  Name = NuBBE_1482
REMARK  13 active torsions:
REMARK  status: ('A' for Active; 'I' for Inactive)
REMARK    1  A    between atoms: C_3  and  C_4
REMARK    2  A    between atoms: C_4  and  C_5
REMARK    3  A    between atoms: C_7  and  O_8
REMARK    4  A    between atoms: O_8  and  C_9
REMARK    5  A    between atoms: C_10  and  O_11
REMARK    6  A    between atoms: O_11  and  C_12
REMARK    7  A    between atoms: C_13  and  O_14
REMARK    8  A    between atoms: O_14  and  C_15
REMARK    9  A    between atoms: C_16  and  O_17
REMARK   10  A    between atoms: C_19  and  N_20
REMARK   11  A    between atoms: N_20  and  C_21
REMARK   12  A    between atoms: C_22  and  O_23
REMARK   13  A    between atoms: C_24  and  O_25
REMARK                            x       y       z     vdW  Elec       q    Type
REMARK                         _______ _______ _______ _____ _____    ______ ____
ROOT
ATOM      1  C   LIG A   1      -7.427   1.613 128.479  0.00  0.00    +0.199 C 
ATOM      2  O   LIG A   1      -6.401   2.278 128.205  0.00  0.00    -0.286 OA
ENDROOT
BRANCH   1   4
ATOM      3  C   LIG A   1      -9.263   2.692 129.793  0.00  0.00    +0.017 A 
ATOM      4  C   LIG A   1      -8.107   1.879 129.797  0.00  0.00    +0.047 A 
ATOM      5  C   LIG A   1      -7.572   1.418 131.046  0.00  0.00    +0.084 A 
ATOM      6  C   LIG A   1      -8.248   1.839 132.214  0.00  0.00    +0.180 A 
ATOM      7  C   LIG A   1      -9.433   2.568 132.174  0.00  0.00    +0.160 A 
ATOM      8  C   LIG A   1      -9.954   2.990 130.970  0.00  0.00    +0.050 A 
BRANCH   5   9
ATOM      9  N   LIG A   1      -6.351   0.712 131.136  0.00  0.00    -0.343 N 
ATOM     10  C   LIG A   1      -6.327  -0.746 131.222  0.00  0.00    +0.125 C 
ATOM     11  H   LIG A   1      -5.683   1.075 130.445  0.00  0.00    +0.146 HD
ENDBRANCH   5   9
BRANCH   6  12
ATOM     12  O   LIG A   1      -7.701   1.689 133.468  0.00  0.00    -0.502 OA
ATOM     13  H   LIG A   1      -6.844   1.258 133.281  0.00  0.00    +0.292 HD
ENDBRANCH   6  12
BRANCH   7  14
ATOM     14  O   LIG A   1     -10.033   2.951 133.340  0.00  0.00    -0.503 OA
ATOM     15  H   LIG A   1      -9.560   2.447 134.035  0.00  0.00    +0.292 HD
ENDBRANCH   7  14
ENDBRANCH   1   4
BRANCH   1  16
ATOM     16  C   LIG A   1      -7.852   0.615 127.435  0.00  0.00    +0.071 A 
ATOM     17  C   LIG A   1      -7.633  -0.745 127.710  0.00  0.00    +0.065 A 
ATOM     18  C   LIG A   1      -8.212  -1.747 126.921  0.00  0.00    +0.166 A 
ATOM     19  C   LIG A   1      -9.033  -1.407 125.825  0.00  0.00    +0.207 A 
ATOM     20  C   LIG A   1      -9.217  -0.046 125.483  0.00  0.00    +0.208 A 
ATOM     21  C   LIG A   1      -8.599   0.946 126.298  0.00  0.00    +0.173 A 
BRANCH  18  22
ATOM     22  O   LIG A   1      -8.005  -3.092 127.136  0.00  0.00    -0.491 OA
ATOM     23  C   LIG A   1      -8.514  -3.620 128.355  0.00  0.00    +0.277 C 
ENDBRANCH  18  22
BRANCH  19  24
ATOM     24  O   LIG A   1      -9.799  -2.446 125.339  0.00  0.00    -0.488 OA
ATOM     25  C   LIG A   1      -9.345  -3.176 124.209  0.00  0.00    +0.277 C 
ENDBRANCH  19  24
BRANCH  20  26
ATOM     26  O   LIG A   1     -10.039   0.208 124.407  0.00  0.00    -0.488 OA
ATOM     27  C   LIG A   1      -9.436   0.423 123.133  0.00  0.00    +0.277 C 
ENDBRANCH  20  26
BRANCH  21  28
ATOM     28  O   LIG A   1      -8.763   2.278 126.032  0.00  0.00    -0.503 OA
ATOM     29  H   LIG A   1      -8.939   2.702 126.892  0.00  0.00    +0.292 HD
ENDBRANCH  21  28
ENDBRANCH   1  16
TORSDOF 9
ENDMDL
MODEL 6
REMARK VINA RESULT:      -6.0      3.311      5.237
REMARK  Name = NuBBE_1482
REMARK  13 active torsions:
REMARK  status: ('A' for Active; 'I' for Inactive)
REMARK    1  A    between atoms: C_3  and  C_4
REMARK    2  A    between atoms: C_4  and  C_5
REMARK    3  A    between atoms: C_7  and  O_8
REMARK    4  A    between atoms: O_8  and  C_9
REMARK    5  A    between atoms: C_10  and  O_11
REMARK    6  A    between atoms: O_11  and  C_12
REMARK    7  A    between atoms: C_13  and  O_14
REMARK    8  A    between atoms: O_14  and  C_15
REMARK    9  A    between atoms: C_16  and  O_17
REMARK   10  A    between atoms: C_19  and  N_20
REMARK   11  A    between atoms: N_20  and  C_21
REMARK   12  A    between atoms: C_22  and  O_23
REMARK   13  A    between atoms: C_24  and  O_25
REMARK                            x       y       z     vdW  Elec       q    Type
REMARK                         _______ _______ _______ _____ _____    ______ ____
ROOT
ATOM      1  C   LIG A   1      -7.458   3.061 126.930  0.00  0.00    +0.199 C 
ATOM      2  O   LIG A   1      -8.383   3.752 127.416  0.00  0.00    -0.286 OA
ENDROOT
BRANCH   1   4
ATOM      3  C   LIG A   1      -5.184   3.534 126.000  0.00  0.00    +0.017 A 
ATOM      4  C   LIG A   1      -6.044   3.544 127.122  0.00  0.00    +0.047 A 
ATOM      5  C   LIG A   1      -5.524   3.918 128.406  0.00  0.00    +0.084 A 
ATOM      6  C   LIG A   1      -4.149   4.238 128.461  0.00  0.00    +0.180 A 
ATOM      7  C   LIG A   1      -3.348   4.303 127.325  0.00  0.00    +0.160 A 
ATOM      8  C   LIG A   1      -3.857   3.963 126.090  0.00  0.00    +0.050 A 
BRANCH   5   9
ATOM      9  N   LIG A   1      -6.290   3.827 129.591  0.00  0.00    -0.343 N 
ATOM     10  C   LIG A   1      -6.838   5.022 130.229  0.00  0.00    +0.125 C 
ATOM     11  H   LIG A   1      -6.986   3.075 129.504  0.00  0.00    +0.146 HD
ENDBRANCH   5   9
BRANCH   6  12
ATOM     12  O   LIG A   1      -3.474   4.358 129.654  0.00  0.00    -0.502 OA
ATOM     13  H   LIG A   1      -4.008   5.017 130.140  0.00  0.00    +0.292 HD
ENDBRANCH   6  12
BRANCH   7  14
ATOM     14  O   LIG A   1      -2.023   4.611 127.446  0.00  0.00    -0.503 OA
ATOM     15  H   LIG A   1      -1.632   4.353 126.585  0.00  0.00    +0.292 HD
ENDBRANCH   7  14
ENDBRANCH   1   4
BRANCH   1  16
ATOM     16  C   LIG A   1      -7.891   1.816 126.202  0.00  0.00    +0.071 A 
ATOM     17  C   LIG A   1      -7.398   0.587 126.669  0.00  0.00    +0.065 A 
ATOM     18  C   LIG A   1      -7.932  -0.627 126.220  0.00  0.00    +0.166 A 
ATOM     19  C   LIG A   1      -8.986  -0.638 125.281  0.00  0.00    +0.207 A 
ATOM     20  C   LIG A   1      -9.459   0.582 124.743  0.00  0.00    +0.208 A 
ATOM     21  C   LIG A   1      -8.880   1.797 125.211  0.00  0.00    +0.173 A 
BRANCH  18  22
ATOM     22  O   LIG A   1      -7.464  -1.857 126.628  0.00  0.00    -0.491 OA
ATOM     23  C   LIG A   1      -6.065  -2.075 126.490  0.00  0.00    +0.277 C 
ENDBRANCH  18  22
BRANCH  19  24
ATOM     24  O   LIG A   1      -9.640  -1.848 125.170  0.00  0.00    -0.488 OA
ATOM     25  C   LIG A   1      -9.263  -2.750 124.140  0.00  0.00    +0.277 C 
ENDBRANCH  19  24
BRANCH  20  26
ATOM     26  O   LIG A   1     -10.495   0.491 123.840  0.00  0.00    -0.488 OA
ATOM     27  C   LIG A   1     -10.180   0.487 122.450  0.00  0.00    +0.277 C 
ENDBRANCH  20  26
BRANCH  21  28
ATOM     28  O   LIG A   1      -9.314   3.009 124.747  0.00  0.00    -0.503 OA
ATOM     29  H   LIG A   1      -8.764   3.678 125.193  0.00  0.00    +0.292 HD
ENDBRANCH  21  28
ENDBRANCH   1  16
TORSDOF 9
ENDMDL
MODEL 7
REMARK VINA RESULT:      -5.9      9.434     10.741
REMARK  Name = NuBBE_1482
REMARK  13 active torsions:
REMARK  status: ('A' for Active; 'I' for Inactive)
REMARK    1  A    between atoms: C_3  and  C_4
REMARK    2  A    between atoms: C_4  and  C_5
REMARK    3  A    between atoms: C_7  and  O_8
REMARK    4  A    between atoms: O_8  and  C_9
REMARK    5  A    between atoms: C_10  and  O_11
REMARK    6  A    between atoms: O_11  and  C_12
REMARK    7  A    between atoms: C_13  and  O_14
REMARK    8  A    between atoms: O_14  and  C_15
REMARK    9  A    between atoms: C_16  and  O_17
REMARK   10  A    between atoms: C_19  and  N_20
REMARK   11  A    between atoms: N_20  and  C_21
REMARK   12  A    between atoms: C_22  and  O_23
REMARK   13  A    between atoms: C_24  and  O_25
REMARK                            x       y       z     vdW  Elec       q    Type
REMARK                         _______ _______ _______ _____ _____    ______ ____
ROOT
ATOM      1  C   LIG A   1      -7.305   6.117 132.290  0.00  0.00    +0.199 C 
ATOM      2  O   LIG A   1      -7.271   6.108 133.542  0.00  0.00    -0.286 OA
ENDROOT
BRANCH   1   4
ATOM      3  C   LIG A   1      -8.664   7.192 130.484  0.00  0.00    +0.017 A 
ATOM      4  C   LIG A   1      -8.635   6.357 131.624  0.00  0.00    +0.047 A 
ATOM      5  C   LIG A   1      -9.867   5.849 132.157  0.00  0.00    +0.084 A 
ATOM      6  C   LIG A   1     -11.052   6.248 131.498  0.00  0.00    +0.180 A 
ATOM      7  C   LIG A   1     -11.041   7.001 130.327  0.00  0.00    +0.160 A 
ATOM      8  C   LIG A   1      -9.854   7.469 129.806  0.00  0.00    +0.050 A 
BRANCH   5   9
ATOM      9  N   LIG A   1      -9.928   5.117 133.365  0.00  0.00    -0.343 N 
ATOM     10  C   LIG A   1      -9.570   3.701 133.408  0.00  0.00    +0.125 C 
ATOM     11  H   LIG A   1      -9.491   5.654 134.125  0.00  0.00    +0.146 HD
ENDBRANCH   5   9
BRANCH   6  12
ATOM     12  O   LIG A   1     -12.297   6.050 132.050  0.00  0.00    -0.502 OA
ATOM     13  H   LIG A   1     -12.861   5.904 131.265  0.00  0.00    +0.292 HD
ENDBRANCH   6  12
BRANCH   7  14
ATOM     14  O   LIG A   1     -12.222   7.360 129.742  0.00  0.00    -0.503 OA
ATOM     15  H   LIG A   1     -12.262   6.824 128.923  0.00  0.00    +0.292 HD
ENDBRANCH   7  14
ENDBRANCH   1   4
BRANCH   1  16
ATOM     16  C   LIG A   1      -5.987   5.879 131.602  0.00  0.00    +0.071 A 
ATOM     17  C   LIG A   1      -5.483   6.909 130.792  0.00  0.00    +0.065 A 
ATOM     18  C   LIG A   1      -4.166   6.880 130.317  0.00  0.00    +0.166 A 
ATOM     19  C   LIG A   1      -3.312   5.805 130.647  0.00  0.00    +0.207 A 
ATOM     20  C   LIG A   1      -3.812   4.721 131.406  0.00  0.00    +0.208 A 
ATOM     21  C   LIG A   1      -5.162   4.777 131.857  0.00  0.00    +0.173 A 
BRANCH  18  22
ATOM     22  O   LIG A   1      -3.634   7.854 129.499  0.00  0.00    -0.491 OA
ATOM     23  C   LIG A   1      -3.864   9.201 129.894  0.00  0.00    +0.277 C 
ENDBRANCH  18  22
BRANCH  19  24
ATOM     24  O   LIG A   1      -1.974   6.044 130.410  0.00  0.00    -0.488 OA
ATOM     25  C   LIG A   1      -1.180   6.627 131.431  0.00  0.00    +0.277 C 
ENDBRANCH  19  24
BRANCH  20  26
ATOM     26  O   LIG A   1      -2.918   3.714 131.695  0.00  0.00    -0.488 OA
ATOM     27  C   LIG A   1      -2.398   3.631 133.019  0.00  0.00    +0.277 C 
ENDBRANCH  20  26
BRANCH  21  28
ATOM     28  O   LIG A   1      -5.693   3.770 132.617  0.00  0.00    -0.503 OA
ATOM     29  H   LIG A   1      -6.187   4.208 133.333  0.00  0.00    +0.292 HD
ENDBRANCH  21  28
ENDBRANCH   1  16
TORSDOF 9
ENDMDL
MODEL 8
REMARK VINA RESULT:      -5.9      3.808      6.856
REMARK  Name = NuBBE_1482
REMARK  13 active torsions:
REMARK  status: ('A' for Active; 'I' for Inactive)
REMARK    1  A    between atoms: C_3  and  C_4
REMARK    2  A    between atoms: C_4  and  C_5
REMARK    3  A    between atoms: C_7  and  O_8
REMARK    4  A    between atoms: O_8  and  C_9
REMARK    5  A    between atoms: C_10  and  O_11
REMARK    6  A    between atoms: O_11  and  C_12
REMARK    7  A    between atoms: C_13  and  O_14
REMARK    8  A    between atoms: O_14  and  C_15
REMARK    9  A    between atoms: C_16  and  O_17
REMARK   10  A    between atoms: C_19  and  N_20
REMARK   11  A    between atoms: N_20  and  C_21
REMARK   12  A    between atoms: C_22  and  O_23
REMARK   13  A    between atoms: C_24  and  O_25
REMARK                            x       y       z     vdW  Elec       q    Type
REMARK                         _______ _______ _______ _____ _____    ______ ____
ROOT
ATOM      1  C   LIG A   1      -6.095  -0.695 126.627  0.00  0.00    +0.199 C 
ATOM      2  O   LIG A   1      -5.206  -1.375 127.188  0.00  0.00    -0.286 OA
ENDROOT
BRANCH   1   4
ATOM      3  C   LIG A   1      -7.062  -1.290 124.397  0.00  0.00    +0.017 A 
ATOM      4  C   LIG A   1      -7.124  -1.424 125.802  0.00  0.00    +0.047 A 
ATOM      5  C   LIG A   1      -8.203  -2.162 126.394  0.00  0.00    +0.084 A 
ATOM      6  C   LIG A   1      -9.162  -2.698 125.505  0.00  0.00    +0.180 A 
ATOM      7  C   LIG A   1      -9.027  -2.622 124.121  0.00  0.00    +0.160 A 
ATOM      8  C   LIG A   1      -7.977  -1.930 123.557  0.00  0.00    +0.050 A 
BRANCH   5   9
ATOM      9  N   LIG A   1      -8.401  -2.230 127.791  0.00  0.00    -0.343 N 
ATOM     10  C   LIG A   1      -8.035  -3.424 128.549  0.00  0.00    +0.125 C 
ATOM     11  H   LIG A   1      -8.067  -1.366 128.237  0.00  0.00    +0.146 HD
ENDBRANCH   5   9
BRANCH   6  12
ATOM     12  O   LIG A   1     -10.368  -3.196 125.944  0.00  0.00    -0.502 OA
ATOM     13  H   LIG A   1     -10.866  -3.322 125.112  0.00  0.00    +0.292 HD
ENDBRANCH   6  12
BRANCH   7  14
ATOM     14  O   LIG A   1      -9.994  -3.154 123.316  0.00  0.00    -0.503 OA
ATOM     15  H   LIG A   1      -9.500  -3.703 122.672  0.00  0.00    +0.292 HD
ENDBRANCH   7  14
ENDBRANCH   1   4
BRANCH   1  16
ATOM     16  C   LIG A   1      -6.016   0.792 126.853  0.00  0.00    +0.071 A 
ATOM     17  C   LIG A   1      -4.861   1.456 126.409  0.00  0.00    +0.065 A 
ATOM     18  C   LIG A   1      -4.804   2.853 126.352  0.00  0.00    +0.166 A 
ATOM     19  C   LIG A   1      -5.916   3.629 126.744  0.00  0.00    +0.207 A 
ATOM     20  C   LIG A   1      -7.069   2.991 127.259  0.00  0.00    +0.208 A 
ATOM     21  C   LIG A   1      -7.085   1.568 127.319  0.00  0.00    +0.173 A 
BRANCH  18  22
ATOM     22  O   LIG A   1      -3.685   3.549 125.948  0.00  0.00    -0.491 OA
ATOM     23  C   LIG A   1      -2.630   3.648 126.896  0.00  0.00    +0.277 C 
ENDBRANCH  18  22
BRANCH  19  24
ATOM     24  O   LIG A   1      -5.866   4.947 126.338  0.00  0.00    -0.488 OA
ATOM     25  C   LIG A   1      -6.322   5.292 125.039  0.00  0.00    +0.277 C 
ENDBRANCH  19  24
BRANCH  20  26
ATOM     26  O   LIG A   1      -8.116   3.813 127.613  0.00  0.00    -0.488 OA
ATOM     27  C   LIG A   1      -8.177   4.292 128.953  0.00  0.00    +0.277 C 
ENDBRANCH  20  26
BRANCH  21  28
ATOM     28  O   LIG A   1      -8.182   0.894 127.783  0.00  0.00    -0.503 OA
ATOM     29  H   LIG A   1      -8.376   0.209 127.117  0.00  0.00    +0.292 HD
ENDBRANCH  21  28
ENDBRANCH   1  16
TORSDOF 9
ENDMDL
MODEL 9
REMARK VINA RESULT:      -5.8      7.226      9.917
REMARK  Name = NuBBE_1482
REMARK  13 active torsions:
REMARK  status: ('A' for Active; 'I' for Inactive)
REMARK    1  A    between atoms: C_3  and  C_4
REMARK    2  A    between atoms: C_4  and  C_5
REMARK    3  A    between atoms: C_7  and  O_8
REMARK    4  A    between atoms: O_8  and  C_9
REMARK    5  A    between atoms: C_10  and  O_11
REMARK    6  A    between atoms: O_11  and  C_12
REMARK    7  A    between atoms: C_13  and  O_14
REMARK    8  A    between atoms: O_14  and  C_15
REMARK    9  A    between atoms: C_16  and  O_17
REMARK   10  A    between atoms: C_19  and  N_20
REMARK   11  A    between atoms: N_20  and  C_21
REMARK   12  A    between atoms: C_22  and  O_23
REMARK   13  A    between atoms: C_24  and  O_25
REMARK                            x       y       z     vdW  Elec       q    Type
REMARK                         _______ _______ _______ _____ _____    ______ ____
ROOT
ATOM      1  C   LIG A   1      -7.049   5.749 132.225  0.00  0.00    +0.199 C 
ATOM      2  O   LIG A   1      -6.861   5.990 133.439  0.00  0.00    -0.286 OA
ENDROOT
BRANCH   1   4
ATOM      3  C   LIG A   1      -8.407   7.037 130.563  0.00  0.00    +0.017 A 
ATOM      4  C   LIG A   1      -8.386   6.114 131.633  0.00  0.00    +0.047 A 
ATOM      5  C   LIG A   1      -9.626   5.634 132.175  0.00  0.00    +0.084 A 
ATOM      6  C   LIG A   1     -10.808   6.148 131.596  0.00  0.00    +0.180 A 
ATOM      7  C   LIG A   1     -10.795   6.990 130.488  0.00  0.00    +0.160 A 
ATOM      8  C   LIG A   1      -9.602   7.433 129.958  0.00  0.00    +0.050 A 
BRANCH   5   9
ATOM      9  N   LIG A   1      -9.685   4.812 133.323  0.00  0.00    -0.343 N 
ATOM     10  C   LIG A   1      -9.397   3.382 133.244  0.00  0.00    +0.125 C 
ATOM     11  H   LIG A   1      -9.200   5.267 134.107  0.00  0.00    +0.146 HD
ENDBRANCH   5   9
BRANCH   6  12
ATOM     12  O   LIG A   1     -12.042   5.977 132.181  0.00  0.00    -0.502 OA
ATOM     13  H   LIG A   1     -12.641   5.925 131.410  0.00  0.00    +0.292 HD
ENDBRANCH   6  12
BRANCH   7  14
ATOM     14  O   LIG A   1     -11.973   7.460 129.981  0.00  0.00    -0.503 OA
ATOM     15  H   LIG A   1     -12.356   6.695 129.503  0.00  0.00    +0.292 HD
ENDBRANCH   7  14
ENDBRANCH   1   4
BRANCH   1  16
ATOM     16  C   LIG A   1      -5.892   5.110 131.502  0.00  0.00    +0.071 A 
ATOM     17  C   LIG A   1      -6.039   3.775 131.095  0.00  0.00    +0.065 A 
ATOM     18  C   LIG A   1      -5.129   3.181 130.212  0.00  0.00    +0.166 A 
ATOM     19  C   LIG A   1      -4.037   3.921 129.710  0.00  0.00    +0.207 A 
ATOM     20  C   LIG A   1      -3.826   5.248 130.154  0.00  0.00    +0.208 A 
ATOM     21  C   LIG A   1      -4.763   5.813 131.066  0.00  0.00    +0.173 A 
BRANCH  18  22
ATOM     22  O   LIG A   1      -5.216   1.868 129.805  0.00  0.00    -0.491 OA
ATOM     23  C   LIG A   1      -6.491   1.436 129.345  0.00  0.00    +0.277 C 
ENDBRANCH  18  22
BRANCH  19  24
ATOM     24  O   LIG A   1      -3.415   3.354 128.617  0.00  0.00    -0.488 OA
ATOM     25  C   LIG A   1      -3.943   3.585 127.319  0.00  0.00    +0.277 C 
ENDBRANCH  19  24
BRANCH  20  26
ATOM     26  O   LIG A   1      -2.745   5.909 129.613  0.00  0.00    -0.488 OA
ATOM     27  C   LIG A   1      -2.982   6.858 128.577  0.00  0.00    +0.277 C 
ENDBRANCH  20  26
BRANCH  21  28
ATOM     28  O   LIG A   1      -4.625   7.100 131.511  0.00  0.00    -0.503 OA
ATOM     29  H   LIG A   1      -5.515   7.494 131.464  0.00  0.00    +0.292 HD
ENDBRANCH  21  28
ENDBRANCH   1  16
TORSDOF 9
ENDMDL
