REMARK  Name = NuBBE_170
REMARK  23 active torsions:
REMARK  status: ('A' for Active; 'I' for Inactive)
REMARK    1  A    between atoms: C_1  and  C_2
REMARK    2  A    between atoms: C_4  and  O_6
REMARK    3  A    between atoms: O_6  and  SI_7
REMARK    4  A    between atoms: SI_7  and  C_8
REMARK    5  A    between atoms: SI_7  and  C_9
REMARK    6  A    between atoms: SI_7  and  C_13
REMARK    7  A    between atoms: C_9  and  C_10
REMARK    8  A    between atoms: C_9  and  C_11
REMARK    9  A    between atoms: C_9  and  C_12
REMARK   10  A    between atoms: C_16  and  C_18
REMARK   11  A    between atoms: C_18  and  C_19
REMARK   12  A    between atoms: C_19  and  C_20
REMARK   13  A    between atoms: C_20  and  C_21
REMARK   14  A    between atoms: C_21  and  C_22
REMARK   15  A    between atoms: C_22  and  C_23
REMARK   16  A    between atoms: C_23  and  C_24
REMARK   17  A    between atoms: C_24  and  C_25
REMARK   18  A    between atoms: C_25  and  C_26
REMARK   19  A    between atoms: C_26  and  C_27
REMARK   20  A    between atoms: C_27  and  C_28
REMARK   21  A    between atoms: C_28  and  C_29
REMARK   22  A    between atoms: C_29  and  C_30
REMARK   23  A    between atoms: C_30  and  C_31
REMARK                            x       y       z     vdW  Elec       q    Type
REMARK                         _______ _______ _______ _____ _____    ______ ____
ROOT
ATOM      1  C   LIG A   1       0.223   2.717   6.603  0.00  0.00    +0.000 C 
ATOM      2  C   LIG A   1      -0.270   2.263   5.225  0.00  0.00    +0.000 C 
ATOM      3  C   LIG A   1       0.821   1.455   4.465  0.00  0.00    +0.000 C 
ATOM      4  C   LIG A   1       0.090   0.712   3.335  0.00  0.00    +0.000 C 
ATOM      5  C   LIG A   1      -1.300   1.281   3.005  0.00  0.00    +0.000 C 
ATOM      6  C   LIG A   1      -1.402   2.809   3.086  0.00  0.00    +0.000 C 
ATOM      7  N   LIG A   1      -0.679   3.357   4.290  0.00  0.00    +0.000 NA
ATOM      8  H   LIG A   1       0.217   3.749   3.960  0.00  0.00    +0.000 HD
ENDROOT
BRANCH   6   9
ATOM      9  C   LIG A   1      -0.962   3.442   1.730  0.00  0.00    +0.000 C 
BRANCH   9  10
ATOM     10  C   LIG A   1      -1.878   3.271   0.462  0.00  0.00    +0.000 C 
BRANCH  10  11
ATOM     11  C   LIG A   1      -2.321   1.876  -0.184  0.00  0.00    +0.000 C 
BRANCH  11  12
ATOM     12  C   LIG A   1      -1.262   0.868  -0.877  0.00  0.00    +0.000 C 
BRANCH  12  13
ATOM     13  C   LIG A   1      -1.853  -0.605  -1.443  0.00  0.00    +0.000 C 
BRANCH  13  14
ATOM     14  C   LIG A   1      -0.925  -1.775  -2.115  0.00  0.00    +0.000 C 
BRANCH  14  15
ATOM     15  C   LIG A   1      -1.460  -3.091  -2.967  0.00  0.00    +0.000 C 
BRANCH  15  16
ATOM     16  C   LIG A   1      -2.206  -4.392  -2.477  0.00  0.00    +0.000 C 
BRANCH  16  17
ATOM     17  C   LIG A   1      -2.474  -5.510  -3.637  0.00  0.00    +0.000 C 
BRANCH  17  18
ATOM     18  C   LIG A   1      -3.216  -4.984  -4.905  0.00  0.00    +0.000 C 
BRANCH  18  19
ATOM     19  C   LIG A   1      -3.663  -5.898  -6.118  0.00  0.00    +0.000 C 
BRANCH  19  20
ATOM     20  C   LIG A   1      -2.792  -6.489  -7.331  0.00  0.00    +0.000 C 
BRANCH  20  21
ATOM     21  C   LIG A   1      -2.314  -5.728  -8.452  0.00  0.00    +0.000 C 
ATOM     22  C   LIG A   1      -1.428  -6.335  -9.644  0.00  0.00    +0.000 C 
ATOM     23  O   LIG A   1      -2.660  -4.585  -8.416  0.00  0.00    +0.000 OA
ENDBRANCH  20  21
ENDBRANCH  19  20
ENDBRANCH  18  19
ENDBRANCH  17  18
ENDBRANCH  16  17
ENDBRANCH  15  16
ENDBRANCH  14  15
ENDBRANCH  13  14
ENDBRANCH  12  13
ENDBRANCH  11  12
ENDBRANCH  10  11
ENDBRANCH   9  10
ENDBRANCH   6   9
BRANCH   3  24
ATOM     24  O   LIG A   1       1.766   2.430   3.972  0.00  0.00    +0.000 OA
BRANCH  24  25
ATOM     25 SI   LIG A   1       3.204   2.124   3.185  0.00  0.00    +0.000 Si
ATOM     26  C   LIG A   1       3.023   1.347   1.484  0.00  0.00    +0.000 C 
ATOM     27  C   LIG A   1       4.445   1.033   4.088  0.00  0.00    +0.000 C 
BRANCH  25  28
ATOM     28  C   LIG A   1       4.144   4.020   2.923  0.00  0.00    +0.000 C 
ATOM     29  C   LIG A   1       5.456   3.815   2.126  0.00  0.00    +0.000 C 
ATOM     30  C   LIG A   1       3.194   4.979   2.164  0.00  0.00    +0.000 C 
ATOM     31  C   LIG A   1       4.390   4.599   4.342  0.00  0.00    +0.000 C 
ENDBRANCH  25  28
ENDBRANCH  24  25
ENDBRANCH   3  24
TORSDOF 16
