MODEL 1
REMARK VINA RESULT:      -7.5      0.000      0.000
REMARK  Name = NuBBE_926
REMARK  9 active torsions:
REMARK  status: ('A' for Active; 'I' for Inactive)
REMARK    1  A    between atoms: O_1  and  C_2
REMARK    2  A    between atoms: O_1  and  C_3
REMARK    3  A    between atoms: C_5  and  C_11
REMARK    4  A    between atoms: C_8  and  O_9
REMARK    5  A    between atoms: O_9  and  C_10
REMARK    6  A    between atoms: C_19  and  C_23
REMARK    7  A    between atoms: C_25  and  O_26
REMARK    8  A    between atoms: O_26  and  C_27
REMARK    9  A    between atoms: C_28  and  O_31
REMARK                            x       y       z     vdW  Elec       q    Type
REMARK                         _______ _______ _______ _____ _____    ______ ____
ROOT
ATOM      1  C   LIG A   1      -9.056   1.196 125.357  0.00  0.00    +0.154 C 
ATOM      2  C   LIG A   1      -8.587   2.625 125.035  0.00  0.00    +0.056 C 
ATOM      3  C   LIG A   1      -8.649   2.692 123.528  0.00  0.00    +0.056 C 
ATOM      4  C   LIG A   1      -9.652   1.625 123.163  0.00  0.00    +0.167 C 
ATOM      5  O   LIG A   1      -9.463   0.581 124.118  0.00  0.00    -0.371 OA
ATOM      6  C   LIG A   1      -7.219   2.346 123.092  0.00  0.00    +0.154 C 
ATOM      7  O   LIG A   1      -6.366   2.514 124.241  0.00  0.00    -0.371 OA
ATOM      8  C   LIG A   1      -7.153   3.002 125.328  0.00  0.00    +0.167 C 
ENDROOT
BRANCH   1  11
ATOM      9  C   LIG A   1      -6.500  -1.549 126.025  0.00  0.00    +0.162 A 
ATOM     10  C   LIG A   1      -7.412  -0.686 125.403  0.00  0.00    +0.055 A 
ATOM     11  C   LIG A   1      -8.119   0.291 126.116  0.00  0.00    -0.015 A 
ATOM     12  C   LIG A   1      -7.926   0.377 127.496  0.00  0.00    +0.010 A 
ATOM     13  C   LIG A   1      -7.027  -0.479 128.135  0.00  0.00    +0.050 A 
ATOM     14  C   LIG A   1      -6.289  -1.422 127.411  0.00  0.00    +0.162 A 
BRANCH   9  15
ATOM     15  O   LIG A   1      -5.819  -2.523 125.340  0.00  0.00    -0.491 OA
ATOM     16  C   LIG A   1      -6.523  -3.230 124.327  0.00  0.00    +0.277 C 
ENDBRANCH   9  15
BRANCH  14  17
ATOM     17  O   LIG A   1      -5.442  -2.173 128.183  0.00  0.00    -0.491 OA
ATOM     18  C   LIG A   1      -6.047  -2.944 129.214  0.00  0.00    +0.277 C 
ENDBRANCH  14  17
ENDBRANCH   1  11
BRANCH   6  19
ATOM     19  C   LIG A   1      -6.742   3.223 121.949  0.00  0.00    -0.015 A 
ATOM     20  C   LIG A   1      -7.592   3.478 120.860  0.00  0.00    +0.055 A 
ATOM     21  C   LIG A   1      -7.170   4.292 119.805  0.00  0.00    +0.162 A 
ATOM     22  C   LIG A   1      -5.891   4.856 119.854  0.00  0.00    +0.159 A 
ATOM     23  C   LIG A   1      -5.038   4.626 120.923  0.00  0.00    +0.049 A 
ATOM     24  C   LIG A   1      -5.465   3.811 121.969  0.00  0.00    +0.010 A 
BRANCH  21  25
ATOM     25  O   LIG A   1      -7.905   4.609 118.689  0.00  0.00    -0.491 OA
ATOM     26  C   LIG A   1      -9.299   4.331 118.757  0.00  0.00    +0.277 C 
ENDBRANCH  21  25
BRANCH  22  27
ATOM     27  O   LIG A   1      -5.448   5.663 118.842  0.00  0.00    -0.503 OA
ATOM     28  H   LIG A   1      -5.055   6.438 119.292  0.00  0.00    +0.292 HD
ENDBRANCH  22  27
ENDBRANCH   6  19
TORSDOF 6
ENDMDL
MODEL 2
REMARK VINA RESULT:      -7.4      6.267      9.676
REMARK  Name = NuBBE_926
REMARK  9 active torsions:
REMARK  status: ('A' for Active; 'I' for Inactive)
REMARK    1  A    between atoms: O_1  and  C_2
REMARK    2  A    between atoms: O_1  and  C_3
REMARK    3  A    between atoms: C_5  and  C_11
REMARK    4  A    between atoms: C_8  and  O_9
REMARK    5  A    between atoms: O_9  and  C_10
REMARK    6  A    between atoms: C_19  and  C_23
REMARK    7  A    between atoms: C_25  and  O_26
REMARK    8  A    between atoms: O_26  and  C_27
REMARK    9  A    between atoms: C_28  and  O_31
REMARK                            x       y       z     vdW  Elec       q    Type
REMARK                         _______ _______ _______ _____ _____    ______ ____
ROOT
ATOM      1  C   LIG A   1      -9.526   5.912 131.902  0.00  0.00    +0.154 C 
ATOM      2  C   LIG A   1      -9.477   4.380 131.763  0.00  0.00    +0.056 C 
ATOM      3  C   LIG A   1      -8.064   4.107 131.303  0.00  0.00    +0.056 C 
ATOM      4  C   LIG A   1      -7.294   5.316 131.776  0.00  0.00    +0.167 C 
ATOM      5  O   LIG A   1      -8.197   6.414 131.657  0.00  0.00    -0.371 OA
ATOM      6  C   LIG A   1      -8.189   4.035 129.776  0.00  0.00    +0.154 C 
ATOM      7  O   LIG A   1      -9.584   3.842 129.467  0.00  0.00    -0.371 OA
ATOM      8  C   LIG A   1     -10.311   3.721 130.689  0.00  0.00    +0.167 C 
ENDROOT
BRANCH   1  11
ATOM      9  C   LIG A   1     -11.005   7.956 129.048  0.00  0.00    +0.162 A 
ATOM     10  C   LIG A   1     -10.122   7.258 129.882  0.00  0.00    +0.055 A 
ATOM     11  C   LIG A   1     -10.540   6.670 131.084  0.00  0.00    -0.015 A 
ATOM     12  C   LIG A   1     -11.873   6.818 131.468  0.00  0.00    +0.010 A 
ATOM     13  C   LIG A   1     -12.767   7.516 130.654  0.00  0.00    +0.050 A 
ATOM     14  C   LIG A   1     -12.356   8.063 129.432  0.00  0.00    +0.162 A 
BRANCH   9  15
ATOM     15  O   LIG A   1     -10.602   8.554 127.880  0.00  0.00    -0.491 OA
ATOM     16  C   LIG A   1     -10.790   7.829 126.671  0.00  0.00    +0.277 C 
ENDBRANCH   9  15
BRANCH  14  17
ATOM     17  O   LIG A   1     -13.354   8.702 128.747  0.00  0.00    -0.491 OA
ATOM     18  C   LIG A   1     -13.497  10.095 128.998  0.00  0.00    +0.277 C 
ENDBRANCH  14  17
ENDBRANCH   1  11
BRANCH   6  19
ATOM     19  C   LIG A   1      -7.359   2.910 129.186  0.00  0.00    -0.015 A 
ATOM     20  C   LIG A   1      -6.174   3.205 128.492  0.00  0.00    +0.055 A 
ATOM     21  C   LIG A   1      -5.392   2.180 127.952  0.00  0.00    +0.162 A 
ATOM     22  C   LIG A   1      -5.804   0.853 128.121  0.00  0.00    +0.159 A 
ATOM     23  C   LIG A   1      -6.965   0.537 128.811  0.00  0.00    +0.049 A 
ATOM     24  C   LIG A   1      -7.739   1.566 129.343  0.00  0.00    +0.010 A 
BRANCH  21  25
ATOM     25  O   LIG A   1      -4.222   2.343 127.252  0.00  0.00    -0.491 OA
ATOM     26  C   LIG A   1      -3.198   3.084 127.905  0.00  0.00    +0.277 C 
ENDBRANCH  21  25
BRANCH  22  27
ATOM     27  O   LIG A   1      -5.060  -0.176 127.612  0.00  0.00    -0.503 OA
ATOM     28  H   LIG A   1      -4.528   0.229 126.898  0.00  0.00    +0.292 HD
ENDBRANCH  22  27
ENDBRANCH   6  19
TORSDOF 6
ENDMDL
MODEL 3
REMARK VINA RESULT:      -7.3      5.935      9.357
REMARK  Name = NuBBE_926
REMARK  9 active torsions:
REMARK  status: ('A' for Active; 'I' for Inactive)
REMARK    1  A    between atoms: O_1  and  C_2
REMARK    2  A    between atoms: O_1  and  C_3
REMARK    3  A    between atoms: C_5  and  C_11
REMARK    4  A    between atoms: C_8  and  O_9
REMARK    5  A    between atoms: O_9  and  C_10
REMARK    6  A    between atoms: C_19  and  C_23
REMARK    7  A    between atoms: C_25  and  O_26
REMARK    8  A    between atoms: O_26  and  C_27
REMARK    9  A    between atoms: C_28  and  O_31
REMARK                            x       y       z     vdW  Elec       q    Type
REMARK                         _______ _______ _______ _____ _____    ______ ____
ROOT
ATOM      1  C   LIG A   1      -9.178   5.476 131.684  0.00  0.00    +0.154 C 
ATOM      2  C   LIG A   1      -9.435   3.959 131.689  0.00  0.00    +0.056 C 
ATOM      3  C   LIG A   1      -8.251   3.392 130.942  0.00  0.00    +0.056 C 
ATOM      4  C   LIG A   1      -7.187   4.451 131.101  0.00  0.00    +0.167 C 
ATOM      5  O   LIG A   1      -7.884   5.696 131.088  0.00  0.00    -0.371 OA
ATOM      6  C   LIG A   1      -8.761   3.265 129.501  0.00  0.00    +0.154 C 
ATOM      7  O   LIG A   1     -10.200   3.331 129.546  0.00  0.00    -0.371 OA
ATOM      8  C   LIG A   1     -10.612   3.419 130.910  0.00  0.00    +0.167 C 
ENDROOT
BRANCH   1  11
ATOM      9  C   LIG A   1     -10.806   7.847 129.185  0.00  0.00    +0.162 A 
ATOM     10  C   LIG A   1      -9.893   7.018 129.852  0.00  0.00    +0.055 A 
ATOM     11  C   LIG A   1     -10.213   6.373 131.054  0.00  0.00    -0.015 A 
ATOM     12  C   LIG A   1     -11.472   6.594 131.613  0.00  0.00    +0.010 A 
ATOM     13  C   LIG A   1     -12.393   7.422 130.967  0.00  0.00    +0.050 A 
ATOM     14  C   LIG A   1     -12.086   8.028 129.743  0.00  0.00    +0.162 A 
BRANCH   9  15
ATOM     15  O   LIG A   1     -10.495   8.500 128.020  0.00  0.00    -0.491 OA
ATOM     16  C   LIG A   1     -10.844   7.865 126.796  0.00  0.00    +0.277 C 
ENDBRANCH   9  15
BRANCH  14  17
ATOM     17  O   LIG A   1     -13.100   8.795 129.235  0.00  0.00    -0.491 OA
ATOM     18  C   LIG A   1     -13.166  10.138 129.699  0.00  0.00    +0.277 C 
ENDBRANCH  14  17
ENDBRANCH   1  11
BRANCH   6  19
ATOM     19  C   LIG A   1      -8.313   1.970 128.848  0.00  0.00    -0.015 A 
ATOM     20  C   LIG A   1      -8.231   1.884 127.448  0.00  0.00    +0.055 A 
ATOM     21  C   LIG A   1      -7.810   0.703 126.832  0.00  0.00    +0.162 A 
ATOM     22  C   LIG A   1      -7.464  -0.392 127.631  0.00  0.00    +0.159 A 
ATOM     23  C   LIG A   1      -7.528  -0.328 129.015  0.00  0.00    +0.049 A 
ATOM     24  C   LIG A   1      -7.951   0.854 129.621  0.00  0.00    +0.010 A 
BRANCH  21  25
ATOM     25  O   LIG A   1      -7.695   0.497 125.479  0.00  0.00    -0.491 OA
ATOM     26  C   LIG A   1      -7.219   1.599 124.715  0.00  0.00    +0.277 C 
ENDBRANCH  21  25
BRANCH  22  27
ATOM     27  O   LIG A   1      -7.042  -1.562 127.062  0.00  0.00    -0.503 OA
ATOM     28  H   LIG A   1      -7.856  -1.983 126.721  0.00  0.00    +0.292 HD
ENDBRANCH  22  27
ENDBRANCH   6  19
TORSDOF 6
ENDMDL
MODEL 4
REMARK VINA RESULT:      -7.3      5.979      9.871
REMARK  Name = NuBBE_926
REMARK  9 active torsions:
REMARK  status: ('A' for Active; 'I' for Inactive)
REMARK    1  A    between atoms: O_1  and  C_2
REMARK    2  A    between atoms: O_1  and  C_3
REMARK    3  A    between atoms: C_5  and  C_11
REMARK    4  A    between atoms: C_8  and  O_9
REMARK    5  A    between atoms: O_9  and  C_10
REMARK    6  A    between atoms: C_19  and  C_23
REMARK    7  A    between atoms: C_25  and  O_26
REMARK    8  A    between atoms: O_26  and  C_27
REMARK    9  A    between atoms: C_28  and  O_31
REMARK                            x       y       z     vdW  Elec       q    Type
REMARK                         _______ _______ _______ _____ _____    ______ ____
ROOT
ATOM      1  C   LIG A   1      -9.281   5.510 131.726  0.00  0.00    +0.154 C 
ATOM      2  C   LIG A   1      -9.531   3.992 131.716  0.00  0.00    +0.056 C 
ATOM      3  C   LIG A   1      -8.322   3.435 131.002  0.00  0.00    +0.056 C 
ATOM      4  C   LIG A   1      -7.269   4.498 131.197  0.00  0.00    +0.167 C 
ATOM      5  O   LIG A   1      -7.971   5.740 131.169  0.00  0.00    -0.371 OA
ATOM      6  C   LIG A   1      -8.790   3.312 129.546  0.00  0.00    +0.154 C 
ATOM      7  O   LIG A   1     -10.229   3.370 129.549  0.00  0.00    -0.371 OA
ATOM      8  C   LIG A   1     -10.681   3.450 130.901  0.00  0.00    +0.167 C 
ENDROOT
BRANCH   1  11
ATOM      9  C   LIG A   1     -10.860   7.857 129.174  0.00  0.00    +0.162 A 
ATOM     10  C   LIG A   1      -9.962   7.032 129.864  0.00  0.00    +0.055 A 
ATOM     11  C   LIG A   1     -10.302   6.405 131.070  0.00  0.00    -0.015 A 
ATOM     12  C   LIG A   1     -11.567   6.642 131.609  0.00  0.00    +0.010 A 
ATOM     13  C   LIG A   1     -12.474   7.466 130.940  0.00  0.00    +0.050 A 
ATOM     14  C   LIG A   1     -12.146   8.054 129.712  0.00  0.00    +0.162 A 
BRANCH   9  15
ATOM     15  O   LIG A   1     -10.530   8.493 128.004  0.00  0.00    -0.491 OA
ATOM     16  C   LIG A   1     -10.882   7.852 126.784  0.00  0.00    +0.277 C 
ENDBRANCH   9  15
BRANCH  14  17
ATOM     17  O   LIG A   1     -13.149   8.820 129.180  0.00  0.00    -0.491 OA
ATOM     18  C   LIG A   1     -13.199  10.176 129.609  0.00  0.00    +0.277 C 
ENDBRANCH  14  17
ENDBRANCH   1  11
BRANCH   6  19
ATOM     19  C   LIG A   1      -8.317   2.023 128.900  0.00  0.00    -0.015 A 
ATOM     20  C   LIG A   1      -7.757   1.006 129.693  0.00  0.00    +0.055 A 
ATOM     21  C   LIG A   1      -7.327  -0.191 129.115  0.00  0.00    +0.162 A 
ATOM     22  C   LIG A   1      -7.469  -0.366 127.734  0.00  0.00    +0.159 A 
ATOM     23  C   LIG A   1      -8.027   0.619 126.933  0.00  0.00    +0.049 A 
ATOM     24  C   LIG A   1      -8.450   1.811 127.517  0.00  0.00    +0.010 A 
BRANCH  21  25
ATOM     25  O   LIG A   1      -6.762  -1.250 129.782  0.00  0.00    -0.491 OA
ATOM     26  C   LIG A   1      -7.635  -2.002 130.618  0.00  0.00    +0.277 C 
ENDBRANCH  21  25
BRANCH  22  27
ATOM     27  O   LIG A   1      -7.064  -1.527 127.135  0.00  0.00    -0.503 OA
ATOM     28  H   LIG A   1      -7.449  -2.240 127.684  0.00  0.00    +0.292 HD
ENDBRANCH  22  27
ENDBRANCH   6  19
TORSDOF 6
ENDMDL
MODEL 5
REMARK VINA RESULT:      -7.2      3.392      5.876
REMARK  Name = NuBBE_926
REMARK  9 active torsions:
REMARK  status: ('A' for Active; 'I' for Inactive)
REMARK    1  A    between atoms: O_1  and  C_2
REMARK    2  A    between atoms: O_1  and  C_3
REMARK    3  A    between atoms: C_5  and  C_11
REMARK    4  A    between atoms: C_8  and  O_9
REMARK    5  A    between atoms: O_9  and  C_10
REMARK    6  A    between atoms: C_19  and  C_23
REMARK    7  A    between atoms: C_25  and  O_26
REMARK    8  A    between atoms: O_26  and  C_27
REMARK    9  A    between atoms: C_28  and  O_31
REMARK                            x       y       z     vdW  Elec       q    Type
REMARK                         _______ _______ _______ _____ _____    ______ ____
ROOT
ATOM      1  C   LIG A   1      -7.630   2.783 123.047  0.00  0.00    +0.154 C 
ATOM      2  C   LIG A   1      -7.629   3.569 124.369  0.00  0.00    +0.056 C 
ATOM      3  C   LIG A   1      -6.235   4.146 124.443  0.00  0.00    +0.056 C 
ATOM      4  C   LIG A   1      -5.785   4.179 123.003  0.00  0.00    +0.167 C 
ATOM      5  O   LIG A   1      -6.367   3.026 122.395  0.00  0.00    -0.371 OA
ATOM      6  C   LIG A   1      -5.466   3.124 125.290  0.00  0.00    +0.154 C 
ATOM      7  O   LIG A   1      -6.440   2.314 125.976  0.00  0.00    -0.371 OA
ATOM      8  C   LIG A   1      -7.744   2.806 125.668  0.00  0.00    +0.167 C 
ENDROOT
BRANCH   1  11
ATOM      9  C   LIG A   1      -7.038  -0.977 123.214  0.00  0.00    +0.162 A 
ATOM     10  C   LIG A   1      -6.851   0.410 123.140  0.00  0.00    +0.055 A 
ATOM     11  C   LIG A   1      -7.927   1.306 123.096  0.00  0.00    -0.015 A 
ATOM     12  C   LIG A   1      -9.223   0.788 123.094  0.00  0.00    +0.010 A 
ATOM     13  C   LIG A   1      -9.430  -0.591 123.161  0.00  0.00    +0.050 A 
ATOM     14  C   LIG A   1      -8.352  -1.480 123.251  0.00  0.00    +0.162 A 
BRANCH   9  15
ATOM     15  O   LIG A   1      -5.991  -1.863 123.236  0.00  0.00    -0.491 OA
ATOM     16  C   LIG A   1      -5.478  -2.245 124.506  0.00  0.00    +0.277 C 
ENDBRANCH   9  15
BRANCH  14  17
ATOM     17  O   LIG A   1      -8.724  -2.796 123.325  0.00  0.00    -0.491 OA
ATOM     18  C   LIG A   1      -9.173  -3.253 124.595  0.00  0.00    +0.277 C 
ENDBRANCH  14  17
ENDBRANCH   1  11
BRANCH   6  19
ATOM     19  C   LIG A   1      -4.538   3.791 126.288  0.00  0.00    -0.015 A 
ATOM     20  C   LIG A   1      -5.031   4.793 127.142  0.00  0.00    +0.055 A 
ATOM     21  C   LIG A   1      -4.192   5.408 128.074  0.00  0.00    +0.162 A 
ATOM     22  C   LIG A   1      -2.854   5.008 128.150  0.00  0.00    +0.159 A 
ATOM     23  C   LIG A   1      -2.347   4.015 127.324  0.00  0.00    +0.049 A 
ATOM     24  C   LIG A   1      -3.190   3.409 126.396  0.00  0.00    +0.010 A 
BRANCH  21  25
ATOM     25  O   LIG A   1      -4.556   6.398 128.955  0.00  0.00    -0.491 OA
ATOM     26  C   LIG A   1      -5.174   5.967 130.162  0.00  0.00    +0.277 C 
ENDBRANCH  21  25
BRANCH  22  27
ATOM     27  O   LIG A   1      -2.005   5.585 129.055  0.00  0.00    -0.503 OA
ATOM     28  H   LIG A   1      -1.160   5.689 128.575  0.00  0.00    +0.292 HD
ENDBRANCH  22  27
ENDBRANCH   6  19
TORSDOF 6
ENDMDL
MODEL 6
REMARK VINA RESULT:      -7.0      1.982      4.244
REMARK  Name = NuBBE_926
REMARK  9 active torsions:
REMARK  status: ('A' for Active; 'I' for Inactive)
REMARK    1  A    between atoms: O_1  and  C_2
REMARK    2  A    between atoms: O_1  and  C_3
REMARK    3  A    between atoms: C_5  and  C_11
REMARK    4  A    between atoms: C_8  and  O_9
REMARK    5  A    between atoms: O_9  and  C_10
REMARK    6  A    between atoms: C_19  and  C_23
REMARK    7  A    between atoms: C_25  and  O_26
REMARK    8  A    between atoms: O_26  and  C_27
REMARK    9  A    between atoms: C_28  and  O_31
REMARK                            x       y       z     vdW  Elec       q    Type
REMARK                         _______ _______ _______ _____ _____    ______ ____
ROOT
ATOM      1  C   LIG A   1      -6.894  -2.724 126.184  0.00  0.00    +0.154 C 
ATOM      2  C   LIG A   1      -8.023  -2.231 125.262  0.00  0.00    +0.056 C 
ATOM      3  C   LIG A   1      -7.324  -1.284 124.315  0.00  0.00    +0.056 C 
ATOM      4  C   LIG A   1      -5.886  -1.740 124.348  0.00  0.00    +0.167 C 
ATOM      5  O   LIG A   1      -5.656  -2.177 125.687  0.00  0.00    -0.371 OA
ATOM      6  C   LIG A   1      -7.534   0.091 124.961  0.00  0.00    +0.154 C 
ATOM      7  O   LIG A   1      -8.608  -0.039 125.913  0.00  0.00    -0.371 OA
ATOM      8  C   LIG A   1      -9.118  -1.371 125.848  0.00  0.00    +0.167 C 
ENDROOT
BRANCH   1  11
ATOM      9  C   LIG A   1      -6.385  -1.112 129.598  0.00  0.00    +0.162 A 
ATOM     10  C   LIG A   1      -6.299  -1.426 128.235  0.00  0.00    +0.055 A 
ATOM     11  C   LIG A   1      -7.026  -2.479 127.666  0.00  0.00    -0.015 A 
ATOM     12  C   LIG A   1      -7.834  -3.255 128.498  0.00  0.00    +0.010 A 
ATOM     13  C   LIG A   1      -7.928  -2.962 129.860  0.00  0.00    +0.050 A 
ATOM     14  C   LIG A   1      -7.235  -1.881 130.416  0.00  0.00    +0.162 A 
BRANCH   9  15
ATOM     15  O   LIG A   1      -5.660  -0.097 130.170  0.00  0.00    -0.491 OA
ATOM     16  C   LIG A   1      -4.314  -0.372 130.533  0.00  0.00    +0.277 C 
ENDBRANCH   9  15
BRANCH  14  17
ATOM     17  O   LIG A   1      -7.445  -1.720 131.759  0.00  0.00    -0.491 OA
ATOM     18  C   LIG A   1      -7.466  -2.910 132.539  0.00  0.00    +0.277 C 
ENDBRANCH  14  17
ENDBRANCH   1  11
BRANCH   6  19
ATOM     19  C   LIG A   1      -7.866   1.161 123.937  0.00  0.00    -0.015 A 
ATOM     20  C   LIG A   1      -6.869   2.055 123.512  0.00  0.00    +0.055 A 
ATOM     21  C   LIG A   1      -7.156   3.039 122.561  0.00  0.00    +0.162 A 
ATOM     22  C   LIG A   1      -8.449   3.114 122.033  0.00  0.00    +0.159 A 
ATOM     23  C   LIG A   1      -9.446   2.236 122.430  0.00  0.00    +0.049 A 
ATOM     24  C   LIG A   1      -9.152   1.261 123.381  0.00  0.00    +0.010 A 
BRANCH  21  25
ATOM     25  O   LIG A   1      -6.271   3.968 122.073  0.00  0.00    -0.491 OA
ATOM     26  C   LIG A   1      -5.389   3.519 121.051  0.00  0.00    +0.277 C 
ENDBRANCH  21  25
BRANCH  22  27
ATOM     27  O   LIG A   1      -8.764   4.060 121.096  0.00  0.00    -0.503 OA
ATOM     28  H   LIG A   1      -9.171   4.790 121.604  0.00  0.00    +0.292 HD
ENDBRANCH  22  27
ENDBRANCH   6  19
TORSDOF 6
ENDMDL
MODEL 7
REMARK VINA RESULT:      -7.0      2.176      3.694
REMARK  Name = NuBBE_926
REMARK  9 active torsions:
REMARK  status: ('A' for Active; 'I' for Inactive)
REMARK    1  A    between atoms: O_1  and  C_2
REMARK    2  A    between atoms: O_1  and  C_3
REMARK    3  A    between atoms: C_5  and  C_11
REMARK    4  A    between atoms: C_8  and  O_9
REMARK    5  A    between atoms: O_9  and  C_10
REMARK    6  A    between atoms: C_19  and  C_23
REMARK    7  A    between atoms: C_25  and  O_26
REMARK    8  A    between atoms: O_26  and  C_27
REMARK    9  A    between atoms: C_28  and  O_31
REMARK                            x       y       z     vdW  Elec       q    Type
REMARK                         _______ _______ _______ _____ _____    ______ ____
ROOT
ATOM      1  C   LIG A   1      -8.178  -2.336 126.508  0.00  0.00    +0.154 C 
ATOM      2  C   LIG A   1      -8.692  -0.910 126.247  0.00  0.00    +0.056 C 
ATOM      3  C   LIG A   1      -7.925  -0.470 125.023  0.00  0.00    +0.056 C 
ATOM      4  C   LIG A   1      -7.535  -1.768 124.359  0.00  0.00    +0.167 C 
ATOM      5  O   LIG A   1      -7.290  -2.684 125.426  0.00  0.00    -0.371 OA
ATOM      6  C   LIG A   1      -6.726   0.291 125.603  0.00  0.00    +0.154 C 
ATOM      7  O   LIG A   1      -7.044   0.616 126.971  0.00  0.00    -0.371 OA
ATOM      8  C   LIG A   1      -8.371   0.173 127.250  0.00  0.00    +0.167 C 
ENDROOT
BRANCH   1  11
ATOM      9  C   LIG A   1      -5.473  -2.680 129.169  0.00  0.00    +0.162 A 
ATOM     10  C   LIG A   1      -6.148  -2.457 127.962  0.00  0.00    +0.055 A 
ATOM     11  C   LIG A   1      -7.533  -2.630 127.839  0.00  0.00    -0.015 A 
ATOM     12  C   LIG A   1      -8.249  -3.069 128.953  0.00  0.00    +0.010 A 
ATOM     13  C   LIG A   1      -7.594  -3.303 130.163  0.00  0.00    +0.050 A 
ATOM     14  C   LIG A   1      -6.217  -3.085 130.293  0.00  0.00    +0.162 A 
BRANCH   9  15
ATOM     15  O   LIG A   1      -4.115  -2.534 129.294  0.00  0.00    -0.491 OA
ATOM     16  C   LIG A   1      -3.310  -3.695 129.132  0.00  0.00    +0.277 C 
ENDBRANCH   9  15
BRANCH  14  17
ATOM     17  O   LIG A   1      -5.731  -3.347 131.547  0.00  0.00    -0.491 OA
ATOM     18  C   LIG A   1      -5.594  -4.720 131.894  0.00  0.00    +0.277 C 
ENDBRANCH  14  17
ENDBRANCH   1  11
BRANCH   6  19
ATOM     19  C   LIG A   1      -6.417   1.554 124.820  0.00  0.00    -0.015 A 
ATOM     20  C   LIG A   1      -6.933   1.718 123.524  0.00  0.00    +0.055 A 
ATOM     21  C   LIG A   1      -6.666   2.880 122.794  0.00  0.00    +0.162 A 
ATOM     22  C   LIG A   1      -5.882   3.881 123.377  0.00  0.00    +0.159 A 
ATOM     23  C   LIG A   1      -5.369   3.745 124.659  0.00  0.00    +0.049 A 
ATOM     24  C   LIG A   1      -5.638   2.582 125.378  0.00  0.00    +0.010 A 
BRANCH  21  25
ATOM     25  O   LIG A   1      -7.109   3.151 121.523  0.00  0.00    -0.491 OA
ATOM     26  C   LIG A   1      -8.494   3.446 121.391  0.00  0.00    +0.277 C 
ENDBRANCH  21  25
BRANCH  22  27
ATOM     27  O   LIG A   1      -5.605   5.033 122.695  0.00  0.00    -0.503 OA
ATOM     28  H   LIG A   1      -5.308   5.665 123.379  0.00  0.00    +0.292 HD
ENDBRANCH  22  27
ENDBRANCH   6  19
TORSDOF 6
ENDMDL
MODEL 8
REMARK VINA RESULT:      -7.0      2.835      3.809
REMARK  Name = NuBBE_926
REMARK  9 active torsions:
REMARK  status: ('A' for Active; 'I' for Inactive)
REMARK    1  A    between atoms: O_1  and  C_2
REMARK    2  A    between atoms: O_1  and  C_3
REMARK    3  A    between atoms: C_5  and  C_11
REMARK    4  A    between atoms: C_8  and  O_9
REMARK    5  A    between atoms: O_9  and  C_10
REMARK    6  A    between atoms: C_19  and  C_23
REMARK    7  A    between atoms: C_25  and  O_26
REMARK    8  A    between atoms: O_26  and  C_27
REMARK    9  A    between atoms: C_28  and  O_31
REMARK                            x       y       z     vdW  Elec       q    Type
REMARK                         _______ _______ _______ _____ _____    ______ ____
ROOT
ATOM      1  C   LIG A   1      -7.317   1.671 125.803  0.00  0.00    +0.154 C 
ATOM      2  C   LIG A   1      -7.900   2.790 124.922  0.00  0.00    +0.056 C 
ATOM      3  C   LIG A   1      -7.417   2.441 123.534  0.00  0.00    +0.056 C 
ATOM      4  C   LIG A   1      -7.156   0.957 123.608  0.00  0.00    +0.167 C 
ATOM      5  O   LIG A   1      -6.674   0.720 124.931  0.00  0.00    -0.371 OA
ATOM      6  C   LIG A   1      -6.136   3.270 123.379  0.00  0.00    +0.154 C 
ATOM      7  O   LIG A   1      -6.161   4.295 124.391  0.00  0.00    -0.371 OA
ATOM      8  C   LIG A   1      -7.391   4.201 125.108  0.00  0.00    +0.167 C 
ENDROOT
BRANCH   1  11
ATOM      9  C   LIG A   1      -6.193   2.837 129.252  0.00  0.00    +0.162 A 
ATOM     10  C   LIG A   1      -6.971   2.484 128.141  0.00  0.00    +0.055 A 
ATOM     11  C   LIG A   1      -6.399   2.059 126.935  0.00  0.00    -0.015 A 
ATOM     12  C   LIG A   1      -5.008   2.019 126.837  0.00  0.00    +0.010 A 
ATOM     13  C   LIG A   1      -4.215   2.373 127.930  0.00  0.00    +0.050 A 
ATOM     14  C   LIG A   1      -4.792   2.753 129.148  0.00  0.00    +0.162 A 
BRANCH   9  15
ATOM     15  O   LIG A   1      -6.743   3.275 130.430  0.00  0.00    -0.491 OA
ATOM     16  C   LIG A   1      -7.257   4.600 130.464  0.00  0.00    +0.277 C 
ENDBRANCH   9  15
BRANCH  14  17
ATOM     17  O   LIG A   1      -3.878   3.054 130.123  0.00  0.00    -0.491 OA
ATOM     18  C   LIG A   1      -3.377   4.385 130.126  0.00  0.00    +0.277 C 
ENDBRANCH  14  17
ENDBRANCH   1  11
BRANCH   6  19
ATOM     19  C   LIG A   1      -6.021   3.893 122.000  0.00  0.00    -0.015 A 
ATOM     20  C   LIG A   1      -7.078   3.765 121.083  0.00  0.00    +0.055 A 
ATOM     21  C   LIG A   1      -6.992   4.343 119.814  0.00  0.00    +0.162 A 
ATOM     22  C   LIG A   1      -5.840   5.058 119.472  0.00  0.00    +0.159 A 
ATOM     23  C   LIG A   1      -4.788   5.207 120.363  0.00  0.00    +0.049 A 
ATOM     24  C   LIG A   1      -4.881   4.625 121.626  0.00  0.00    +0.010 A 
BRANCH  21  25
ATOM     25  O   LIG A   1      -7.953   4.281 118.835  0.00  0.00    -0.491 OA
ATOM     26  C   LIG A   1      -9.303   4.252 119.282  0.00  0.00    +0.277 C 
ENDBRANCH  21  25
BRANCH  22  27
ATOM     27  O   LIG A   1      -5.724   5.642 118.240  0.00  0.00    -0.503 OA
ATOM     28  H   LIG A   1      -6.589   5.491 117.808  0.00  0.00    +0.292 HD
ENDBRANCH  22  27
ENDBRANCH   6  19
TORSDOF 6
ENDMDL
MODEL 9
REMARK VINA RESULT:      -6.9      6.748      9.328
REMARK  Name = NuBBE_926
REMARK  9 active torsions:
REMARK  status: ('A' for Active; 'I' for Inactive)
REMARK    1  A    between atoms: O_1  and  C_2
REMARK    2  A    between atoms: O_1  and  C_3
REMARK    3  A    between atoms: C_5  and  C_11
REMARK    4  A    between atoms: C_8  and  O_9
REMARK    5  A    between atoms: O_9  and  C_10
REMARK    6  A    between atoms: C_19  and  C_23
REMARK    7  A    between atoms: C_25  and  O_26
REMARK    8  A    between atoms: O_26  and  C_27
REMARK    9  A    between atoms: C_28  and  O_31
REMARK                            x       y       z     vdW  Elec       q    Type
REMARK                         _______ _______ _______ _____ _____    ______ ____
ROOT
ATOM      1  C   LIG A   1      -4.945   4.777 131.844  0.00  0.00    +0.154 C 
ATOM      2  C   LIG A   1      -5.767   6.058 132.072  0.00  0.00    +0.056 C 
ATOM      3  C   LIG A   1      -7.148   5.543 132.402  0.00  0.00    +0.056 C 
ATOM      4  C   LIG A   1      -6.897   4.146 132.915  0.00  0.00    +0.167 C 
ATOM      5  O   LIG A   1      -5.793   3.654 132.155  0.00  0.00    -0.371 OA
ATOM      6  C   LIG A   1      -7.874   5.565 131.051  0.00  0.00    +0.154 C 
ATOM      7  O   LIG A   1      -7.118   6.419 130.170  0.00  0.00    -0.371 OA
ATOM      8  C   LIG A   1      -6.024   6.975 130.899  0.00  0.00    +0.167 C 
ENDROOT
BRANCH   1  11
ATOM      9  C   LIG A   1      -4.373   3.558 128.280  0.00  0.00    +0.162 A 
ATOM     10  C   LIG A   1      -4.908   3.768 129.558  0.00  0.00    +0.055 A 
ATOM     11  C   LIG A   1      -4.279   4.586 130.505  0.00  0.00    -0.015 A 
ATOM     12  C   LIG A   1      -3.064   5.182 130.166  0.00  0.00    +0.010 A 
ATOM     13  C   LIG A   1      -2.511   4.980 128.900  0.00  0.00    +0.050 A 
ATOM     14  C   LIG A   1      -3.166   4.199 127.941  0.00  0.00    +0.162 A 
BRANCH   9  15
ATOM     15  O   LIG A   1      -4.970   2.742 127.353  0.00  0.00    -0.491 OA
ATOM     16  C   LIG A   1      -5.992   3.305 126.542  0.00  0.00    +0.277 C 
ENDBRANCH   9  15
BRANCH  14  17
ATOM     17  O   LIG A   1      -2.500   4.112 126.748  0.00  0.00    -0.491 OA
ATOM     18  C   LIG A   1      -1.611   3.011 126.601  0.00  0.00    +0.277 C 
ENDBRANCH  14  17
ENDBRANCH   1  11
BRANCH   6  19
ATOM     19  C   LIG A   1      -9.300   6.068 131.175  0.00  0.00    -0.015 A 
ATOM     20  C   LIG A   1      -9.917   6.702 130.083  0.00  0.00    +0.055 A 
ATOM     21  C   LIG A   1     -11.234   7.161 130.179  0.00  0.00    +0.162 A 
ATOM     22  C   LIG A   1     -11.931   6.973 131.377  0.00  0.00    +0.159 A 
ATOM     23  C   LIG A   1     -11.347   6.343 132.465  0.00  0.00    +0.049 A 
ATOM     24  C   LIG A   1     -10.033   5.891 132.361  0.00  0.00    +0.010 A 
BRANCH  21  25
ATOM     25  O   LIG A   1     -11.938   7.796 129.186  0.00  0.00    -0.491 OA
ATOM     26  C   LIG A   1     -12.305   6.997 128.067  0.00  0.00    +0.277 C 
ENDBRANCH  21  25
BRANCH  22  27
ATOM     27  O   LIG A   1     -13.223   7.405 131.503  0.00  0.00    -0.503 OA
ATOM     28  H   LIG A   1     -13.168   8.197 132.074  0.00  0.00    +0.292 HD
ENDBRANCH  22  27
ENDBRANCH   6  19
TORSDOF 6
ENDMDL
