MODEL 1
REMARK VINA RESULT:      -7.6      0.000      0.000
REMARK  Name = NuBBE_2441
REMARK  11 active torsions:
REMARK  status: ('A' for Active; 'I' for Inactive)
REMARK    1  A    between atoms: O_1  and  C_2
REMARK    2  A    between atoms: O_1  and  C_7
REMARK    3  A    between atoms: C_2  and  C_3
REMARK    4  A    between atoms: C_4  and  C_5
REMARK    5  A    between atoms: C_4  and  C_6
REMARK    6  A    between atoms: C_11  and  C_15
REMARK    7  A    between atoms: C_12  and  O_13
REMARK    8  A    between atoms: O_13  and  C_14
REMARK    9  A    between atoms: C_15  and  C_16
REMARK   10  A    between atoms: C_17  and  C_18
REMARK   11  A    between atoms: C_17  and  C_19
REMARK                            x       y       z     vdW  Elec       q    Type
REMARK                         _______ _______ _______ _____ _____    ______ ____
ROOT
ATOM      1  C   LIG A   1      -6.165   2.810 124.579  0.00  0.00    +0.206 A 
ATOM      2  C   LIG A   1      -5.364   3.116 125.693  0.00  0.00    +0.184 A 
ATOM      3  C   LIG A   1      -5.005   2.153 126.639  0.00  0.00    +0.022 A 
ATOM      4  C   LIG A   1      -5.469   0.848 126.498  0.00  0.00    +0.019 A 
ATOM      5  C   LIG A   1      -6.270   0.486 125.403  0.00  0.00    +0.002 A 
ATOM      6  C   LIG A   1      -6.581   1.464 124.415  0.00  0.00    +0.169 A 
ATOM      7  C   LIG A   1      -4.184   2.528 127.780  0.00  0.00    +0.019 A 
ATOM      8  C   LIG A   1      -3.889   3.816 127.990  0.00  0.00    +0.092 A 
ATOM      9  C   LIG A   1      -4.337   4.862 127.071  0.00  0.00    +0.337 A 
ATOM     10  O   LIG A   1      -4.179   6.055 127.336  0.00  0.00    -0.245 OA
ATOM     11  O   LIG A   1      -4.909   4.439 125.890  0.00  0.00    -0.418 OA
ENDROOT
BRANCH   6  12
ATOM     12  O   LIG A   1      -7.344   0.993 123.372  0.00  0.00    -0.491 OA
ATOM     13  C   LIG A   1      -8.743   1.261 123.394  0.00  0.00    +0.277 C 
ENDBRANCH   6  12
BRANCH   1  14
ATOM     14  O   LIG A   1      -6.556   3.726 123.628  0.00  0.00    -0.481 OA
BRANCH  14  15
ATOM     15  C   LIG A   1      -5.757   3.887 122.453  0.00  0.00    +0.257 C 
BRANCH  15  16
ATOM     16  C   LIG A   1      -6.664   3.862 121.254  0.00  0.00    +0.012 C 
ATOM     17  C   LIG A   1      -6.467   4.448 120.056  0.00  0.00    -0.076 C 
ATOM     18  C   LIG A   1      -5.300   5.331 119.715  0.00  0.00    +0.038 C 
ATOM     19  C   LIG A   1      -7.443   4.241 118.928  0.00  0.00    +0.038 C 
ENDBRANCH  15  16
ENDBRANCH  14  15
ENDBRANCH   1  14
BRANCH   5  20
ATOM     20  C   LIG A   1      -6.814  -0.941 125.364  0.00  0.00    +0.066 C 
BRANCH  20  21
ATOM     21  C   LIG A   1      -5.800  -1.978 124.934  0.00  0.00    -0.023 C 
ATOM     22  C   LIG A   1      -5.549  -2.438 123.688  0.00  0.00    -0.079 C 
ATOM     23  C   LIG A   1      -6.301  -2.064 122.438  0.00  0.00    +0.038 C 
ATOM     24  C   LIG A   1      -4.390  -3.372 123.435  0.00  0.00    +0.038 C 
ENDBRANCH  20  21
ENDBRANCH   5  20
TORSDOF 6
ENDMDL
MODEL 2
REMARK VINA RESULT:      -7.4      1.681      5.199
REMARK  Name = NuBBE_2441
REMARK  11 active torsions:
REMARK  status: ('A' for Active; 'I' for Inactive)
REMARK    1  A    between atoms: O_1  and  C_2
REMARK    2  A    between atoms: O_1  and  C_7
REMARK    3  A    between atoms: C_2  and  C_3
REMARK    4  A    between atoms: C_4  and  C_5
REMARK    5  A    between atoms: C_4  and  C_6
REMARK    6  A    between atoms: C_11  and  C_15
REMARK    7  A    between atoms: C_12  and  O_13
REMARK    8  A    between atoms: O_13  and  C_14
REMARK    9  A    between atoms: C_15  and  C_16
REMARK   10  A    between atoms: C_17  and  C_18
REMARK   11  A    between atoms: C_17  and  C_19
REMARK                            x       y       z     vdW  Elec       q    Type
REMARK                         _______ _______ _______ _____ _____    ______ ____
ROOT
ATOM      1  C   LIG A   1      -5.582   3.561 124.747  0.00  0.00    +0.206 A 
ATOM      2  C   LIG A   1      -5.666   3.847 123.373  0.00  0.00    +0.184 A 
ATOM      3  C   LIG A   1      -6.348   3.018 122.479  0.00  0.00    +0.022 A 
ATOM      4  C   LIG A   1      -6.949   1.852 122.948  0.00  0.00    +0.019 A 
ATOM      5  C   LIG A   1      -6.898   1.519 124.312  0.00  0.00    +0.002 A 
ATOM      6  C   LIG A   1      -6.250   2.402 125.221  0.00  0.00    +0.169 A 
ATOM      7  C   LIG A   1      -6.393   3.357 121.065  0.00  0.00    +0.019 A 
ATOM      8  C   LIG A   1      -5.671   4.385 120.606  0.00  0.00    +0.092 A 
ATOM      9  C   LIG A   1      -4.865   5.213 121.503  0.00  0.00    +0.337 A 
ATOM     10  O   LIG A   1      -4.099   6.073 121.063  0.00  0.00    -0.245 OA
ATOM     11  O   LIG A   1      -5.035   5.001 122.855  0.00  0.00    -0.418 OA
ENDROOT
BRANCH   6  12
ATOM     12  O   LIG A   1      -6.287   1.993 126.534  0.00  0.00    -0.491 OA
ATOM     13  C   LIG A   1      -7.263   2.580 127.389  0.00  0.00    +0.277 C 
ENDBRANCH   6  12
BRANCH   1  14
ATOM     14  O   LIG A   1      -4.912   4.339 125.663  0.00  0.00    -0.481 OA
BRANCH  14  15
ATOM     15  C   LIG A   1      -3.585   3.969 126.046  0.00  0.00    +0.257 C 
BRANCH  15  16
ATOM     16  C   LIG A   1      -3.543   3.831 127.543  0.00  0.00    +0.012 C 
ATOM     17  C   LIG A   1      -3.100   4.729 128.445  0.00  0.00    -0.076 C 
ATOM     18  C   LIG A   1      -2.472   6.051 128.100  0.00  0.00    +0.038 C 
ATOM     19  C   LIG A   1      -3.217   4.461 129.922  0.00  0.00    +0.038 C 
ENDBRANCH  15  16
ENDBRANCH  14  15
ENDBRANCH   1  14
BRANCH   5  20
ATOM     20  C   LIG A   1      -7.502   0.181 124.736  0.00  0.00    +0.066 C 
BRANCH  20  21
ATOM     21  C   LIG A   1      -6.547  -0.989 124.634  0.00  0.00    -0.023 C 
ATOM     22  C   LIG A   1      -6.473  -1.928 123.666  0.00  0.00    -0.079 C 
ATOM     23  C   LIG A   1      -7.402  -2.061 122.488  0.00  0.00    +0.038 C 
ATOM     24  C   LIG A   1      -5.351  -2.938 123.662  0.00  0.00    +0.038 C 
ENDBRANCH  20  21
ENDBRANCH   5  20
TORSDOF 6
ENDMDL
MODEL 3
REMARK VINA RESULT:      -7.2      4.351      6.562
REMARK  Name = NuBBE_2441
REMARK  11 active torsions:
REMARK  status: ('A' for Active; 'I' for Inactive)
REMARK    1  A    between atoms: O_1  and  C_2
REMARK    2  A    between atoms: O_1  and  C_7
REMARK    3  A    between atoms: C_2  and  C_3
REMARK    4  A    between atoms: C_4  and  C_5
REMARK    5  A    between atoms: C_4  and  C_6
REMARK    6  A    between atoms: C_11  and  C_15
REMARK    7  A    between atoms: C_12  and  O_13
REMARK    8  A    between atoms: O_13  and  C_14
REMARK    9  A    between atoms: C_15  and  C_16
REMARK   10  A    between atoms: C_17  and  C_18
REMARK   11  A    between atoms: C_17  and  C_19
REMARK                            x       y       z     vdW  Elec       q    Type
REMARK                         _______ _______ _______ _____ _____    ______ ____
ROOT
ATOM      1  C   LIG A   1      -8.970  -1.919 125.996  0.00  0.00    +0.206 A 
ATOM      2  C   LIG A   1      -8.955  -0.569 125.603  0.00  0.00    +0.184 A 
ATOM      3  C   LIG A   1      -8.295   0.416 126.341  0.00  0.00    +0.022 A 
ATOM      4  C   LIG A   1      -7.646   0.066 127.522  0.00  0.00    +0.019 A 
ATOM      5  C   LIG A   1      -7.626  -1.268 127.962  0.00  0.00    +0.002 A 
ATOM      6  C   LIG A   1      -8.254  -2.271 127.169  0.00  0.00    +0.169 A 
ATOM      7  C   LIG A   1      -8.323   1.799 125.892  0.00  0.00    +0.019 A 
ATOM      8  C   LIG A   1      -9.090   2.144 124.852  0.00  0.00    +0.092 A 
ATOM      9  C   LIG A   1      -9.874   1.151 124.119  0.00  0.00    +0.337 A 
ATOM     10  O   LIG A   1     -10.680   1.488 123.249  0.00  0.00    -0.245 OA
ATOM     11  O   LIG A   1      -9.637  -0.172 124.430  0.00  0.00    -0.418 OA
ENDROOT
BRANCH   6  12
ATOM     12  O   LIG A   1      -8.147  -3.545 127.678  0.00  0.00    -0.491 OA
ATOM     13  C   LIG A   1      -9.284  -4.101 128.331  0.00  0.00    +0.277 C 
ENDBRANCH   6  12
BRANCH   1  14
ATOM     14  O   LIG A   1      -9.616  -2.922 125.311  0.00  0.00    -0.481 OA
BRANCH  14  15
ATOM     15  C   LIG A   1      -9.091  -3.349 124.051  0.00  0.00    +0.257 C 
BRANCH  15  16
ATOM     16  C   LIG A   1      -7.639  -3.694 124.233  0.00  0.00    +0.012 C 
ATOM     17  C   LIG A   1      -6.565  -3.011 123.791  0.00  0.00    -0.076 C 
ATOM     18  C   LIG A   1      -6.627  -1.777 122.935  0.00  0.00    +0.038 C 
ATOM     19  C   LIG A   1      -5.170  -3.455 124.145  0.00  0.00    +0.038 C 
ENDBRANCH  15  16
ENDBRANCH  14  15
ENDBRANCH   1  14
BRANCH   5  20
ATOM     20  C   LIG A   1      -6.971  -1.559 129.311  0.00  0.00    +0.066 C 
BRANCH  20  21
ATOM     21  C   LIG A   1      -5.548  -2.063 129.212  0.00  0.00    -0.023 C 
ATOM     22  C   LIG A   1      -5.055  -3.260 129.600  0.00  0.00    -0.079 C 
ATOM     23  C   LIG A   1      -5.821  -4.348 130.306  0.00  0.00    +0.038 C 
ATOM     24  C   LIG A   1      -3.628  -3.640 129.283  0.00  0.00    +0.038 C 
ENDBRANCH  20  21
ENDBRANCH   5  20
TORSDOF 6
ENDMDL
MODEL 4
REMARK VINA RESULT:      -7.2      2.735      2.946
REMARK  Name = NuBBE_2441
REMARK  11 active torsions:
REMARK  status: ('A' for Active; 'I' for Inactive)
REMARK    1  A    between atoms: O_1  and  C_2
REMARK    2  A    between atoms: O_1  and  C_7
REMARK    3  A    between atoms: C_2  and  C_3
REMARK    4  A    between atoms: C_4  and  C_5
REMARK    5  A    between atoms: C_4  and  C_6
REMARK    6  A    between atoms: C_11  and  C_15
REMARK    7  A    between atoms: C_12  and  O_13
REMARK    8  A    between atoms: O_13  and  C_14
REMARK    9  A    between atoms: C_15  and  C_16
REMARK   10  A    between atoms: C_17  and  C_18
REMARK   11  A    between atoms: C_17  and  C_19
REMARK                            x       y       z     vdW  Elec       q    Type
REMARK                         _______ _______ _______ _____ _____    ______ ____
ROOT
ATOM      1  C   LIG A   1      -8.628   1.326 124.869  0.00  0.00    +0.206 A 
ATOM      2  C   LIG A   1      -8.370   1.419 126.248  0.00  0.00    +0.184 A 
ATOM      3  C   LIG A   1      -8.112   0.295 127.036  0.00  0.00    +0.022 A 
ATOM      4  C   LIG A   1      -8.132  -0.970 126.453  0.00  0.00    +0.019 A 
ATOM      5  C   LIG A   1      -8.381  -1.122 125.079  0.00  0.00    +0.002 A 
ATOM      6  C   LIG A   1      -8.585   0.037 124.276  0.00  0.00    +0.169 A 
ATOM      7  C   LIG A   1      -7.863   0.450 128.461  0.00  0.00    +0.019 A 
ATOM      8  C   LIG A   1      -8.015   1.648 129.034  0.00  0.00    +0.092 A 
ATOM      9  C   LIG A   1      -8.384   2.828 128.253  0.00  0.00    +0.337 A 
ATOM     10  O   LIG A   1      -8.652   3.899 128.800  0.00  0.00    -0.245 OA
ATOM     11  O   LIG A   1      -8.381   2.682 126.881  0.00  0.00    -0.418 OA
ENDROOT
BRANCH   6  12
ATOM     12  O   LIG A   1      -8.789  -0.226 122.941  0.00  0.00    -0.491 OA
ATOM     13  C   LIG A   1     -10.121  -0.151 122.442  0.00  0.00    +0.277 C 
ENDBRANCH   6  12
BRANCH   1  14
ATOM     14  O   LIG A   1      -8.900   2.401 124.054  0.00  0.00    -0.481 OA
BRANCH  14  15
ATOM     15  C   LIG A   1      -7.837   2.976 123.290  0.00  0.00    +0.257 C 
BRANCH  15  16
ATOM     16  C   LIG A   1      -8.385   3.399 121.955  0.00  0.00    +0.012 C 
ATOM     17  C   LIG A   1      -7.695   3.767 120.857  0.00  0.00    -0.076 C 
ATOM     18  C   LIG A   1      -6.200   3.902 120.790  0.00  0.00    +0.038 C 
ATOM     19  C   LIG A   1      -8.408   4.073 119.566  0.00  0.00    +0.038 C 
ENDBRANCH  15  16
ENDBRANCH  14  15
ENDBRANCH   1  14
BRANCH   5  20
ATOM     20  C   LIG A   1      -8.475  -2.544 124.529  0.00  0.00    +0.066 C 
BRANCH  20  21
ATOM     21  C   LIG A   1      -7.163  -3.297 124.534  0.00  0.00    -0.023 C 
ATOM     22  C   LIG A   1      -6.081  -3.100 123.748  0.00  0.00    -0.079 C 
ATOM     23  C   LIG A   1      -5.978  -2.114 122.615  0.00  0.00    +0.038 C 
ATOM     24  C   LIG A   1      -4.801  -3.860 124.002  0.00  0.00    +0.038 C 
ENDBRANCH  20  21
ENDBRANCH   5  20
TORSDOF 6
ENDMDL
MODEL 5
REMARK VINA RESULT:      -7.2      3.047      6.526
REMARK  Name = NuBBE_2441
REMARK  11 active torsions:
REMARK  status: ('A' for Active; 'I' for Inactive)
REMARK    1  A    between atoms: O_1  and  C_2
REMARK    2  A    between atoms: O_1  and  C_7
REMARK    3  A    between atoms: C_2  and  C_3
REMARK    4  A    between atoms: C_4  and  C_5
REMARK    5  A    between atoms: C_4  and  C_6
REMARK    6  A    between atoms: C_11  and  C_15
REMARK    7  A    between atoms: C_12  and  O_13
REMARK    8  A    between atoms: O_13  and  C_14
REMARK    9  A    between atoms: C_15  and  C_16
REMARK   10  A    between atoms: C_17  and  C_18
REMARK   11  A    between atoms: C_17  and  C_19
REMARK                            x       y       z     vdW  Elec       q    Type
REMARK                         _______ _______ _______ _____ _____    ______ ____
ROOT
ATOM      1  C   LIG A   1      -7.709  -0.541 125.683  0.00  0.00    +0.206 A 
ATOM      2  C   LIG A   1      -8.229   0.307 124.690  0.00  0.00    +0.184 A 
ATOM      3  C   LIG A   1      -7.758   1.608 124.500  0.00  0.00    +0.022 A 
ATOM      4  C   LIG A   1      -6.757   2.103 125.332  0.00  0.00    +0.019 A 
ATOM      5  C   LIG A   1      -6.200   1.299 126.339  0.00  0.00    +0.002 A 
ATOM      6  C   LIG A   1      -6.648  -0.045 126.484  0.00  0.00    +0.169 A 
ATOM      7  C   LIG A   1      -8.342   2.446 123.463  0.00  0.00    +0.019 A 
ATOM      8  C   LIG A   1      -9.414   2.016 122.788  0.00  0.00    +0.092 A 
ATOM      9  C   LIG A   1      -9.993   0.696 123.035  0.00  0.00    +0.337 A 
ATOM     10  O   LIG A   1     -11.055   0.356 122.509  0.00  0.00    -0.245 OA
ATOM     11  O   LIG A   1      -9.273  -0.148 123.854  0.00  0.00    -0.418 OA
ENDROOT
BRANCH   6  12
ATOM     12  O   LIG A   1      -6.012  -0.750 127.480  0.00  0.00    -0.491 OA
ATOM     13  C   LIG A   1      -6.688  -0.904 128.725  0.00  0.00    +0.277 C 
ENDBRANCH   6  12
BRANCH   1  14
ATOM     14  O   LIG A   1      -8.147  -1.825 125.918  0.00  0.00    -0.481 OA
BRANCH  14  15
ATOM     15  C   LIG A   1      -8.174  -2.756 124.833  0.00  0.00    +0.257 C 
BRANCH  15  16
ATOM     16  C   LIG A   1      -6.770  -3.229 124.577  0.00  0.00    +0.012 C 
ATOM     17  C   LIG A   1      -5.933  -2.839 123.595  0.00  0.00    -0.076 C 
ATOM     18  C   LIG A   1      -6.291  -1.885 122.491  0.00  0.00    +0.038 C 
ATOM     19  C   LIG A   1      -4.518  -3.352 123.541  0.00  0.00    +0.038 C 
ENDBRANCH  15  16
ENDBRANCH  14  15
ENDBRANCH   1  14
BRANCH   5  20
ATOM     20  C   LIG A   1      -5.170   1.940 127.268  0.00  0.00    +0.066 C 
BRANCH  20  21
ATOM     21  C   LIG A   1      -3.832   2.211 126.616  0.00  0.00    -0.023 C 
ATOM     22  C   LIG A   1      -2.849   3.040 127.033  0.00  0.00    -0.079 C 
ATOM     23  C   LIG A   1      -2.910   3.955 128.227  0.00  0.00    +0.038 C 
ATOM     24  C   LIG A   1      -1.517   3.066 126.324  0.00  0.00    +0.038 C 
ENDBRANCH  20  21
ENDBRANCH   5  20
TORSDOF 6
ENDMDL
MODEL 6
REMARK VINA RESULT:      -7.1      3.180      7.225
REMARK  Name = NuBBE_2441
REMARK  11 active torsions:
REMARK  status: ('A' for Active; 'I' for Inactive)
REMARK    1  A    between atoms: O_1  and  C_2
REMARK    2  A    between atoms: O_1  and  C_7
REMARK    3  A    between atoms: C_2  and  C_3
REMARK    4  A    between atoms: C_4  and  C_5
REMARK    5  A    between atoms: C_4  and  C_6
REMARK    6  A    between atoms: C_11  and  C_15
REMARK    7  A    between atoms: C_12  and  O_13
REMARK    8  A    between atoms: O_13  and  C_14
REMARK    9  A    between atoms: C_15  and  C_16
REMARK   10  A    between atoms: C_17  and  C_18
REMARK   11  A    between atoms: C_17  and  C_19
REMARK                            x       y       z     vdW  Elec       q    Type
REMARK                         _______ _______ _______ _____ _____    ______ ____
ROOT
ATOM      1  C   LIG A   1      -8.638   1.438 126.068  0.00  0.00    +0.206 A 
ATOM      2  C   LIG A   1      -8.276   0.113 125.767  0.00  0.00    +0.184 A 
ATOM      3  C   LIG A   1      -7.896  -0.282 124.482  0.00  0.00    +0.022 A 
ATOM      4  C   LIG A   1      -7.896   0.653 123.450  0.00  0.00    +0.019 A 
ATOM      5  C   LIG A   1      -8.245   1.991 123.695  0.00  0.00    +0.002 A 
ATOM      6  C   LIG A   1      -8.574   2.393 125.021  0.00  0.00    +0.169 A 
ATOM      7  C   LIG A   1      -7.544  -1.670 124.225  0.00  0.00    +0.019 A 
ATOM      8  C   LIG A   1      -7.713  -2.586 125.185  0.00  0.00    +0.092 A 
ATOM      9  C   LIG A   1      -8.206  -2.220 126.512  0.00  0.00    +0.337 A 
ATOM     10  O   LIG A   1      -8.486  -3.080 127.349  0.00  0.00    -0.245 OA
ATOM     11  O   LIG A   1      -8.304  -0.871 126.781  0.00  0.00    -0.418 OA
ENDROOT
BRANCH   6  12
ATOM     12  O   LIG A   1      -8.869   3.730 125.151  0.00  0.00    -0.491 OA
ATOM     13  C   LIG A   1      -7.837   4.601 125.605  0.00  0.00    +0.277 C 
ENDBRANCH   6  12
BRANCH   1  14
ATOM     14  O   LIG A   1      -9.031   1.873 127.314  0.00  0.00    -0.481 OA
BRANCH  14  15
ATOM     15  C   LIG A   1      -8.032   2.118 128.307  0.00  0.00    +0.257 C 
BRANCH  15  16
ATOM     16  C   LIG A   1      -8.666   1.977 129.664  0.00  0.00    +0.012 C 
ATOM     17  C   LIG A   1      -8.568   0.940 130.519  0.00  0.00    -0.076 C 
ATOM     18  C   LIG A   1      -7.845  -0.345 130.227  0.00  0.00    +0.038 C 
ATOM     19  C   LIG A   1      -9.198   1.005 131.885  0.00  0.00    +0.038 C 
ENDBRANCH  15  16
ENDBRANCH  14  15
ENDBRANCH   1  14
BRANCH   5  20
ATOM     20  C   LIG A   1      -8.307   2.937 122.497  0.00  0.00    +0.066 C 
BRANCH  20  21
ATOM     21  C   LIG A   1      -6.953   3.364 121.975  0.00  0.00    -0.023 C 
ATOM     22  C   LIG A   1      -6.653   3.925 120.783  0.00  0.00    -0.079 C 
ATOM     23  C   LIG A   1      -7.618   4.179 119.655  0.00  0.00    +0.038 C 
ATOM     24  C   LIG A   1      -5.255   4.421 120.499  0.00  0.00    +0.038 C 
ENDBRANCH  20  21
ENDBRANCH   5  20
TORSDOF 6
ENDMDL
MODEL 7
REMARK VINA RESULT:      -7.0      6.722      9.061
REMARK  Name = NuBBE_2441
REMARK  11 active torsions:
REMARK  status: ('A' for Active; 'I' for Inactive)
REMARK    1  A    between atoms: O_1  and  C_2
REMARK    2  A    between atoms: O_1  and  C_7
REMARK    3  A    between atoms: C_2  and  C_3
REMARK    4  A    between atoms: C_4  and  C_5
REMARK    5  A    between atoms: C_4  and  C_6
REMARK    6  A    between atoms: C_11  and  C_15
REMARK    7  A    between atoms: C_12  and  O_13
REMARK    8  A    between atoms: O_13  and  C_14
REMARK    9  A    between atoms: C_15  and  C_16
REMARK   10  A    between atoms: C_17  and  C_18
REMARK   11  A    between atoms: C_17  and  C_19
REMARK                            x       y       z     vdW  Elec       q    Type
REMARK                         _______ _______ _______ _____ _____    ______ ____
ROOT
ATOM      1  C   LIG A   1      -9.219   5.723 129.872  0.00  0.00    +0.206 A 
ATOM      2  C   LIG A   1      -8.678   4.650 129.142  0.00  0.00    +0.184 A 
ATOM      3  C   LIG A   1      -8.452   3.397 129.715  0.00  0.00    +0.022 A 
ATOM      4  C   LIG A   1      -8.745   3.197 131.061  0.00  0.00    +0.019 A 
ATOM      5  C   LIG A   1      -9.289   4.232 131.838  0.00  0.00    +0.002 A 
ATOM      6  C   LIG A   1      -9.569   5.487 131.226  0.00  0.00    +0.169 A 
ATOM      7  C   LIG A   1      -7.879   2.326 128.914  0.00  0.00    +0.019 A 
ATOM      8  C   LIG A   1      -7.447   2.583 127.675  0.00  0.00    +0.092 A 
ATOM      9  C   LIG A   1      -7.578   3.912 127.080  0.00  0.00    +0.337 A 
ATOM     10  O   LIG A   1      -7.062   4.180 125.993  0.00  0.00    -0.245 OA
ATOM     11  O   LIG A   1      -8.332   4.829 127.783  0.00  0.00    -0.418 OA
ENDROOT
BRANCH   6  12
ATOM     12  O   LIG A   1     -10.129   6.418 132.072  0.00  0.00    -0.491 OA
ATOM     13  C   LIG A   1     -11.543   6.584 132.039  0.00  0.00    +0.277 C 
ENDBRANCH   6  12
BRANCH   1  14
ATOM     14  O   LIG A   1      -9.448   6.978 129.356  0.00  0.00    -0.481 OA
BRANCH  14  15
ATOM     15  C   LIG A   1     -10.537   7.165 128.448  0.00  0.00    +0.257 C 
BRANCH  15  16
ATOM     16  C   LIG A   1     -11.284   8.407 128.851  0.00  0.00    +0.012 C 
ATOM     17  C   LIG A   1     -12.601   8.659 128.718  0.00  0.00    -0.076 C 
ATOM     18  C   LIG A   1     -13.586   7.743 128.047  0.00  0.00    +0.038 C 
ATOM     19  C   LIG A   1     -13.202   9.928 129.263  0.00  0.00    +0.038 C 
ENDBRANCH  15  16
ENDBRANCH  14  15
ENDBRANCH   1  14
BRANCH   5  20
ATOM     20  C   LIG A   1      -9.500   3.965 133.327  0.00  0.00    +0.066 C 
BRANCH  20  21
ATOM     21  C   LIG A   1      -8.352   4.413 134.205  0.00  0.00    -0.023 C 
ATOM     22  C   LIG A   1      -7.194   3.765 134.465  0.00  0.00    -0.079 C 
ATOM     23  C   LIG A   1      -6.823   2.387 133.986  0.00  0.00    +0.038 C 
ATOM     24  C   LIG A   1      -6.098   4.442 135.253  0.00  0.00    +0.038 C 
ENDBRANCH  20  21
ENDBRANCH   5  20
TORSDOF 6
ENDMDL
MODEL 8
REMARK VINA RESULT:      -7.0      4.388      7.159
REMARK  Name = NuBBE_2441
REMARK  11 active torsions:
REMARK  status: ('A' for Active; 'I' for Inactive)
REMARK    1  A    between atoms: O_1  and  C_2
REMARK    2  A    between atoms: O_1  and  C_7
REMARK    3  A    between atoms: C_2  and  C_3
REMARK    4  A    between atoms: C_4  and  C_5
REMARK    5  A    between atoms: C_4  and  C_6
REMARK    6  A    between atoms: C_11  and  C_15
REMARK    7  A    between atoms: C_12  and  O_13
REMARK    8  A    between atoms: O_13  and  C_14
REMARK    9  A    between atoms: C_15  and  C_16
REMARK   10  A    between atoms: C_17  and  C_18
REMARK   11  A    between atoms: C_17  and  C_19
REMARK                            x       y       z     vdW  Elec       q    Type
REMARK                         _______ _______ _______ _____ _____    ______ ____
ROOT
ATOM      1  C   LIG A   1      -8.628  -1.765 125.994  0.00  0.00    +0.206 A 
ATOM      2  C   LIG A   1      -8.905  -0.576 125.296  0.00  0.00    +0.184 A 
ATOM      3  C   LIG A   1      -8.574   0.682 125.804  0.00  0.00    +0.022 A 
ATOM      4  C   LIG A   1      -7.969   0.778 127.055  0.00  0.00    +0.019 A 
ATOM      5  C   LIG A   1      -7.666  -0.377 127.795  0.00  0.00    +0.002 A 
ATOM      6  C   LIG A   1      -7.956  -1.656 127.239  0.00  0.00    +0.169 A 
ATOM      7  C   LIG A   1      -8.896   1.879 125.043  0.00  0.00    +0.019 A 
ATOM      8  C   LIG A   1      -9.627   1.779 123.927  0.00  0.00    +0.092 A 
ATOM      9  C   LIG A   1     -10.076   0.483 123.421  0.00  0.00    +0.337 A 
ATOM     10  O   LIG A   1     -10.857   0.403 122.472  0.00  0.00    -0.245 OA
ATOM     11  O   LIG A   1      -9.554  -0.633 124.042  0.00  0.00    -0.418 OA
ENDROOT
BRANCH   6  12
ATOM     12  O   LIG A   1      -7.590  -2.717 128.035  0.00  0.00    -0.491 OA
ATOM     13  C   LIG A   1      -8.605  -3.359 128.801  0.00  0.00    +0.277 C 
ENDBRANCH   6  12
BRANCH   1  14
ATOM     14  O   LIG A   1      -8.946  -3.025 125.541  0.00  0.00    -0.481 OA
BRANCH  14  15
ATOM     15  C   LIG A   1      -8.542  -3.410 124.225  0.00  0.00    +0.257 C 
BRANCH  15  16
ATOM     16  C   LIG A   1      -7.051  -3.604 124.221  0.00  0.00    +0.012 C 
ATOM     17  C   LIG A   1      -6.125  -2.881 123.561  0.00  0.00    -0.076 C 
ATOM     18  C   LIG A   1      -6.432  -1.758 122.611  0.00  0.00    +0.038 C 
ATOM     19  C   LIG A   1      -4.656  -3.158 123.745  0.00  0.00    +0.038 C 
ENDBRANCH  15  16
ENDBRANCH  14  15
ENDBRANCH   1  14
BRANCH   5  20
ATOM     20  C   LIG A   1      -7.086  -0.188 129.195  0.00  0.00    +0.066 C 
BRANCH  20  21
ATOM     21  C   LIG A   1      -7.540   1.078 129.888  0.00  0.00    -0.023 C 
ATOM     22  C   LIG A   1      -8.352   1.201 130.961  0.00  0.00    -0.079 C 
ATOM     23  C   LIG A   1      -9.063   0.076 131.667  0.00  0.00    +0.038 C 
ATOM     24  C   LIG A   1      -8.574   2.549 131.604  0.00  0.00    +0.038 C 
ENDBRANCH  20  21
ENDBRANCH   5  20
TORSDOF 6
ENDMDL
MODEL 9
REMARK VINA RESULT:      -7.0      1.534      2.193
REMARK  Name = NuBBE_2441
REMARK  11 active torsions:
REMARK  status: ('A' for Active; 'I' for Inactive)
REMARK    1  A    between atoms: O_1  and  C_2
REMARK    2  A    between atoms: O_1  and  C_7
REMARK    3  A    between atoms: C_2  and  C_3
REMARK    4  A    between atoms: C_4  and  C_5
REMARK    5  A    between atoms: C_4  and  C_6
REMARK    6  A    between atoms: C_11  and  C_15
REMARK    7  A    between atoms: C_12  and  O_13
REMARK    8  A    between atoms: O_13  and  C_14
REMARK    9  A    between atoms: C_15  and  C_16
REMARK   10  A    between atoms: C_17  and  C_18
REMARK   11  A    between atoms: C_17  and  C_19
REMARK                            x       y       z     vdW  Elec       q    Type
REMARK                         _______ _______ _______ _____ _____    ______ ____
ROOT
ATOM      1  C   LIG A   1      -6.829   2.149 124.595  0.00  0.00    +0.206 A 
ATOM      2  C   LIG A   1      -5.820   2.640 125.442  0.00  0.00    +0.184 A 
ATOM      3  C   LIG A   1      -5.006   1.795 126.200  0.00  0.00    +0.022 A 
ATOM      4  C   LIG A   1      -5.206   0.418 126.141  0.00  0.00    +0.019 A 
ATOM      5  C   LIG A   1      -6.198  -0.128 125.309  0.00  0.00    +0.002 A 
ATOM      6  C   LIG A   1      -6.981   0.742 124.498  0.00  0.00    +0.169 A 
ATOM      7  C   LIG A   1      -3.986   2.359 127.070  0.00  0.00    +0.019 A 
ATOM      8  C   LIG A   1      -3.920   3.683 127.243  0.00  0.00    +0.092 A 
ATOM      9  C   LIG A   1      -4.825   4.592 126.541  0.00  0.00    +0.337 A 
ATOM     10  O   LIG A   1      -4.852   5.796 126.801  0.00  0.00    -0.245 OA
ATOM     11  O   LIG A   1      -5.615   4.034 125.557  0.00  0.00    -0.418 OA
ENDROOT
BRANCH   6  12
ATOM     12  O   LIG A   1      -7.900   0.099 123.700  0.00  0.00    -0.491 OA
ATOM     13  C   LIG A   1      -9.257   0.075 124.130  0.00  0.00    +0.277 C 
ENDBRANCH   6  12
BRANCH   1  14
ATOM     14  O   LIG A   1      -7.663   2.941 123.839  0.00  0.00    -0.481 OA
BRANCH  14  15
ATOM     15  C   LIG A   1      -7.570   2.882 122.414  0.00  0.00    +0.257 C 
BRANCH  15  16
ATOM     16  C   LIG A   1      -6.345   3.640 121.984  0.00  0.00    +0.012 C 
ATOM     17  C   LIG A   1      -6.110   4.226 120.794  0.00  0.00    -0.076 C 
ATOM     18  C   LIG A   1      -7.031   4.157 119.608  0.00  0.00    +0.038 C 
ATOM     19  C   LIG A   1      -4.857   5.029 120.564  0.00  0.00    +0.038 C 
ENDBRANCH  15  16
ENDBRANCH  14  15
ENDBRANCH   1  14
BRANCH   5  20
ATOM     20  C   LIG A   1      -6.417  -1.638 125.366  0.00  0.00    +0.066 C 
BRANCH  20  21
ATOM     21  C   LIG A   1      -6.956  -2.136 126.689  0.00  0.00    -0.023 C 
ATOM     22  C   LIG A   1      -8.112  -2.794 126.929  0.00  0.00    -0.079 C 
ATOM     23  C   LIG A   1      -9.178  -3.111 125.913  0.00  0.00    +0.038 C 
ATOM     24  C   LIG A   1      -8.411  -3.343 128.303  0.00  0.00    +0.038 C 
ENDBRANCH  20  21
ENDBRANCH   5  20
TORSDOF 6
ENDMDL
