MODEL 1
REMARK VINA RESULT:      -8.1      0.000      0.000
REMARK  Name = NuBBE_2407
REMARK  6 active torsions:
REMARK  status: ('A' for Active; 'I' for Inactive)
REMARK    1  A    between atoms: C_1  and  O_2
REMARK    2  A    between atoms: O_2  and  C_3
REMARK    3  A    between atoms: C_3  and  C_5
REMARK    4  A    between atoms: C_10  and  C_12
REMARK    5  A    between atoms: C_12  and  C_14
REMARK    6  A    between atoms: C_12  and  O_15
REMARK                            x       y       z     vdW  Elec       q    Type
REMARK                         _______ _______ _______ _____ _____    ______ ____
ROOT
ATOM      1  C   LIG A   1      -7.039   1.780 124.938  0.00  0.00    +0.124 C 
ATOM      2  C   LIG A   1      -5.997   1.385 125.955  0.00  0.00    +0.030 C 
ATOM      3  C   LIG A   1      -6.599   0.068 126.635  0.00  0.00    +0.005 C 
ATOM      4  C   LIG A   1      -6.001  -1.082 125.822  0.00  0.00    +0.012 C 
ATOM      5  C   LIG A   1      -6.369  -0.779 124.359  0.00  0.00    +0.036 C 
ATOM      6  C   LIG A   1      -7.485   0.337 124.343  0.00  0.00    +0.085 C 
ATOM      7  N   LIG A   1      -8.655  -0.076 125.064  0.00  0.00    -0.297 NA
ATOM      8  C   LIG A   1      -9.764   0.856 124.677  0.00  0.00    +0.089 C 
ATOM      9  C   LIG A   1      -9.667   1.906 123.433  0.00  0.00    +0.053 C 
ATOM     10  C   LIG A   1      -8.331   2.570 122.979  0.00  0.00    -0.017 A 
ATOM     11  C   LIG A   1      -7.110   2.513 123.657  0.00  0.00    +0.039 A 
ATOM     12  N   LIG A   1      -6.141   3.134 122.938  0.00  0.00    -0.357 N 
ATOM     13  H   LIG A   1      -5.172   3.245 123.202  0.00  0.00    +0.166 HD
ATOM     14  C   LIG A   1      -6.686   3.568 121.746  0.00  0.00    +0.047 A 
ATOM     15  C   LIG A   1      -6.070   4.214 120.667  0.00  0.00    +0.026 A 
ATOM     16  C   LIG A   1      -6.858   4.519 119.554  0.00  0.00    +0.002 A 
ATOM     17  C   LIG A   1      -8.212   4.195 119.523  0.00  0.00    +0.001 A 
ATOM     18  C   LIG A   1      -8.818   3.556 120.610  0.00  0.00    +0.010 A 
ATOM     19  C   LIG A   1      -8.048   3.235 121.746  0.00  0.00    +0.003 A 
ATOM     20  C   LIG A   1      -8.205  -0.118 126.495  0.00  0.00    +0.088 C 
ENDROOT
BRANCH   1  21
ATOM     21  C   LIG A   1      -7.815   2.866 125.859  0.00  0.00    +0.321 C 
ATOM     22  O   LIG A   1      -8.528   2.677 126.837  0.00  0.00    -0.250 OA
BRANCH  21  24
ATOM     23  C   LIG A   1      -8.239   5.230 125.875  0.00  0.00    +0.280 C 
ATOM     24  O   LIG A   1      -7.410   4.133 125.487  0.00  0.00    -0.467 OA
ENDBRANCH  21  24
ENDBRANCH   1  21
BRANCH   5  25
ATOM     25  C   LIG A   1      -6.746  -2.070 123.589  0.00  0.00    +0.116 C 
ATOM     26  C   LIG A   1      -5.565  -2.748 122.900  0.00  0.00    +0.038 C 
BRANCH  25  27
ATOM     27  O   LIG A   1      -7.746  -1.819 122.605  0.00  0.00    -0.392 OA
ATOM     28  H   LIG A   1      -7.639  -0.885 122.329  0.00  0.00    +0.210 HD
ENDBRANCH  25  27
ENDBRANCH   5  25
TORSDOF 4
ENDMDL
MODEL 2
REMARK VINA RESULT:      -7.6      2.974      7.367
REMARK  Name = NuBBE_2407
REMARK  6 active torsions:
REMARK  status: ('A' for Active; 'I' for Inactive)
REMARK    1  A    between atoms: C_1  and  O_2
REMARK    2  A    between atoms: O_2  and  C_3
REMARK    3  A    between atoms: C_3  and  C_5
REMARK    4  A    between atoms: C_10  and  C_12
REMARK    5  A    between atoms: C_12  and  C_14
REMARK    6  A    between atoms: C_12  and  O_15
REMARK                            x       y       z     vdW  Elec       q    Type
REMARK                         _______ _______ _______ _____ _____    ______ ____
ROOT
ATOM      1  C   LIG A   1      -6.784  -1.830 125.204  0.00  0.00    +0.124 C 
ATOM      2  C   LIG A   1      -6.067  -1.096 124.098  0.00  0.00    +0.030 C 
ATOM      3  C   LIG A   1      -7.222  -0.760 123.044  0.00  0.00    +0.005 C 
ATOM      4  C   LIG A   1      -7.697   0.639 123.439  0.00  0.00    +0.012 C 
ATOM      5  C   LIG A   1      -8.072   0.535 124.928  0.00  0.00    +0.036 C 
ATOM      6  C   LIG A   1      -8.169  -0.991 125.316  0.00  0.00    +0.085 C 
ATOM      7  N   LIG A   1      -9.146  -1.677 124.519  0.00  0.00    -0.297 NA
ATOM      8  C   LIG A   1      -9.433  -2.982 125.200  0.00  0.00    +0.089 C 
ATOM      9  C   LIG A   1      -8.937  -3.339 126.712  0.00  0.00    +0.053 C 
ATOM     10  C   LIG A   1      -7.621  -2.778 127.333  0.00  0.00    -0.017 A 
ATOM     11  C   LIG A   1      -6.623  -2.074 126.653  0.00  0.00    +0.039 A 
ATOM     12  N   LIG A   1      -5.658  -1.669 127.517  0.00  0.00    -0.357 N 
ATOM     13  H   LIG A   1      -4.822  -1.149 127.287  0.00  0.00    +0.166 HD
ATOM     14  C   LIG A   1      -6.021  -2.048 128.793  0.00  0.00    +0.047 A 
ATOM     15  C   LIG A   1      -5.373  -1.814 130.012  0.00  0.00    +0.026 A 
ATOM     16  C   LIG A   1      -5.982  -2.290 131.176  0.00  0.00    +0.002 A 
ATOM     17  C   LIG A   1      -7.190  -2.979 131.124  0.00  0.00    +0.001 A 
ATOM     18  C   LIG A   1      -7.825  -3.214 129.899  0.00  0.00    +0.010 A 
ATOM     19  C   LIG A   1      -7.236  -2.745 128.708  0.00  0.00    +0.003 A 
ATOM     20  C   LIG A   1      -8.549  -1.691 123.143  0.00  0.00    +0.088 C 
ENDROOT
BRANCH   1  21
ATOM     21  C   LIG A   1      -6.458  -3.333 124.690  0.00  0.00    +0.321 C 
ATOM     22  O   LIG A   1      -7.214  -4.155 124.187  0.00  0.00    -0.250 OA
BRANCH  21  24
ATOM     23  C   LIG A   1      -4.530  -4.445 123.789  0.00  0.00    +0.280 C 
ATOM     24  O   LIG A   1      -5.092  -3.529 124.731  0.00  0.00    -0.467 OA
ENDBRANCH  21  24
ENDBRANCH   1  21
BRANCH   5  25
ATOM     25  C   LIG A   1      -9.344   1.359 125.252  0.00  0.00    +0.116 C 
ATOM     26  C   LIG A   1     -10.286   1.538 124.065  0.00  0.00    +0.038 C 
BRANCH  25  27
ATOM     27  O   LIG A   1      -9.016   2.652 125.754  0.00  0.00    -0.392 OA
ATOM     28  H   LIG A   1      -8.815   3.212 124.974  0.00  0.00    +0.210 HD
ENDBRANCH  25  27
ENDBRANCH   5  25
TORSDOF 4
ENDMDL
MODEL 3
REMARK VINA RESULT:      -7.3      2.968      7.474
REMARK  Name = NuBBE_2407
REMARK  6 active torsions:
REMARK  status: ('A' for Active; 'I' for Inactive)
REMARK    1  A    between atoms: C_1  and  O_2
REMARK    2  A    between atoms: O_2  and  C_3
REMARK    3  A    between atoms: C_3  and  C_5
REMARK    4  A    between atoms: C_10  and  C_12
REMARK    5  A    between atoms: C_12  and  C_14
REMARK    6  A    between atoms: C_12  and  O_15
REMARK                            x       y       z     vdW  Elec       q    Type
REMARK                         _______ _______ _______ _____ _____    ______ ____
ROOT
ATOM      1  C   LIG A   1      -6.434  -1.648 125.440  0.00  0.00    +0.124 C 
ATOM      2  C   LIG A   1      -5.745  -0.903 124.324  0.00  0.00    +0.030 C 
ATOM      3  C   LIG A   1      -6.945  -0.231 123.507  0.00  0.00    +0.005 C 
ATOM      4  C   LIG A   1      -7.088   1.161 124.125  0.00  0.00    +0.012 C 
ATOM      5  C   LIG A   1      -7.272   0.919 125.634  0.00  0.00    +0.036 C 
ATOM      6  C   LIG A   1      -7.606  -0.607 125.860  0.00  0.00    +0.085 C 
ATOM      7  N   LIG A   1      -8.793  -0.998 125.155  0.00  0.00    -0.297 NA
ATOM      8  C   LIG A   1      -9.230  -2.315 125.723  0.00  0.00    +0.089 C 
ATOM      9  C   LIG A   1      -8.614  -2.957 127.089  0.00  0.00    +0.053 C 
ATOM     10  C   LIG A   1      -7.144  -2.723 127.554  0.00  0.00    -0.017 A 
ATOM     11  C   LIG A   1      -6.130  -2.114 126.809  0.00  0.00    +0.039 A 
ATOM     12  N   LIG A   1      -5.000  -2.005 127.551  0.00  0.00    -0.357 N 
ATOM     13  H   LIG A   1      -4.118  -1.610 127.252  0.00  0.00    +0.166 HD
ATOM     14  C   LIG A   1      -5.254  -2.488 128.818  0.00  0.00    +0.047 A 
ATOM     15  C   LIG A   1      -4.416  -2.540 129.939  0.00  0.00    +0.026 A 
ATOM     16  C   LIG A   1      -4.944  -3.060 131.123  0.00  0.00    +0.002 A 
ATOM     17  C   LIG A   1      -6.257  -3.517 131.185  0.00  0.00    +0.001 A 
ATOM     18  C   LIG A   1      -7.083  -3.468 130.056  0.00  0.00    +0.010 A 
ATOM     19  C   LIG A   1      -6.580  -2.947 128.848  0.00  0.00    +0.003 A 
ATOM     20  C   LIG A   1      -8.399  -0.924 123.709  0.00  0.00    +0.088 C 
ENDROOT
BRANCH   1  21
ATOM     21  C   LIG A   1      -6.472  -3.099 124.716  0.00  0.00    +0.321 C 
ATOM     22  O   LIG A   1      -7.355  -3.591 124.023  0.00  0.00    -0.250 OA
BRANCH  21  24
ATOM     23  C   LIG A   1      -4.682  -4.320 123.682  0.00  0.00    +0.280 C 
ATOM     24  O   LIG A   1      -5.231  -3.690 124.841  0.00  0.00    -0.467 OA
ENDBRANCH  21  24
ENDBRANCH   1  21
BRANCH   5  25
ATOM     25  C   LIG A   1      -8.309   1.896 126.243  0.00  0.00    +0.116 C 
ATOM     26  C   LIG A   1      -8.685   1.579 127.688  0.00  0.00    +0.038 C 
BRANCH  25  27
ATOM     27  O   LIG A   1      -9.508   1.934 125.473  0.00  0.00    -0.392 OA
ATOM     28  H   LIG A   1     -10.079   2.620 125.880  0.00  0.00    +0.210 HD
ENDBRANCH  25  27
ENDBRANCH   5  25
TORSDOF 4
ENDMDL
MODEL 4
REMARK VINA RESULT:      -6.9      2.728      5.543
REMARK  Name = NuBBE_2407
REMARK  6 active torsions:
REMARK  status: ('A' for Active; 'I' for Inactive)
REMARK    1  A    between atoms: C_1  and  O_2
REMARK    2  A    between atoms: O_2  and  C_3
REMARK    3  A    between atoms: C_3  and  C_5
REMARK    4  A    between atoms: C_10  and  C_12
REMARK    5  A    between atoms: C_12  and  C_14
REMARK    6  A    between atoms: C_12  and  O_15
REMARK                            x       y       z     vdW  Elec       q    Type
REMARK                         _______ _______ _______ _____ _____    ______ ____
ROOT
ATOM      1  C   LIG A   1      -6.555   0.328 126.042  0.00  0.00    +0.124 C 
ATOM      2  C   LIG A   1      -6.638  -0.720 124.960  0.00  0.00    +0.030 C 
ATOM      3  C   LIG A   1      -8.192  -0.765 124.583  0.00  0.00    +0.005 C 
ATOM      4  C   LIG A   1      -8.324   0.213 123.415  0.00  0.00    +0.012 C 
ATOM      5  C   LIG A   1      -7.732   1.538 123.926  0.00  0.00    +0.036 C 
ATOM      6  C   LIG A   1      -7.590   1.452 125.495  0.00  0.00    +0.085 C 
ATOM      7  N   LIG A   1      -8.855   1.208 126.127  0.00  0.00    -0.297 NA
ATOM      8  C   LIG A   1      -8.687   1.520 127.584  0.00  0.00    +0.089 C 
ATOM      9  C   LIG A   1      -7.387   2.288 128.199  0.00  0.00    +0.053 C 
ATOM     10  C   LIG A   1      -5.956   2.166 127.589  0.00  0.00    -0.017 A 
ATOM     11  C   LIG A   1      -5.560   1.274 126.589  0.00  0.00    +0.039 A 
ATOM     12  N   LIG A   1      -4.267   1.495 126.244  0.00  0.00    -0.357 N 
ATOM     13  H   LIG A   1      -3.731   0.987 125.554  0.00  0.00    +0.166 HD
ATOM     14  C   LIG A   1      -3.795   2.572 126.968  0.00  0.00    +0.047 A 
ATOM     15  C   LIG A   1      -2.543   3.198 126.921  0.00  0.00    +0.026 A 
ATOM     16  C   LIG A   1      -2.337   4.303 127.752  0.00  0.00    +0.002 A 
ATOM     17  C   LIG A   1      -3.341   4.761 128.600  0.00  0.00    +0.001 A 
ATOM     18  C   LIG A   1      -4.586   4.122 128.643  0.00  0.00    +0.010 A 
ATOM     19  C   LIG A   1      -4.824   3.006 127.817  0.00  0.00    +0.003 A 
ATOM     20  C   LIG A   1      -9.203  -0.193 125.718  0.00  0.00    +0.088 C 
ENDROOT
BRANCH   1  21
ATOM     21  C   LIG A   1      -6.615  -0.686 127.307  0.00  0.00    +0.321 C 
ATOM     22  O   LIG A   1      -7.585  -1.257 127.790  0.00  0.00    -0.250 OA
BRANCH  21  24
ATOM     23  C   LIG A   1      -5.071  -2.309 128.173  0.00  0.00    +0.280 C 
ATOM     24  O   LIG A   1      -5.325  -0.985 127.697  0.00  0.00    -0.467 OA
ENDBRANCH  21  24
ENDBRANCH   1  21
BRANCH   5  25
ATOM     25  C   LIG A   1      -8.549   2.756 123.424  0.00  0.00    +0.116 C 
ATOM     26  C   LIG A   1      -8.181   3.211 122.014  0.00  0.00    +0.038 C 
BRANCH  25  27
ATOM     27  O   LIG A   1      -8.411   3.874 124.298  0.00  0.00    -0.392 OA
ATOM     28  H   LIG A   1      -8.749   4.654 123.809  0.00  0.00    +0.210 HD
ENDBRANCH  25  27
ENDBRANCH   5  25
TORSDOF 4
ENDMDL
MODEL 5
REMARK VINA RESULT:      -6.9      2.391      5.471
REMARK  Name = NuBBE_2407
REMARK  6 active torsions:
REMARK  status: ('A' for Active; 'I' for Inactive)
REMARK    1  A    between atoms: C_1  and  O_2
REMARK    2  A    between atoms: O_2  and  C_3
REMARK    3  A    between atoms: C_3  and  C_5
REMARK    4  A    between atoms: C_10  and  C_12
REMARK    5  A    between atoms: C_12  and  C_14
REMARK    6  A    between atoms: C_12  and  O_15
REMARK                            x       y       z     vdW  Elec       q    Type
REMARK                         _______ _______ _______ _____ _____    ______ ____
ROOT
ATOM      1  C   LIG A   1      -6.893   2.406 124.791  0.00  0.00    +0.124 C 
ATOM      2  C   LIG A   1      -6.183   3.464 123.982  0.00  0.00    +0.030 C 
ATOM      3  C   LIG A   1      -5.801   4.584 125.059  0.00  0.00    +0.005 C 
ATOM      4  C   LIG A   1      -4.386   4.210 125.503  0.00  0.00    +0.012 C 
ATOM      5  C   LIG A   1      -4.479   2.747 125.969  0.00  0.00    +0.036 C 
ATOM      6  C   LIG A   1      -6.002   2.373 126.148  0.00  0.00    +0.085 C 
ATOM      7  N   LIG A   1      -6.648   3.229 127.100  0.00  0.00    -0.297 NA
ATOM      8  C   LIG A   1      -7.942   2.573 127.477  0.00  0.00    +0.089 C 
ATOM      9  C   LIG A   1      -8.322   1.037 127.086  0.00  0.00    +0.053 C 
ATOM     10  C   LIG A   1      -7.814   0.335 125.788  0.00  0.00    -0.017 A 
ATOM     11  C   LIG A   1      -7.146   0.952 124.726  0.00  0.00    +0.039 A 
ATOM     12  N   LIG A   1      -6.781   0.031 123.799  0.00  0.00    -0.357 N 
ATOM     13  H   LIG A   1      -6.293   0.208 122.932  0.00  0.00    +0.166 HD
ATOM     14  C   LIG A   1      -7.149  -1.220 124.252  0.00  0.00    +0.047 A 
ATOM     15  C   LIG A   1      -6.943  -2.477 123.668  0.00  0.00    +0.026 A 
ATOM     16  C   LIG A   1      -7.398  -3.600 124.363  0.00  0.00    +0.002 A 
ATOM     17  C   LIG A   1      -8.041  -3.473 125.591  0.00  0.00    +0.001 A 
ATOM     18  C   LIG A   1      -8.249  -2.212 126.161  0.00  0.00    +0.010 A 
ATOM     19  C   LIG A   1      -7.799  -1.060 125.485  0.00  0.00    +0.003 A 
ATOM     20  C   LIG A   1      -6.681   4.568 126.424  0.00  0.00    +0.088 C 
ENDROOT
BRANCH   1  21
ATOM     21  C   LIG A   1      -8.405   2.908 124.492  0.00  0.00    +0.321 C 
ATOM     22  O   LIG A   1      -8.999   3.877 124.950  0.00  0.00    -0.250 OA
BRANCH  21  24
ATOM     23  C   LIG A   1      -8.952   2.758 122.158  0.00  0.00    +0.280 C 
ATOM     24  O   LIG A   1      -8.925   2.158 123.455  0.00  0.00    -0.467 OA
ENDBRANCH  21  24
ENDBRANCH   1  21
BRANCH   5  25
ATOM     25  C   LIG A   1      -3.608   2.494 127.226  0.00  0.00    +0.116 C 
ATOM     26  C   LIG A   1      -3.663   3.621 128.255  0.00  0.00    +0.038 C 
BRANCH  25  27
ATOM     27  O   LIG A   1      -2.242   2.277 126.882  0.00  0.00    -0.392 OA
ATOM     28  H   LIG A   1      -1.803   1.932 127.687  0.00  0.00    +0.210 HD
ENDBRANCH  25  27
ENDBRANCH   5  25
TORSDOF 4
ENDMDL
MODEL 6
REMARK VINA RESULT:      -6.9      2.641      6.743
REMARK  Name = NuBBE_2407
REMARK  6 active torsions:
REMARK  status: ('A' for Active; 'I' for Inactive)
REMARK    1  A    between atoms: C_1  and  O_2
REMARK    2  A    between atoms: O_2  and  C_3
REMARK    3  A    between atoms: C_3  and  C_5
REMARK    4  A    between atoms: C_10  and  C_12
REMARK    5  A    between atoms: C_12  and  C_14
REMARK    6  A    between atoms: C_12  and  O_15
REMARK                            x       y       z     vdW  Elec       q    Type
REMARK                         _______ _______ _______ _____ _____    ______ ____
ROOT
ATOM      1  C   LIG A   1      -6.538   1.235 125.684  0.00  0.00    +0.124 C 
ATOM      2  C   LIG A   1      -5.630   2.316 125.154  0.00  0.00    +0.030 C 
ATOM      3  C   LIG A   1      -6.612   3.550 124.885  0.00  0.00    +0.005 C 
ATOM      4  C   LIG A   1      -6.555   4.365 126.178  0.00  0.00    +0.012 C 
ATOM      5  C   LIG A   1      -6.913   3.374 127.299  0.00  0.00    +0.036 C 
ATOM      6  C   LIG A   1      -7.536   2.080 126.646  0.00  0.00    +0.085 C 
ATOM      7  N   LIG A   1      -8.707   2.388 125.876  0.00  0.00    -0.297 NA
ATOM      8  C   LIG A   1      -9.422   1.095 125.625  0.00  0.00    +0.089 C 
ATOM      9  C   LIG A   1      -9.056  -0.301 126.383  0.00  0.00    +0.053 C 
ATOM     10  C   LIG A   1      -7.614  -0.661 126.859  0.00  0.00    -0.017 A 
ATOM     11  C   LIG A   1      -6.446   0.042 126.552  0.00  0.00    +0.039 A 
ATOM     12  N   LIG A   1      -5.384  -0.503 127.197  0.00  0.00    -0.357 N 
ATOM     13  H   LIG A   1      -4.423  -0.194 127.144  0.00  0.00    +0.166 HD
ATOM     14  C   LIG A   1      -5.833  -1.543 127.985  0.00  0.00    +0.047 A 
ATOM     15  C   LIG A   1      -5.120  -2.369 128.863  0.00  0.00    +0.026 A 
ATOM     16  C   LIG A   1      -5.835  -3.338 129.571  0.00  0.00    +0.002 A 
ATOM     17  C   LIG A   1      -7.210  -3.481 129.404  0.00  0.00    +0.001 A 
ATOM     18  C   LIG A   1      -7.910  -2.655 128.518  0.00  0.00    +0.010 A 
ATOM     19  C   LIG A   1      -7.216  -1.667 127.791  0.00  0.00    +0.003 A 
ATOM     20  C   LIG A   1      -8.179   3.167 124.706  0.00  0.00    +0.088 C 
ENDROOT
BRANCH   1  21
ATOM     21  C   LIG A   1      -6.773   0.465 124.276  0.00  0.00    +0.321 C 
ATOM     22  O   LIG A   1      -7.277   0.889 123.242  0.00  0.00    -0.250 OA
BRANCH  21  24
ATOM     23  C   LIG A   1      -6.377  -1.671 123.253  0.00  0.00    +0.280 C 
ATOM     24  O   LIG A   1      -6.139  -0.760 124.328  0.00  0.00    -0.467 OA
ENDBRANCH  21  24
ENDBRANCH   1  21
BRANCH   5  25
ATOM     25  C   LIG A   1      -7.806   4.037 128.379  0.00  0.00    +0.116 C 
ATOM     26  C   LIG A   1      -8.588   3.042 129.233  0.00  0.00    +0.038 C 
BRANCH  25  27
ATOM     27  O   LIG A   1      -8.736   4.949 127.801  0.00  0.00    -0.392 OA
ATOM     28  H   LIG A   1      -9.225   5.358 128.546  0.00  0.00    +0.210 HD
ENDBRANCH  25  27
ENDBRANCH   5  25
TORSDOF 4
ENDMDL
MODEL 7
REMARK VINA RESULT:      -6.8      2.798      6.620
REMARK  Name = NuBBE_2407
REMARK  6 active torsions:
REMARK  status: ('A' for Active; 'I' for Inactive)
REMARK    1  A    between atoms: C_1  and  O_2
REMARK    2  A    between atoms: O_2  and  C_3
REMARK    3  A    between atoms: C_3  and  C_5
REMARK    4  A    between atoms: C_10  and  C_12
REMARK    5  A    between atoms: C_12  and  C_14
REMARK    6  A    between atoms: C_12  and  O_15
REMARK                            x       y       z     vdW  Elec       q    Type
REMARK                         _______ _______ _______ _____ _____    ______ ____
ROOT
ATOM      1  C   LIG A   1      -8.157  -0.324 126.525  0.00  0.00    +0.124 C 
ATOM      2  C   LIG A   1      -9.503  -0.262 125.848  0.00  0.00    +0.030 C 
ATOM      3  C   LIG A   1      -9.196   0.421 124.435  0.00  0.00    +0.005 C 
ATOM      4  C   LIG A   1      -8.961  -0.759 123.490  0.00  0.00    +0.012 C 
ATOM      5  C   LIG A   1      -7.855  -1.597 124.155  0.00  0.00    +0.036 C 
ATOM      6  C   LIG A   1      -7.184  -0.732 125.292  0.00  0.00    +0.085 C 
ATOM      7  N   LIG A   1      -6.626   0.483 124.771  0.00  0.00    -0.297 NA
ATOM      8  C   LIG A   1      -5.705   1.031 125.819  0.00  0.00    +0.089 C 
ATOM      9  C   LIG A   1      -5.232   0.190 127.133  0.00  0.00    +0.053 C 
ATOM     10  C   LIG A   1      -6.126  -0.885 127.826  0.00  0.00    -0.017 A 
ATOM     11  C   LIG A   1      -7.472  -1.139 127.550  0.00  0.00    +0.039 A 
ATOM     12  N   LIG A   1      -7.913  -2.193 128.282  0.00  0.00    -0.357 N 
ATOM     13  H   LIG A   1      -8.847  -2.581 128.280  0.00  0.00    +0.166 HD
ATOM     14  C   LIG A   1      -6.857  -2.694 129.016  0.00  0.00    +0.047 A 
ATOM     15  C   LIG A   1      -6.811  -3.798 129.875  0.00  0.00    +0.026 A 
ATOM     16  C   LIG A   1      -5.588  -4.106 130.476  0.00  0.00    +0.002 A 
ATOM     17  C   LIG A   1      -4.454  -3.337 130.233  0.00  0.00    +0.001 A 
ATOM     18  C   LIG A   1      -4.513  -2.230 129.377  0.00  0.00    +0.010 A 
ATOM     19  C   LIG A   1      -5.733  -1.896 128.756  0.00  0.00    +0.003 A 
ATOM     20  C   LIG A   1      -7.825   1.288 124.363  0.00  0.00    +0.088 C 
ENDROOT
BRANCH   1  21
ATOM     21  C   LIG A   1      -8.306   1.040 127.391  0.00  0.00    +0.321 C 
ATOM     22  O   LIG A   1      -8.558   2.174 127.003  0.00  0.00    -0.250 OA
BRANCH  21  24
ATOM     23  C   LIG A   1      -8.165   1.794 129.666  0.00  0.00    +0.280 C 
ATOM     24  O   LIG A   1      -8.283   0.718 128.733  0.00  0.00    -0.467 OA
ENDBRANCH  21  24
ENDBRANCH   1  21
BRANCH   5  25
ATOM     25  C   LIG A   1      -6.859  -2.158 123.108  0.00  0.00    +0.116 C 
ATOM     26  C   LIG A   1      -5.692  -2.933 123.715  0.00  0.00    +0.038 C 
BRANCH  25  27
ATOM     27  O   LIG A   1      -6.323  -1.122 122.289  0.00  0.00    -0.392 OA
ATOM     28  H   LIG A   1      -6.582  -1.333 121.367  0.00  0.00    +0.210 HD
ENDBRANCH  25  27
ENDBRANCH   5  25
TORSDOF 4
ENDMDL
MODEL 8
REMARK VINA RESULT:      -6.8      2.999      6.485
REMARK  Name = NuBBE_2407
REMARK  6 active torsions:
REMARK  status: ('A' for Active; 'I' for Inactive)
REMARK    1  A    between atoms: C_1  and  O_2
REMARK    2  A    between atoms: O_2  and  C_3
REMARK    3  A    between atoms: C_3  and  C_5
REMARK    4  A    between atoms: C_10  and  C_12
REMARK    5  A    between atoms: C_12  and  C_14
REMARK    6  A    between atoms: C_12  and  O_15
REMARK                            x       y       z     vdW  Elec       q    Type
REMARK                         _______ _______ _______ _____ _____    ______ ____
ROOT
ATOM      1  C   LIG A   1      -6.937   2.308 125.721  0.00  0.00    +0.124 C 
ATOM      2  C   LIG A   1      -6.381   2.620 124.353  0.00  0.00    +0.030 C 
ATOM      3  C   LIG A   1      -5.872   4.131 124.477  0.00  0.00    +0.005 C 
ATOM      4  C   LIG A   1      -4.398   4.002 124.864  0.00  0.00    +0.012 C 
ATOM      5  C   LIG A   1      -4.385   3.119 126.124  0.00  0.00    +0.036 C 
ATOM      6  C   LIG A   1      -5.855   3.032 126.691  0.00  0.00    +0.085 C 
ATOM      7  N   LIG A   1      -6.375   4.330 127.012  0.00  0.00    -0.297 NA
ATOM      8  C   LIG A   1      -7.583   4.121 127.875  0.00  0.00    +0.089 C 
ATOM      9  C   LIG A   1      -7.978   2.687 128.542  0.00  0.00    +0.053 C 
ATOM     10  C   LIG A   1      -7.648   1.316 127.875  0.00  0.00    -0.017 A 
ATOM     11  C   LIG A   1      -7.160   1.126 126.579  0.00  0.00    +0.039 A 
ATOM     12  N   LIG A   1      -6.912  -0.189 126.356  0.00  0.00    -0.357 N 
ATOM     13  H   LIG A   1      -6.562  -0.600 125.501  0.00  0.00    +0.166 HD
ATOM     14  C   LIG A   1      -7.179  -0.891 127.514  0.00  0.00    +0.047 A 
ATOM     15  C   LIG A   1      -7.029  -2.258 127.783  0.00  0.00    +0.026 A 
ATOM     16  C   LIG A   1      -7.349  -2.707 129.067  0.00  0.00    +0.002 A 
ATOM     17  C   LIG A   1      -7.806  -1.826 130.043  0.00  0.00    +0.001 A 
ATOM     18  C   LIG A   1      -7.959  -0.464 129.760  0.00  0.00    +0.010 A 
ATOM     19  C   LIG A   1      -7.644   0.019 128.474  0.00  0.00    +0.003 A 
ATOM     20  C   LIG A   1      -6.541   4.996 125.677  0.00  0.00    +0.088 C 
ENDROOT
BRANCH   1  21
ATOM     21  C   LIG A   1      -8.489   2.634 125.384  0.00  0.00    +0.321 C 
ATOM     22  O   LIG A   1      -9.021   3.718 125.178  0.00  0.00    -0.250 OA
BRANCH  21  24
ATOM     23  C   LIG A   1      -9.938   1.330 123.982  0.00  0.00    +0.280 C 
ATOM     24  O   LIG A   1      -9.156   1.444 125.173  0.00  0.00    -0.467 OA
ENDBRANCH  21  24
ENDBRANCH   1  21
BRANCH   5  25
ATOM     25  C   LIG A   1      -3.333   3.610 127.150  0.00  0.00    +0.116 C 
ATOM     26  C   LIG A   1      -1.926   3.070 126.903  0.00  0.00    +0.038 C 
BRANCH  25  27
ATOM     27  O   LIG A   1      -3.706   3.273 128.484  0.00  0.00    -0.392 OA
ATOM     28  H   LIG A   1      -4.125   2.388 128.442  0.00  0.00    +0.210 HD
ENDBRANCH  25  27
ENDBRANCH   5  25
TORSDOF 4
ENDMDL
MODEL 9
REMARK VINA RESULT:      -6.8      4.620      6.778
REMARK  Name = NuBBE_2407
REMARK  6 active torsions:
REMARK  status: ('A' for Active; 'I' for Inactive)
REMARK    1  A    between atoms: C_1  and  O_2
REMARK    2  A    between atoms: O_2  and  C_3
REMARK    3  A    between atoms: C_3  and  C_5
REMARK    4  A    between atoms: C_10  and  C_12
REMARK    5  A    between atoms: C_12  and  C_14
REMARK    6  A    between atoms: C_12  and  O_15
REMARK                            x       y       z     vdW  Elec       q    Type
REMARK                         _______ _______ _______ _____ _____    ______ ____
ROOT
ATOM      1  C   LIG A   1      -6.563  -0.462 129.570  0.00  0.00    +0.124 C 
ATOM      2  C   LIG A   1      -5.720   0.678 130.084  0.00  0.00    +0.030 C 
ATOM      3  C   LIG A   1      -5.116   0.125 131.458  0.00  0.00    +0.005 C 
ATOM      4  C   LIG A   1      -3.766  -0.476 131.062  0.00  0.00    +0.012 C 
ATOM      5  C   LIG A   1      -4.083  -1.483 129.943  0.00  0.00    +0.036 C 
ATOM      6  C   LIG A   1      -5.639  -1.747 129.931  0.00  0.00    +0.085 C 
ATOM      7  N   LIG A   1      -6.097  -2.259 131.191  0.00  0.00    -0.297 NA
ATOM      8  C   LIG A   1      -7.467  -2.825 130.965  0.00  0.00    +0.089 C 
ATOM      9  C   LIG A   1      -8.111  -3.067 129.487  0.00  0.00    +0.053 C 
ATOM     10  C   LIG A   1      -7.776  -2.173 128.254  0.00  0.00    -0.017 A 
ATOM     11  C   LIG A   1      -7.057  -0.974 128.275  0.00  0.00    +0.039 A 
ATOM     12  N   LIG A   1      -6.885  -0.504 127.014  0.00  0.00    -0.357 N 
ATOM     13  H   LIG A   1      -6.408   0.346 126.747  0.00  0.00    +0.166 HD
ATOM     14  C   LIG A   1      -7.439  -1.406 126.128  0.00  0.00    +0.047 A 
ATOM     15  C   LIG A   1      -7.466  -1.378 124.728  0.00  0.00    +0.026 A 
ATOM     16  C   LIG A   1      -8.075  -2.448 124.067  0.00  0.00    +0.002 A 
ATOM     17  C   LIG A   1      -8.640  -3.503 124.778  0.00  0.00    +0.001 A 
ATOM     18  C   LIG A   1      -8.613  -3.516 126.177  0.00  0.00    +0.010 A 
ATOM     19  C   LIG A   1      -8.005  -2.451 126.871  0.00  0.00    +0.003 A 
ATOM     20  C   LIG A   1      -5.933  -1.104 132.135  0.00  0.00    +0.088 C 
ENDROOT
BRANCH   1  21
ATOM     21  C   LIG A   1      -7.982   0.059 130.157  0.00  0.00    +0.321 C 
ATOM     22  O   LIG A   1      -8.538  -0.241 131.207  0.00  0.00    -0.250 OA
BRANCH  21  24
ATOM     23  C   LIG A   1      -8.950   2.252 130.009  0.00  0.00    +0.280 C 
ATOM     24  O   LIG A   1      -8.443   1.085 129.357  0.00  0.00    -0.467 OA
ENDBRANCH  21  24
ENDBRANCH   1  21
BRANCH   5  25
ATOM     25  C   LIG A   1      -3.219  -2.763 130.069  0.00  0.00    +0.116 C 
ATOM     26  C   LIG A   1      -3.511  -3.816 129.003  0.00  0.00    +0.038 C 
BRANCH  25  27
ATOM     27  O   LIG A   1      -3.374  -3.375 131.347  0.00  0.00    -0.392 OA
ATOM     28  H   LIG A   1      -2.515  -3.277 131.809  0.00  0.00    +0.210 HD
ENDBRANCH  25  27
ENDBRANCH   5  25
TORSDOF 4
ENDMDL
