MODEL 1
REMARK VINA RESULT:      -6.8      0.000      0.000
REMARK  Name = NuBBE_1172
REMARK  4 active torsions:
REMARK  status: ('A' for Active; 'I' for Inactive)
REMARK    1  A    between atoms: C_6  and  O_7
REMARK    2  A    between atoms: C_8  and  O_9
REMARK    3  A    between atoms: C_14  and  O_15
REMARK    4  A    between atoms: C_16  and  O_17
REMARK                            x       y       z     vdW  Elec       q    Type
REMARK                         _______ _______ _______ _____ _____    ______ ____
ROOT
ATOM      1  O   LIG A   1      -5.744  -2.549 126.727  0.00  0.00    -0.244 OA
ATOM      2  C   LIG A   1      -6.003  -1.467 126.217  0.00  0.00    +0.345 A 
ATOM      3  O   LIG A   1      -5.247  -0.325 126.495  0.00  0.00    -0.418 OA
ATOM      4  C   LIG A   1      -7.136  -1.309 125.270  0.00  0.00    +0.074 A 
ATOM      5  C   LIG A   1      -7.937  -2.416 124.944  0.00  0.00    +0.065 A 
ATOM      6  C   LIG A   1      -8.995  -2.248 124.055  0.00  0.00    +0.163 A 
ATOM      7  C   LIG A   1      -9.260  -0.999 123.492  0.00  0.00    +0.202 A 
ATOM      8  C   LIG A   1      -8.460   0.087 123.822  0.00  0.00    +0.185 A 
ATOM      9  C   LIG A   1      -7.399  -0.059 124.708  0.00  0.00    +0.047 A 
ATOM     10  C   LIG A   1      -6.588   1.080 125.032  0.00  0.00    +0.047 A 
ATOM     11  C   LIG A   1      -5.527   0.934 125.918  0.00  0.00    +0.185 A 
ATOM     12  C   LIG A   1      -4.724   2.015 126.254  0.00  0.00    +0.202 A 
ATOM     13  C   LIG A   1      -4.991   3.261 125.692  0.00  0.00    +0.163 A 
ATOM     14  C   LIG A   1      -6.046   3.433 124.802  0.00  0.00    +0.065 A 
ATOM     15  C   LIG A   1      -6.850   2.333 124.471  0.00  0.00    +0.074 A 
ATOM     16  C   LIG A   1      -7.983   2.495 123.524  0.00  0.00    +0.345 A 
ATOM     17  O   LIG A   1      -8.732   1.350 123.250  0.00  0.00    -0.418 OA
ATOM     18  O   LIG A   1      -8.238   3.578 123.015  0.00  0.00    -0.244 OA
ENDROOT
BRANCH   6  19
ATOM     19  O   LIG A   1      -9.809  -3.287 123.700  0.00  0.00    -0.503 OA
ATOM     20  H   LIG A   1      -9.503  -4.098 124.143  0.00  0.00    +0.292 HD
ENDBRANCH   6  19
BRANCH   7  21
ATOM     21  O   LIG A   1     -10.303  -0.859 122.623  0.00  0.00    -0.501 OA
ATOM     22  H   LIG A   1     -10.892  -0.191 123.026  0.00  0.00    +0.292 HD
ENDBRANCH   7  21
BRANCH  12  23
ATOM     23  O   LIG A   1      -3.674   1.903 127.121  0.00  0.00    -0.501 OA
ATOM     24  H   LIG A   1      -3.755   2.630 127.769  0.00  0.00    +0.292 HD
ENDBRANCH  12  23
BRANCH  13  25
ATOM     25  O   LIG A   1      -4.213   4.335 126.011  0.00  0.00    -0.503 OA
ATOM     26  H   LIG A   1      -3.529   4.378 125.313  0.00  0.00    +0.292 HD
ENDBRANCH  13  25
TORSDOF 4
ENDMDL
MODEL 2
REMARK VINA RESULT:      -6.8      1.641      3.728
REMARK  Name = NuBBE_1172
REMARK  4 active torsions:
REMARK  status: ('A' for Active; 'I' for Inactive)
REMARK    1  A    between atoms: C_6  and  O_7
REMARK    2  A    between atoms: C_8  and  O_9
REMARK    3  A    between atoms: C_14  and  O_15
REMARK    4  A    between atoms: C_16  and  O_17
REMARK                            x       y       z     vdW  Elec       q    Type
REMARK                         _______ _______ _______ _____ _____    ______ ____
ROOT
ATOM      1  O   LIG A   1      -4.594   1.739 126.642  0.00  0.00    -0.244 OA
ATOM      2  C   LIG A   1      -5.540   1.622 125.875  0.00  0.00    +0.345 A 
ATOM      3  O   LIG A   1      -5.767   2.536 124.843  0.00  0.00    -0.418 OA
ATOM      4  C   LIG A   1      -6.502   0.497 126.001  0.00  0.00    +0.074 A 
ATOM      5  C   LIG A   1      -6.335  -0.460 127.015  0.00  0.00    +0.065 A 
ATOM      6  C   LIG A   1      -7.247  -1.507 127.116  0.00  0.00    +0.163 A 
ATOM      7  C   LIG A   1      -8.315  -1.608 126.224  0.00  0.00    +0.202 A 
ATOM      8  C   LIG A   1      -8.469  -0.657 125.224  0.00  0.00    +0.185 A 
ATOM      9  C   LIG A   1      -7.569   0.397 125.106  0.00  0.00    +0.047 A 
ATOM     10  C   LIG A   1      -7.752   1.367 124.065  0.00  0.00    +0.047 A 
ATOM     11  C   LIG A   1      -6.852   2.421 123.946  0.00  0.00    +0.185 A 
ATOM     12  C   LIG A   1      -7.001   3.377 122.951  0.00  0.00    +0.202 A 
ATOM     13  C   LIG A   1      -8.067   3.274 122.063  0.00  0.00    +0.163 A 
ATOM     14  C   LIG A   1      -8.981   2.229 122.159  0.00  0.00    +0.065 A 
ATOM     15  C   LIG A   1      -8.820   1.269 123.169  0.00  0.00    +0.074 A 
ATOM     16  C   LIG A   1      -9.785   0.146 123.290  0.00  0.00    +0.345 A 
ATOM     17  O   LIG A   1      -9.551  -0.763 124.323  0.00  0.00    -0.418 OA
ATOM     18  O   LIG A   1     -10.729   0.031 122.522  0.00  0.00    -0.244 OA
ENDROOT
BRANCH   6  19
ATOM     19  O   LIG A   1      -7.137  -2.467 128.082  0.00  0.00    -0.503 OA
ATOM     20  H   LIG A   1      -6.553  -2.142 128.791  0.00  0.00    +0.292 HD
ENDBRANCH   6  19
BRANCH   7  21
ATOM     21  O   LIG A   1      -9.196  -2.643 126.343  0.00  0.00    -0.501 OA
ATOM     22  H   LIG A   1      -8.766  -3.287 126.941  0.00  0.00    +0.292 HD
ENDBRANCH   7  21
BRANCH  12  23
ATOM     23  O   LIG A   1      -6.133   4.423 122.810  0.00  0.00    -0.501 OA
ATOM     24  H   LIG A   1      -6.532   5.044 122.169  0.00  0.00    +0.292 HD
ENDBRANCH  12  23
BRANCH  13  25
ATOM     25  O   LIG A   1      -8.230   4.205 121.079  0.00  0.00    -0.503 OA
ATOM     26  H   LIG A   1      -9.138   4.551 121.195  0.00  0.00    +0.292 HD
ENDBRANCH  13  25
TORSDOF 4
ENDMDL
MODEL 3
REMARK VINA RESULT:      -6.7      1.492      4.520
REMARK  Name = NuBBE_1172
REMARK  4 active torsions:
REMARK  status: ('A' for Active; 'I' for Inactive)
REMARK    1  A    between atoms: C_6  and  O_7
REMARK    2  A    between atoms: C_8  and  O_9
REMARK    3  A    between atoms: C_14  and  O_15
REMARK    4  A    between atoms: C_16  and  O_17
REMARK                            x       y       z     vdW  Elec       q    Type
REMARK                         _______ _______ _______ _____ _____    ______ ____
ROOT
ATOM      1  O   LIG A   1      -9.767  -2.665 125.478  0.00  0.00    -0.244 OA
ATOM      2  C   LIG A   1      -9.088  -1.653 125.360  0.00  0.00    +0.345 A 
ATOM      3  O   LIG A   1      -9.397  -0.668 124.418  0.00  0.00    -0.418 OA
ATOM      4  C   LIG A   1      -7.897  -1.416 126.214  0.00  0.00    +0.074 A 
ATOM      5  C   LIG A   1      -7.528  -2.365 127.183  0.00  0.00    +0.065 A 
ATOM      6  C   LIG A   1      -6.408  -2.124 127.974  0.00  0.00    +0.163 A 
ATOM      7  C   LIG A   1      -5.658  -0.958 127.811  0.00  0.00    +0.202 A 
ATOM      8  C   LIG A   1      -6.034  -0.028 126.850  0.00  0.00    +0.185 A 
ATOM      9  C   LIG A   1      -7.149  -0.249 126.049  0.00  0.00    +0.047 A 
ATOM     10  C   LIG A   1      -7.515   0.728 125.064  0.00  0.00    +0.047 A 
ATOM     11  C   LIG A   1      -8.630   0.507 124.263  0.00  0.00    +0.185 A 
ATOM     12  C   LIG A   1      -9.010   1.431 123.300  0.00  0.00    +0.202 A 
ATOM     13  C   LIG A   1      -8.260   2.593 123.138  0.00  0.00    +0.163 A 
ATOM     14  C   LIG A   1      -7.140   2.838 123.927  0.00  0.00    +0.065 A 
ATOM     15  C   LIG A   1      -6.767   1.897 124.897  0.00  0.00    +0.074 A 
ATOM     16  C   LIG A   1      -5.574   2.138 125.749  0.00  0.00    +0.345 A 
ATOM     17  O   LIG A   1      -5.273   1.150 126.688  0.00  0.00    -0.418 OA
ATOM     18  O   LIG A   1      -4.899   3.151 125.629  0.00  0.00    -0.244 OA
ENDROOT
BRANCH   6  19
ATOM     19  O   LIG A   1      -6.000  -3.009 128.932  0.00  0.00    -0.503 OA
ATOM     20  H   LIG A   1      -5.407  -2.553 129.556  0.00  0.00    +0.292 HD
ENDBRANCH   6  19
BRANCH   7  21
ATOM     21  O   LIG A   1      -4.565  -0.745 128.598  0.00  0.00    -0.501 OA
ATOM     22  H   LIG A   1      -4.258  -1.634 128.868  0.00  0.00    +0.292 HD
ENDBRANCH   7  21
BRANCH  12  23
ATOM     23  O   LIG A   1     -10.100   1.243 122.498  0.00  0.00    -0.501 OA
ATOM     24  H   LIG A   1      -9.917   1.692 121.650  0.00  0.00    +0.292 HD
ENDBRANCH  12  23
BRANCH  13  25
ATOM     25  O   LIG A   1      -8.618   3.512 122.196  0.00  0.00    -0.503 OA
ATOM     26  H   LIG A   1      -9.260   3.054 121.616  0.00  0.00    +0.292 HD
ENDBRANCH  13  25
TORSDOF 4
ENDMDL
MODEL 4
REMARK VINA RESULT:      -6.7      1.484      4.458
REMARK  Name = NuBBE_1172
REMARK  4 active torsions:
REMARK  status: ('A' for Active; 'I' for Inactive)
REMARK    1  A    between atoms: C_6  and  O_7
REMARK    2  A    between atoms: C_8  and  O_9
REMARK    3  A    between atoms: C_14  and  O_15
REMARK    4  A    between atoms: C_16  and  O_17
REMARK                            x       y       z     vdW  Elec       q    Type
REMARK                         _______ _______ _______ _____ _____    ______ ____
ROOT
ATOM      1  O   LIG A   1      -4.888   3.154 125.553  0.00  0.00    -0.244 OA
ATOM      2  C   LIG A   1      -5.567   2.144 125.682  0.00  0.00    +0.345 A 
ATOM      3  O   LIG A   1      -5.259   1.170 126.636  0.00  0.00    -0.418 OA
ATOM      4  C   LIG A   1      -6.759   1.899 124.832  0.00  0.00    +0.074 A 
ATOM      5  C   LIG A   1      -7.127   2.836 123.853  0.00  0.00    +0.065 A 
ATOM      6  C   LIG A   1      -8.249   2.588 123.065  0.00  0.00    +0.163 A 
ATOM      7  C   LIG A   1      -8.999   1.425 123.242  0.00  0.00    +0.202 A 
ATOM      8  C   LIG A   1      -8.625   0.506 124.214  0.00  0.00    +0.185 A 
ATOM      9  C   LIG A   1      -7.509   0.735 125.011  0.00  0.00    +0.047 A 
ATOM     10  C   LIG A   1      -7.143  -0.231 126.007  0.00  0.00    +0.047 A 
ATOM     11  C   LIG A   1      -6.027  -0.003 126.804  0.00  0.00    +0.185 A 
ATOM     12  C   LIG A   1      -5.646  -0.917 127.776  0.00  0.00    +0.202 A 
ATOM     13  C   LIG A   1      -6.395  -2.077 127.950  0.00  0.00    +0.163 A 
ATOM     14  C   LIG A   1      -7.517  -2.329 127.166  0.00  0.00    +0.065 A 
ATOM     15  C   LIG A   1      -7.892  -1.398 126.188  0.00  0.00    +0.074 A 
ATOM     16  C   LIG A   1      -9.085  -1.647 125.339  0.00  0.00    +0.345 A 
ATOM     17  O   LIG A   1      -9.387  -0.669 124.389  0.00  0.00    -0.418 OA
ATOM     18  O   LIG A   1      -9.763  -2.657 125.472  0.00  0.00    -0.244 OA
ENDROOT
BRANCH   6  19
ATOM     19  O   LIG A   1      -8.656   3.463 122.098  0.00  0.00    -0.503 OA
ATOM     20  H   LIG A   1      -9.008   2.960 121.341  0.00  0.00    +0.292 HD
ENDBRANCH   6  19
BRANCH   7  21
ATOM     21  O   LIG A   1     -10.093   1.204 122.458  0.00  0.00    -0.501 OA
ATOM     22  H   LIG A   1     -10.184   2.004 121.902  0.00  0.00    +0.292 HD
ENDBRANCH   7  21
BRANCH  12  23
ATOM     23  O   LIG A   1      -4.555  -0.721 128.575  0.00  0.00    -0.501 OA
ATOM     24  H   LIG A   1      -3.947  -1.472 128.424  0.00  0.00    +0.292 HD
ENDBRANCH  12  23
BRANCH  13  25
ATOM     25  O   LIG A   1      -6.035  -2.988 128.900  0.00  0.00    -0.503 OA
ATOM     26  H   LIG A   1      -5.628  -2.466 129.621  0.00  0.00    +0.292 HD
ENDBRANCH  13  25
TORSDOF 4
ENDMDL
MODEL 5
REMARK VINA RESULT:      -6.7      0.174      6.254
REMARK  Name = NuBBE_1172
REMARK  4 active torsions:
REMARK  status: ('A' for Active; 'I' for Inactive)
REMARK    1  A    between atoms: C_6  and  O_7
REMARK    2  A    between atoms: C_8  and  O_9
REMARK    3  A    between atoms: C_14  and  O_15
REMARK    4  A    between atoms: C_16  and  O_17
REMARK                            x       y       z     vdW  Elec       q    Type
REMARK                         _______ _______ _______ _____ _____    ______ ____
ROOT
ATOM      1  O   LIG A   1      -8.323   3.541 123.067  0.00  0.00    -0.244 OA
ATOM      2  C   LIG A   1      -8.010   2.458 123.542  0.00  0.00    +0.345 A 
ATOM      3  O   LIG A   1      -8.703   1.287 123.222  0.00  0.00    -0.418 OA
ATOM      4  C   LIG A   1      -6.871   2.327 124.487  0.00  0.00    +0.074 A 
ATOM      5  C   LIG A   1      -6.129   3.462 124.852  0.00  0.00    +0.065 A 
ATOM      6  C   LIG A   1      -5.065   3.318 125.738  0.00  0.00    +0.163 A 
ATOM      7  C   LIG A   1      -4.736   2.067 126.260  0.00  0.00    +0.202 A 
ATOM      8  C   LIG A   1      -5.477   0.952 125.890  0.00  0.00    +0.185 A 
ATOM      9  C   LIG A   1      -6.544   1.073 125.006  0.00  0.00    +0.047 A 
ATOM     10  C   LIG A   1      -7.294  -0.094 124.641  0.00  0.00    +0.047 A 
ATOM     11  C   LIG A   1      -8.361   0.026 123.757  0.00  0.00    +0.185 A 
ATOM     12  C   LIG A   1      -9.107  -1.083 123.385  0.00  0.00    +0.202 A 
ATOM     13  C   LIG A   1      -8.778  -2.331 123.907  0.00  0.00    +0.163 A 
ATOM     14  C   LIG A   1      -7.715  -2.478 124.793  0.00  0.00    +0.065 A 
ATOM     15  C   LIG A   1      -6.969  -1.351 125.161  0.00  0.00    +0.074 A 
ATOM     16  C   LIG A   1      -5.830  -1.486 126.106  0.00  0.00    +0.345 A 
ATOM     17  O   LIG A   1      -5.142  -0.313 126.420  0.00  0.00    -0.418 OA
ATOM     18  O   LIG A   1      -5.519  -2.571 126.578  0.00  0.00    -0.244 OA
ENDROOT
BRANCH   6  19
ATOM     19  O   LIG A   1      -4.306   4.386 126.131  0.00  0.00    -0.503 OA
ATOM     20  H   LIG A   1      -3.447   4.352 125.673  0.00  0.00    +0.292 HD
ENDBRANCH   6  19
BRANCH   7  21
ATOM     21  O   LIG A   1      -3.689   1.952 127.127  0.00  0.00    -0.501 OA
ATOM     22  H   LIG A   1      -3.957   2.444 127.929  0.00  0.00    +0.292 HD
ENDBRANCH   7  21
BRANCH  12  23
ATOM     23  O   LIG A   1     -10.160  -0.996 122.518  0.00  0.00    -0.501 OA
ATOM     24  H   LIG A   1      -9.790  -0.834 121.629  0.00  0.00    +0.292 HD
ENDBRANCH  12  23
BRANCH  13  25
ATOM     25  O   LIG A   1      -9.502  -3.432 123.553  0.00  0.00    -0.503 OA
ATOM     26  H   LIG A   1     -10.384  -3.306 123.957  0.00  0.00    +0.292 HD
ENDBRANCH  13  25
TORSDOF 4
ENDMDL
MODEL 6
REMARK VINA RESULT:      -6.7      1.330      3.926
REMARK  Name = NuBBE_1172
REMARK  4 active torsions:
REMARK  status: ('A' for Active; 'I' for Inactive)
REMARK    1  A    between atoms: C_6  and  O_7
REMARK    2  A    between atoms: C_8  and  O_9
REMARK    3  A    between atoms: C_14  and  O_15
REMARK    4  A    between atoms: C_16  and  O_17
REMARK                            x       y       z     vdW  Elec       q    Type
REMARK                         _______ _______ _______ _____ _____    ______ ____
ROOT
ATOM      1  O   LIG A   1     -10.121  -0.651 122.848  0.00  0.00    -0.244 OA
ATOM      2  C   LIG A   1      -9.212  -0.089 123.443  0.00  0.00    +0.345 A 
ATOM      3  O   LIG A   1      -8.719   1.151 123.029  0.00  0.00    -0.418 OA
ATOM      4  C   LIG A   1      -8.580  -0.697 124.642  0.00  0.00    +0.074 A 
ATOM      5  C   LIG A   1      -9.025  -1.942 125.114  0.00  0.00    +0.065 A 
ATOM      6  C   LIG A   1      -8.420  -2.495 126.240  0.00  0.00    +0.163 A 
ATOM      7  C   LIG A   1      -7.385  -1.825 126.893  0.00  0.00    +0.202 A 
ATOM      8  C   LIG A   1      -6.954  -0.594 126.416  0.00  0.00    +0.185 A 
ATOM      9  C   LIG A   1      -7.545  -0.024 125.294  0.00  0.00    +0.047 A 
ATOM     10  C   LIG A   1      -7.080   1.249 124.821  0.00  0.00    +0.047 A 
ATOM     11  C   LIG A   1      -7.671   1.819 123.699  0.00  0.00    +0.185 A 
ATOM     12  C   LIG A   1      -7.244   3.048 123.215  0.00  0.00    +0.202 A 
ATOM     13  C   LIG A   1      -6.211   3.714 123.868  0.00  0.00    +0.163 A 
ATOM     14  C   LIG A   1      -5.604   3.166 124.993  0.00  0.00    +0.065 A 
ATOM     15  C   LIG A   1      -6.043   1.924 125.472  0.00  0.00    +0.074 A 
ATOM     16  C   LIG A   1      -5.409   1.320 126.672  0.00  0.00    +0.345 A 
ATOM     17  O   LIG A   1      -5.906   0.081 127.080  0.00  0.00    -0.418 OA
ATOM     18  O   LIG A   1      -4.500   1.885 127.265  0.00  0.00    -0.244 OA
ENDROOT
BRANCH   6  19
ATOM     19  O   LIG A   1      -8.810  -3.703 126.747  0.00  0.00    -0.503 OA
ATOM     20  H   LIG A   1      -8.797  -4.367 126.035  0.00  0.00    +0.292 HD
ENDBRANCH   6  19
BRANCH   7  21
ATOM     21  O   LIG A   1      -6.808  -2.387 127.994  0.00  0.00    -0.501 OA
ATOM     22  H   LIG A   1      -5.890  -2.048 128.012  0.00  0.00    +0.292 HD
ENDBRANCH   7  21
BRANCH  12  23
ATOM     23  O   LIG A   1      -7.805   3.633 122.115  0.00  0.00    -0.501 OA
ATOM     24  H   LIG A   1      -8.143   2.914 121.546  0.00  0.00    +0.292 HD
ENDBRANCH  12  23
BRANCH  13  25
ATOM     25  O   LIG A   1      -5.778   4.923 123.406  0.00  0.00    -0.503 OA
ATOM     26  H   LIG A   1      -4.828   4.801 123.207  0.00  0.00    +0.292 HD
ENDBRANCH  13  25
TORSDOF 4
ENDMDL
MODEL 7
REMARK VINA RESULT:      -6.7      1.334      4.900
REMARK  Name = NuBBE_1172
REMARK  4 active torsions:
REMARK  status: ('A' for Active; 'I' for Inactive)
REMARK    1  A    between atoms: C_6  and  O_7
REMARK    2  A    between atoms: C_8  and  O_9
REMARK    3  A    between atoms: C_14  and  O_15
REMARK    4  A    between atoms: C_16  and  O_17
REMARK                            x       y       z     vdW  Elec       q    Type
REMARK                         _______ _______ _______ _____ _____    ______ ____
ROOT
ATOM      1  O   LIG A   1      -4.491   1.901 127.299  0.00  0.00    -0.244 OA
ATOM      2  C   LIG A   1      -5.395   1.336 126.699  0.00  0.00    +0.345 A 
ATOM      3  O   LIG A   1      -5.891   0.098 127.115  0.00  0.00    -0.418 OA
ATOM      4  C   LIG A   1      -6.018   1.938 125.492  0.00  0.00    +0.074 A 
ATOM      5  C   LIG A   1      -5.569   3.182 125.018  0.00  0.00    +0.065 A 
ATOM      6  C   LIG A   1      -6.166   3.730 123.885  0.00  0.00    +0.163 A 
ATOM      7  C   LIG A   1      -7.195   3.056 123.227  0.00  0.00    +0.202 A 
ATOM      8  C   LIG A   1      -7.630   1.828 123.706  0.00  0.00    +0.185 A 
ATOM      9  C   LIG A   1      -7.048   1.263 124.836  0.00  0.00    +0.047 A 
ATOM     10  C   LIG A   1      -7.516  -0.008 125.310  0.00  0.00    +0.047 A 
ATOM     11  C   LIG A   1      -6.934  -0.573 126.439  0.00  0.00    +0.185 A 
ATOM     12  C   LIG A   1      -7.362  -1.802 126.923  0.00  0.00    +0.202 A 
ATOM     13  C   LIG A   1      -8.388  -2.472 126.264  0.00  0.00    +0.163 A 
ATOM     14  C   LIG A   1      -8.988  -1.928 125.132  0.00  0.00    +0.065 A 
ATOM     15  C   LIG A   1      -8.547  -0.687 124.653  0.00  0.00    +0.074 A 
ATOM     16  C   LIG A   1      -9.172  -0.088 123.446  0.00  0.00    +0.345 A 
ATOM     17  O   LIG A   1      -8.672   1.149 123.037  0.00  0.00    -0.418 OA
ATOM     18  O   LIG A   1     -10.077  -0.655 122.849  0.00  0.00    -0.244 OA
ENDROOT
BRANCH   6  19
ATOM     19  O   LIG A   1      -5.773   4.936 123.377  0.00  0.00    -0.503 OA
ATOM     20  H   LIG A   1      -5.056   4.793 122.733  0.00  0.00    +0.292 HD
ENDBRANCH   6  19
BRANCH   7  21
ATOM     21  O   LIG A   1      -7.764   3.613 122.119  0.00  0.00    -0.501 OA
ATOM     22  H   LIG A   1      -7.824   2.891 121.463  0.00  0.00    +0.292 HD
ENDBRANCH   7  21
BRANCH  12  23
ATOM     23  O   LIG A   1      -6.810  -2.382 128.030  0.00  0.00    -0.501 OA
ATOM     24  H   LIG A   1      -7.459  -3.027 128.373  0.00  0.00    +0.292 HD
ENDBRANCH  12  23
BRANCH  13  25
ATOM     25  O   LIG A   1      -8.821  -3.681 126.725  0.00  0.00    -0.503 OA
ATOM     26  H   LIG A   1      -9.118  -3.519 127.643  0.00  0.00    +0.292 HD
ENDBRANCH  13  25
TORSDOF 4
ENDMDL
MODEL 8
REMARK VINA RESULT:      -6.7      1.606      5.853
REMARK  Name = NuBBE_1172
REMARK  4 active torsions:
REMARK  status: ('A' for Active; 'I' for Inactive)
REMARK    1  A    between atoms: C_6  and  O_7
REMARK    2  A    between atoms: C_8  and  O_9
REMARK    3  A    between atoms: C_14  and  O_15
REMARK    4  A    between atoms: C_16  and  O_17
REMARK                            x       y       z     vdW  Elec       q    Type
REMARK                         _______ _______ _______ _____ _____    ______ ____
ROOT
ATOM      1  O   LIG A   1      -9.805   1.032 122.502  0.00  0.00    -0.244 OA
ATOM      2  C   LIG A   1      -9.159   0.665 123.474  0.00  0.00    +0.345 A 
ATOM      3  O   LIG A   1      -9.466  -0.514 124.157  0.00  0.00    -0.418 OA
ATOM      4  C   LIG A   1      -8.007   1.455 123.980  0.00  0.00    +0.074 A 
ATOM      5  C   LIG A   1      -7.641   2.650 123.341  0.00  0.00    +0.065 A 
ATOM      6  C   LIG A   1      -6.558   3.376 123.832  0.00  0.00    +0.163 A 
ATOM      7  C   LIG A   1      -5.844   2.926 124.942  0.00  0.00    +0.202 A 
ATOM      8  C   LIG A   1      -6.216   1.741 125.564  0.00  0.00    +0.185 A 
ATOM      9  C   LIG A   1      -7.294   1.001 125.091  0.00  0.00    +0.047 A 
ATOM     10  C   LIG A   1      -7.657  -0.219 125.753  0.00  0.00    +0.047 A 
ATOM     11  C   LIG A   1      -8.735  -0.959 125.280  0.00  0.00    +0.185 A 
ATOM     12  C   LIG A   1      -9.113  -2.142 125.898  0.00  0.00    +0.202 A 
ATOM     13  C   LIG A   1      -8.400  -2.589 127.007  0.00  0.00    +0.163 A 
ATOM     14  C   LIG A   1      -7.317  -1.868 127.499  0.00  0.00    +0.065 A 
ATOM     15  C   LIG A   1      -6.944  -0.674 126.867  0.00  0.00    +0.074 A 
ATOM     16  C   LIG A   1      -5.792   0.113 127.377  0.00  0.00    +0.345 A 
ATOM     17  O   LIG A   1      -5.490   1.289 126.688  0.00  0.00    -0.418 OA
ATOM     18  O   LIG A   1      -5.147  -0.258 128.348  0.00  0.00    -0.244 OA
ENDROOT
BRANCH   6  19
ATOM     19  O   LIG A   1      -6.155   4.546 123.252  0.00  0.00    -0.503 OA
ATOM     20  H   LIG A   1      -5.456   4.356 122.601  0.00  0.00    +0.292 HD
ENDBRANCH   6  19
BRANCH   7  21
ATOM     21  O   LIG A   1      -4.787   3.655 125.404  0.00  0.00    -0.501 OA
ATOM     22  H   LIG A   1      -5.138   4.553 125.565  0.00  0.00    +0.292 HD
ENDBRANCH   7  21
BRANCH  12  23
ATOM     23  O   LIG A   1     -10.167  -2.891 125.457  0.00  0.00    -0.501 OA
ATOM     24  H   LIG A   1     -10.006  -3.091 124.514  0.00  0.00    +0.292 HD
ENDBRANCH  12  23
BRANCH  13  25
ATOM     25  O   LIG A   1      -8.758  -3.750 127.628  0.00  0.00    -0.503 OA
ATOM     26  H   LIG A   1      -9.657  -3.955 127.299  0.00  0.00    +0.292 HD
ENDBRANCH  13  25
TORSDOF 4
ENDMDL
MODEL 9
REMARK VINA RESULT:      -6.6      2.327      5.178
REMARK  Name = NuBBE_1172
REMARK  4 active torsions:
REMARK  status: ('A' for Active; 'I' for Inactive)
REMARK    1  A    between atoms: C_6  and  O_7
REMARK    2  A    between atoms: C_8  and  O_9
REMARK    3  A    between atoms: C_14  and  O_15
REMARK    4  A    between atoms: C_16  and  O_17
REMARK                            x       y       z     vdW  Elec       q    Type
REMARK                         _______ _______ _______ _____ _____    ______ ____
ROOT
ATOM      1  O   LIG A   1      -9.811  -1.447 122.688  0.00  0.00    -0.244 OA
ATOM      2  C   LIG A   1      -9.349  -1.061 123.753  0.00  0.00    +0.345 A 
ATOM      3  O   LIG A   1      -9.155  -1.932 124.828  0.00  0.00    -0.418 OA
ATOM      4  C   LIG A   1      -8.968   0.359 123.963  0.00  0.00    +0.074 A 
ATOM      5  C   LIG A   1      -9.135   1.291 122.925  0.00  0.00    +0.065 A 
ATOM      6  C   LIG A   1      -8.771   2.617 123.141  0.00  0.00    +0.163 A 
ATOM      7  C   LIG A   1      -8.248   3.021 124.369  0.00  0.00    +0.202 A 
ATOM      8  C   LIG A   1      -8.087   2.090 125.387  0.00  0.00    +0.185 A 
ATOM      9  C   LIG A   1      -8.444   0.760 125.193  0.00  0.00    +0.047 A 
ATOM     10  C   LIG A   1      -8.268  -0.181 126.261  0.00  0.00    +0.047 A 
ATOM     11  C   LIG A   1      -8.625  -1.511 126.067  0.00  0.00    +0.185 A 
ATOM     12  C   LIG A   1      -8.469  -2.446 127.081  0.00  0.00    +0.202 A 
ATOM     13  C   LIG A   1      -7.947  -2.041 128.306  0.00  0.00    +0.163 A 
ATOM     14  C   LIG A   1      -7.582  -0.717 128.526  0.00  0.00    +0.065 A 
ATOM     15  C   LIG A   1      -7.744   0.219 127.494  0.00  0.00    +0.074 A 
ATOM     16  C   LIG A   1      -7.361   1.638 127.708  0.00  0.00    +0.345 A 
ATOM     17  O   LIG A   1      -7.557   2.503 126.629  0.00  0.00    -0.418 OA
ATOM     18  O   LIG A   1      -6.899   2.021 128.774  0.00  0.00    -0.244 OA
ENDROOT
BRANCH   6  19
ATOM     19  O   LIG A   1      -8.910   3.569 122.169  0.00  0.00    -0.503 OA
ATOM     20  H   LIG A   1      -9.826   3.898 122.174  0.00  0.00    +0.292 HD
ENDBRANCH   6  19
BRANCH   7  21
ATOM     21  O   LIG A   1      -7.899   4.327 124.557  0.00  0.00    -0.501 OA
ATOM     22  H   LIG A   1      -7.640   4.659 123.674  0.00  0.00    +0.292 HD
ENDBRANCH   7  21
BRANCH  12  23
ATOM     23  O   LIG A   1      -8.810  -3.760 126.920  0.00  0.00    -0.501 OA
ATOM     24  H   LIG A   1      -9.708  -3.872 127.287  0.00  0.00    +0.292 HD
ENDBRANCH  12  23
BRANCH  13  25
ATOM     25  O   LIG A   1      -7.788  -2.947 129.314  0.00  0.00    -0.503 OA
ATOM     26  H   LIG A   1      -7.466  -3.764 128.882  0.00  0.00    +0.292 HD
ENDBRANCH  13  25
TORSDOF 4
ENDMDL
