MODEL 1
REMARK VINA RESULT:      -7.6      0.000      0.000
REMARK  Name = NuBBE_49
REMARK  21 active torsions:
REMARK  status: ('A' for Active; 'I' for Inactive)
REMARK    1  A    between atoms: O_1  and  C_2
REMARK    2  A    between atoms: C_6  and  O_8
REMARK    3  A    between atoms: O_8  and  C_9
REMARK    4  A    between atoms: C_9  and  C_10
REMARK    5  A    between atoms: C_10  and  C_11
REMARK    6  A    between atoms: C_11  and  C_12
REMARK    7  A    between atoms: C_15  and  O_17
REMARK    8  A    between atoms: O_17  and  C_18
REMARK    9  A    between atoms: C_18  and  C_19
REMARK   10  A    between atoms: C_22  and  O_24
REMARK   11  A    between atoms: C_25  and  O_27
REMARK   12  A    between atoms: O_27  and  C_28
REMARK   13  A    between atoms: C_28  and  C_29
REMARK   14  A    between atoms: C_29  and  C_30
REMARK   15  A    between atoms: C_30  and  C_31
REMARK   16  A    between atoms: C_33  and  C_35
REMARK   17  A    between atoms: C_36  and  C_37
REMARK   18  A    between atoms: C_36  and  C_38
REMARK   19  A    between atoms: C_38  and  C_39
REMARK   20  A    between atoms: C_40  and  C_41
REMARK   21  A    between atoms: C_40  and  C_43
REMARK                            x       y       z     vdW  Elec       q    Type
REMARK                         _______ _______ _______ _____ _____    ______ ____
ROOT
ATOM      1  C   LIG A   1      -5.743   6.210 131.454  0.00  0.00    +0.138 C 
ATOM      2  C   LIG A   1      -7.115   6.640 131.135  0.00  0.00    +0.010 C 
ATOM      3  C   LIG A   1      -8.031   5.868 130.538  0.00  0.00    +0.011 C 
ATOM      4  C   LIG A   1      -9.380   6.316 130.040  0.00  0.00    +0.343 C 
ATOM      5  O   LIG A   1      -9.689   5.427 128.963  0.00  0.00    -0.297 OA
ATOM      6  C   LIG A   1      -8.601   4.500 128.796  0.00  0.00    +0.327 C 
ATOM      7  C   LIG A   1      -7.834   4.406 130.173  0.00  0.00    +0.093 C 
ATOM      8  C   LIG A   1      -8.610   3.582 131.263  0.00  0.00    +0.172 C 
ATOM      9  C   LIG A   1      -7.979   2.259 131.737  0.00  0.00    +0.209 C 
ATOM     10  C   LIG A   1      -7.141   1.537 130.659  0.00  0.00    +0.036 C 
ATOM     11  C   LIG A   1      -8.069   0.831 129.656  0.00  0.00    +0.012 C 
ATOM     12  C   LIG A   1      -5.984   2.415 130.026  0.00  0.00    -0.019 C 
ATOM     13  C   LIG A   1      -4.722   2.026 130.858  0.00  0.00    +0.012 C 
ATOM     14  C   LIG A   1      -6.321   4.001 130.043  0.00  0.00    +0.017 C 
ATOM     15  C   LIG A   1      -5.277   4.918 130.777  0.00  0.00    +0.040 C 
ENDROOT
BRANCH   1  16
ATOM     16  O   LIG A   1      -4.880   7.281 131.065  0.00  0.00    -0.388 OA
ATOM     17  H   LIG A   1      -5.435   7.978 130.671  0.00  0.00    +0.210 HD
ENDBRANCH   1  16
BRANCH   8  18
ATOM     18  O   LIG A   1      -9.952   3.314 130.844  0.00  0.00    -0.387 OA
ATOM     19  H   LIG A   1     -10.488   3.156 131.646  0.00  0.00    +0.210 HD
ENDBRANCH   8  18
BRANCH   4  20
ATOM     20  O   LIG A   1      -9.339   7.651 129.543  0.00  0.00    -0.431 OA
BRANCH  20  21
ATOM     21  C   LIG A   1     -10.429   8.058 128.835  0.00  0.00    +0.309 C 
ATOM     22  O   LIG A   1     -10.426   8.427 127.683  0.00  0.00    -0.251 OA
BRANCH  21  23
ATOM     23  C   LIG A   1     -11.683   8.000 129.691  0.00  0.00    +0.120 C 
BRANCH  23  24
ATOM     24  C   LIG A   1     -12.915   8.643 129.054  0.00  0.00    +0.008 C 
ATOM     25  C   LIG A   1     -13.164  10.072 129.519  0.00  0.00    +0.004 C 
ENDBRANCH  23  24
ENDBRANCH  21  23
ENDBRANCH  20  21
ENDBRANCH   4  20
BRANCH   6  26
ATOM     26  O   LIG A   1      -7.749   4.978 127.730  0.00  0.00    -0.434 OA
BRANCH  26  27
ATOM     27  C   LIG A   1      -8.245   4.831 126.471  0.00  0.00    +0.306 C 
ATOM     28  C   LIG A   1      -7.806   3.522 125.874  0.00  0.00    +0.136 C 
ATOM     29  O   LIG A   1      -8.944   5.633 125.877  0.00  0.00    -0.251 OA
ENDBRANCH  26  27
ENDBRANCH   6  26
BRANCH   9  30
ATOM     30  O   LIG A   1      -7.226   2.522 132.958  0.00  0.00    -0.458 OA
BRANCH  30  31
ATOM     31  C   LIG A   1      -7.842   3.400 133.824  0.00  0.00    +0.307 C 
ATOM     32  O   LIG A   1      -9.054   3.411 134.036  0.00  0.00    -0.251 OA
BRANCH  31  33
ATOM     33  C   LIG A   1      -6.856   4.369 134.452  0.00  0.00    +0.120 C 
BRANCH  33  34
ATOM     34  C   LIG A   1      -7.463   5.731 134.843  0.00  0.00    +0.008 C 
ATOM     35  C   LIG A   1      -7.661   5.965 136.337  0.00  0.00    +0.004 C 
ENDBRANCH  33  34
ENDBRANCH  31  33
ENDBRANCH  30  31
ENDBRANCH   9  30
BRANCH  12  36
ATOM     36  C   LIG A   1      -5.617   1.967 128.532  0.00  0.00    +0.034 C 
BRANCH  36  37
ATOM     37  C   LIG A   1      -4.170   2.235 128.147  0.00  0.00    -0.023 C 
ATOM     38  C   LIG A   1      -3.607   3.252 127.469  0.00  0.00    -0.055 C 
ATOM     39  C   LIG A   1      -2.101   3.276 127.294  0.00  0.00    +0.043 C 
BRANCH  38  40
ATOM     40  C   LIG A   1      -4.344   4.359 126.892  0.00  0.00    -0.005 C 
ATOM     41  C   LIG A   1      -4.228   5.615 127.350  0.00  0.00    +0.008 C 
ENDBRANCH  38  40
ENDBRANCH  36  37
ENDBRANCH  12  36
TORSDOF 15
ENDMDL
MODEL 2
REMARK VINA RESULT:      -7.4      4.171      7.015
REMARK  Name = NuBBE_49
REMARK  21 active torsions:
REMARK  status: ('A' for Active; 'I' for Inactive)
REMARK    1  A    between atoms: O_1  and  C_2
REMARK    2  A    between atoms: C_6  and  O_8
REMARK    3  A    between atoms: O_8  and  C_9
REMARK    4  A    between atoms: C_9  and  C_10
REMARK    5  A    between atoms: C_10  and  C_11
REMARK    6  A    between atoms: C_11  and  C_12
REMARK    7  A    between atoms: C_15  and  O_17
REMARK    8  A    between atoms: O_17  and  C_18
REMARK    9  A    between atoms: C_18  and  C_19
REMARK   10  A    between atoms: C_22  and  O_24
REMARK   11  A    between atoms: C_25  and  O_27
REMARK   12  A    between atoms: O_27  and  C_28
REMARK   13  A    between atoms: C_28  and  C_29
REMARK   14  A    between atoms: C_29  and  C_30
REMARK   15  A    between atoms: C_30  and  C_31
REMARK   16  A    between atoms: C_33  and  C_35
REMARK   17  A    between atoms: C_36  and  C_37
REMARK   18  A    between atoms: C_36  and  C_38
REMARK   19  A    between atoms: C_38  and  C_39
REMARK   20  A    between atoms: C_40  and  C_41
REMARK   21  A    between atoms: C_40  and  C_43
REMARK                            x       y       z     vdW  Elec       q    Type
REMARK                         _______ _______ _______ _____ _____    ______ ____
ROOT
ATOM      1  C   LIG A   1      -4.851   3.133 126.125  0.00  0.00    +0.138 C 
ATOM      2  C   LIG A   1      -5.827   3.087 125.022  0.00  0.00    +0.010 C 
ATOM      3  C   LIG A   1      -6.733   2.118 124.854  0.00  0.00    +0.011 C 
ATOM      4  C   LIG A   1      -7.628   1.940 123.656  0.00  0.00    +0.343 C 
ATOM      5  O   LIG A   1      -7.894   0.536 123.600  0.00  0.00    -0.297 OA
ATOM      6  C   LIG A   1      -7.201  -0.114 124.681  0.00  0.00    +0.327 C 
ATOM      7  C   LIG A   1      -6.960   0.960 125.812  0.00  0.00    +0.093 C 
ATOM      8  C   LIG A   1      -8.261   1.317 126.618  0.00  0.00    +0.172 C 
ATOM      9  C   LIG A   1      -8.302   0.931 128.109  0.00  0.00    +0.209 C 
ATOM     10  C   LIG A   1      -7.489  -0.336 128.456  0.00  0.00    +0.036 C 
ATOM     11  C   LIG A   1      -8.263  -1.593 128.023  0.00  0.00    +0.012 C 
ATOM     12  C   LIG A   1      -5.967  -0.282 128.020  0.00  0.00    -0.019 C 
ATOM     13  C   LIG A   1      -5.227   0.196 129.310  0.00  0.00    +0.012 C 
ATOM     14  C   LIG A   1      -5.718   0.665 126.729  0.00  0.00    +0.017 C 
ATOM     15  C   LIG A   1      -4.688   1.836 126.922  0.00  0.00    +0.040 C 
ENDROOT
BRANCH   1  16
ATOM     16  O   LIG A   1      -3.594   3.488 125.544  0.00  0.00    -0.388 OA
ATOM     17  H   LIG A   1      -3.407   4.412 125.790  0.00  0.00    +0.210 HD
ENDBRANCH   1  16
BRANCH   8  18
ATOM     18  O   LIG A   1      -9.423   0.776 125.982  0.00  0.00    -0.387 OA
ATOM     19  H   LIG A   1      -9.249  -0.167 125.798  0.00  0.00    +0.210 HD
ENDBRANCH   8  18
BRANCH   4  20
ATOM     20  O   LIG A   1      -6.979   2.338 122.451  0.00  0.00    -0.431 OA
BRANCH  20  21
ATOM     21  C   LIG A   1      -7.648   3.242 121.683  0.00  0.00    +0.309 C 
ATOM     22  O   LIG A   1      -8.834   3.472 121.735  0.00  0.00    -0.251 OA
BRANCH  21  23
ATOM     23  C   LIG A   1      -6.703   3.939 120.719  0.00  0.00    +0.120 C 
BRANCH  23  24
ATOM     24  C   LIG A   1      -5.222   3.657 120.970  0.00  0.00    +0.008 C 
ATOM     25  C   LIG A   1      -4.519   4.756 121.756  0.00  0.00    +0.004 C 
ENDBRANCH  23  24
ENDBRANCH  21  23
ENDBRANCH  20  21
ENDBRANCH   4  20
BRANCH   6  26
ATOM     26  O   LIG A   1      -5.961  -0.656 124.172  0.00  0.00    -0.434 OA
BRANCH  26  27
ATOM     27  C   LIG A   1      -6.070  -1.822 123.476  0.00  0.00    +0.306 C 
ATOM     28  C   LIG A   1      -6.035  -3.003 124.406  0.00  0.00    +0.136 C 
ATOM     29  O   LIG A   1      -6.176  -1.928 122.267  0.00  0.00    -0.251 OA
ENDBRANCH  26  27
ENDBRANCH   6  26
BRANCH   9  30
ATOM     30  O   LIG A   1      -7.903   2.093 128.895  0.00  0.00    -0.458 OA
BRANCH  30  31
ATOM     31  C   LIG A   1      -8.859   2.526 129.788  0.00  0.00    +0.307 C 
ATOM     32  O   LIG A   1      -9.875   3.134 129.457  0.00  0.00    -0.251 OA
BRANCH  31  33
ATOM     33  C   LIG A   1      -8.490   2.197 131.224  0.00  0.00    +0.120 C 
BRANCH  33  34
ATOM     34  C   LIG A   1      -9.339   1.077 131.859  0.00  0.00    +0.008 C 
ATOM     35  C   LIG A   1      -8.688  -0.301 131.909  0.00  0.00    +0.004 C 
ENDBRANCH  33  34
ENDBRANCH  31  33
ENDBRANCH  30  31
ENDBRANCH   9  30
BRANCH  12  36
ATOM     36  C   LIG A   1      -5.354  -1.736 127.739  0.00  0.00    +0.034 C 
BRANCH  36  37
ATOM     37  C   LIG A   1      -4.499  -2.274 128.876  0.00  0.00    -0.023 C 
ATOM     38  C   LIG A   1      -4.763  -3.184 129.831  0.00  0.00    -0.055 C 
ATOM     39  C   LIG A   1      -3.668  -3.568 130.806  0.00  0.00    +0.043 C 
BRANCH  38  40
ATOM     40  C   LIG A   1      -6.041  -3.850 129.995  0.00  0.00    -0.005 C 
ATOM     41  C   LIG A   1      -6.972  -3.414 130.857  0.00  0.00    +0.008 C 
ENDBRANCH  38  40
ENDBRANCH  36  37
ENDBRANCH  12  36
TORSDOF 15
ENDMDL
MODEL 3
REMARK VINA RESULT:      -7.3      3.197      7.425
REMARK  Name = NuBBE_49
REMARK  21 active torsions:
REMARK  status: ('A' for Active; 'I' for Inactive)
REMARK    1  A    between atoms: O_1  and  C_2
REMARK    2  A    between atoms: C_6  and  O_8
REMARK    3  A    between atoms: O_8  and  C_9
REMARK    4  A    between atoms: C_9  and  C_10
REMARK    5  A    between atoms: C_10  and  C_11
REMARK    6  A    between atoms: C_11  and  C_12
REMARK    7  A    between atoms: C_15  and  O_17
REMARK    8  A    between atoms: O_17  and  C_18
REMARK    9  A    between atoms: C_18  and  C_19
REMARK   10  A    between atoms: C_22  and  O_24
REMARK   11  A    between atoms: C_25  and  O_27
REMARK   12  A    between atoms: O_27  and  C_28
REMARK   13  A    between atoms: C_28  and  C_29
REMARK   14  A    between atoms: C_29  and  C_30
REMARK   15  A    between atoms: C_30  and  C_31
REMARK   16  A    between atoms: C_33  and  C_35
REMARK   17  A    between atoms: C_36  and  C_37
REMARK   18  A    between atoms: C_36  and  C_38
REMARK   19  A    between atoms: C_38  and  C_39
REMARK   20  A    between atoms: C_40  and  C_41
REMARK   21  A    between atoms: C_40  and  C_43
REMARK                            x       y       z     vdW  Elec       q    Type
REMARK                         _______ _______ _______ _____ _____    ______ ____
ROOT
ATOM      1  C   LIG A   1      -7.452   4.635 125.370  0.00  0.00    +0.138 C 
ATOM      2  C   LIG A   1      -6.118   5.086 125.803  0.00  0.00    +0.010 C 
ATOM      3  C   LIG A   1      -5.368   4.461 126.717  0.00  0.00    +0.011 C 
ATOM      4  C   LIG A   1      -4.084   4.976 127.312  0.00  0.00    +0.343 C 
ATOM      5  O   LIG A   1      -4.014   4.379 128.610  0.00  0.00    -0.297 OA
ATOM      6  C   LIG A   1      -5.180   3.560 128.811  0.00  0.00    +0.327 C 
ATOM      7  C   LIG A   1      -5.727   3.146 127.389  0.00  0.00    +0.093 C 
ATOM      8  C   LIG A   1      -4.853   2.048 126.682  0.00  0.00    +0.172 C 
ATOM      9  C   LIG A   1      -5.498   0.669 126.444  0.00  0.00    +0.209 C 
ATOM     10  C   LIG A   1      -6.546   0.271 127.507  0.00  0.00    +0.036 C 
ATOM     11  C   LIG A   1      -5.842  -0.188 128.795  0.00  0.00    +0.012 C 
ATOM     12  C   LIG A   1      -7.719   1.318 127.701  0.00  0.00    -0.019 C 
ATOM     13  C   LIG A   1      -8.861   0.773 126.787  0.00  0.00    +0.012 C 
ATOM     14  C   LIG A   1      -7.268   2.836 127.354  0.00  0.00    +0.017 C 
ATOM     15  C   LIG A   1      -8.112   3.571 126.252  0.00  0.00    +0.040 C 
ENDROOT
BRANCH   1  16
ATOM     16  O   LIG A   1      -8.284   5.797 125.333  0.00  0.00    -0.388 OA
ATOM     17  H   LIG A   1      -8.944   5.664 124.629  0.00  0.00    +0.210 HD
ENDBRANCH   1  16
BRANCH   8  18
ATOM     18  O   LIG A   1      -3.617   1.851 127.375  0.00  0.00    -0.387 OA
ATOM     19  H   LIG A   1      -3.789   1.975 128.330  0.00  0.00    +0.210 HD
ENDBRANCH   8  18
BRANCH   4  20
ATOM     20  O   LIG A   1      -4.103   6.394 127.454  0.00  0.00    -0.431 OA
BRANCH  20  21
ATOM     21  C   LIG A   1      -3.154   6.925 128.276  0.00  0.00    +0.309 C 
ATOM     22  O   LIG A   1      -1.989   6.602 128.311  0.00  0.00    -0.251 OA
BRANCH  21  23
ATOM     23  C   LIG A   1      -3.752   7.995 129.173  0.00  0.00    +0.120 C 
BRANCH  23  24
ATOM     24  C   LIG A   1      -4.567   7.454 130.348  0.00  0.00    +0.008 C 
ATOM     25  C   LIG A   1      -3.719   6.771 131.412  0.00  0.00    +0.004 C 
ENDBRANCH  23  24
ENDBRANCH  21  23
ENDBRANCH  20  21
ENDBRANCH   4  20
BRANCH   6  26
ATOM     26  O   LIG A   1      -6.150   4.320 129.567  0.00  0.00    -0.434 OA
BRANCH  26  27
ATOM     27  C   LIG A   1      -6.191   4.058 130.903  0.00  0.00    +0.306 C 
ATOM     28  C   LIG A   1      -5.573   2.720 131.203  0.00  0.00    +0.136 C 
ATOM     29  O   LIG A   1      -6.661   4.783 131.761  0.00  0.00    -0.251 OA
ENDBRANCH  26  27
ENDBRANCH   6  26
BRANCH   9  30
ATOM     30  O   LIG A   1      -6.029   0.639 125.086  0.00  0.00    -0.458 OA
BRANCH  30  31
ATOM     31  C   LIG A   1      -6.455  -0.604 124.674  0.00  0.00    +0.307 C 
ATOM     32  O   LIG A   1      -7.605  -0.845 124.309  0.00  0.00    -0.251 OA
BRANCH  31  33
ATOM     33  C   LIG A   1      -5.351  -1.644 124.757  0.00  0.00    +0.120 C 
BRANCH  33  34
ATOM     34  C   LIG A   1      -5.400  -2.716 123.650  0.00  0.00    +0.008 C 
ATOM     35  C   LIG A   1      -4.498  -3.928 123.861  0.00  0.00    +0.004 C 
ENDBRANCH  33  34
ENDBRANCH  31  33
ENDBRANCH  30  31
ENDBRANCH   9  30
BRANCH  12  36
ATOM     36  C   LIG A   1      -8.348   1.275 129.174  0.00  0.00    +0.034 C 
BRANCH  36  37
ATOM     37  C   LIG A   1      -9.158   2.510 129.534  0.00  0.00    -0.023 C 
ATOM     38  C   LIG A   1      -9.674   2.922 130.707  0.00  0.00    -0.055 C 
ATOM     39  C   LIG A   1     -10.392   4.256 130.768  0.00  0.00    +0.043 C 
BRANCH  38  40
ATOM     40  C   LIG A   1      -9.582   2.177 131.948  0.00  0.00    -0.005 C 
ATOM     41  C   LIG A   1      -9.259   2.761 133.112  0.00  0.00    +0.008 C 
ENDBRANCH  38  40
ENDBRANCH  36  37
ENDBRANCH  12  36
TORSDOF 15
ENDMDL
MODEL 4
REMARK VINA RESULT:      -7.2      2.287      6.803
REMARK  Name = NuBBE_49
REMARK  21 active torsions:
REMARK  status: ('A' for Active; 'I' for Inactive)
REMARK    1  A    between atoms: O_1  and  C_2
REMARK    2  A    between atoms: C_6  and  O_8
REMARK    3  A    between atoms: O_8  and  C_9
REMARK    4  A    between atoms: C_9  and  C_10
REMARK    5  A    between atoms: C_10  and  C_11
REMARK    6  A    between atoms: C_11  and  C_12
REMARK    7  A    between atoms: C_15  and  O_17
REMARK    8  A    between atoms: O_17  and  C_18
REMARK    9  A    between atoms: C_18  and  C_19
REMARK   10  A    between atoms: C_22  and  O_24
REMARK   11  A    between atoms: C_25  and  O_27
REMARK   12  A    between atoms: O_27  and  C_28
REMARK   13  A    between atoms: C_28  and  C_29
REMARK   14  A    between atoms: C_29  and  C_30
REMARK   15  A    between atoms: C_30  and  C_31
REMARK   16  A    between atoms: C_33  and  C_35
REMARK   17  A    between atoms: C_36  and  C_37
REMARK   18  A    between atoms: C_36  and  C_38
REMARK   19  A    between atoms: C_38  and  C_39
REMARK   20  A    between atoms: C_40  and  C_41
REMARK   21  A    between atoms: C_40  and  C_43
REMARK                            x       y       z     vdW  Elec       q    Type
REMARK                         _______ _______ _______ _____ _____    ______ ____
ROOT
ATOM      1  C   LIG A   1      -7.948   3.233 128.176  0.00  0.00    +0.138 C 
ATOM      2  C   LIG A   1      -8.029   2.007 128.989  0.00  0.00    +0.010 C 
ATOM      3  C   LIG A   1      -8.026   1.984 130.326  0.00  0.00    +0.011 C 
ATOM      4  C   LIG A   1      -7.935   0.755 131.192  0.00  0.00    +0.343 C 
ATOM      5  O   LIG A   1      -7.319   1.202 132.403  0.00  0.00    -0.297 OA
ATOM      6  C   LIG A   1      -7.037   2.609 132.292  0.00  0.00    +0.327 C 
ATOM      7  C   LIG A   1      -8.025   3.214 131.220  0.00  0.00    +0.093 C 
ATOM      8  C   LIG A   1      -9.498   3.365 131.746  0.00  0.00    +0.172 C 
ATOM      9  C   LIG A   1     -10.059   4.792 131.892  0.00  0.00    +0.209 C 
ATOM     10  C   LIG A   1      -8.993   5.857 132.232  0.00  0.00    +0.036 C 
ATOM     11  C   LIG A   1      -8.612   5.766 133.719  0.00  0.00    +0.012 C 
ATOM     12  C   LIG A   1      -7.780   5.924 131.214  0.00  0.00    -0.019 C 
ATOM     13  C   LIG A   1      -8.185   7.062 130.224  0.00  0.00    +0.012 C 
ATOM     14  C   LIG A   1      -7.485   4.501 130.496  0.00  0.00    +0.017 C 
ATOM     15  C   LIG A   1      -7.527   4.500 128.926  0.00  0.00    +0.040 C 
ENDROOT
BRANCH   1  16
ATOM     16  O   LIG A   1      -7.005   2.969 127.134  0.00  0.00    -0.388 OA
ATOM     17  H   LIG A   1      -7.117   2.039 126.865  0.00  0.00    +0.210 HD
ENDBRANCH   1  16
BRANCH   8  18
ATOM     18  O   LIG A   1      -9.668   2.686 132.995  0.00  0.00    -0.387 OA
ATOM     19  H   LIG A   1     -10.325   1.976 132.860  0.00  0.00    +0.210 HD
ENDBRANCH   8  18
BRANCH   4  20
ATOM     20  O   LIG A   1      -7.114  -0.247 130.596  0.00  0.00    -0.431 OA
BRANCH  20  21
ATOM     21  C   LIG A   1      -7.615  -1.513 130.607  0.00  0.00    +0.309 C 
ATOM     22  O   LIG A   1      -7.833  -2.178 131.593  0.00  0.00    -0.251 OA
BRANCH  21  23
ATOM     23  C   LIG A   1      -7.867  -2.007 129.192  0.00  0.00    +0.120 C 
BRANCH  23  24
ATOM     24  C   LIG A   1      -7.999  -3.525 129.066  0.00  0.00    +0.008 C 
ATOM     25  C   LIG A   1      -8.945  -3.962 127.955  0.00  0.00    +0.004 C 
ENDBRANCH  23  24
ENDBRANCH  21  23
ENDBRANCH  20  21
ENDBRANCH   4  20
BRANCH   6  26
ATOM     26  O   LIG A   1      -5.652   2.771 131.908  0.00  0.00    -0.434 OA
BRANCH  26  27
ATOM     27  C   LIG A   1      -4.785   3.021 132.927  0.00  0.00    +0.306 C 
ATOM     28  C   LIG A   1      -5.495   3.665 134.086  0.00  0.00    +0.136 C 
ATOM     29  O   LIG A   1      -3.591   2.774 132.929  0.00  0.00    -0.251 OA
ENDBRANCH  26  27
ENDBRANCH   6  26
BRANCH   9  30
ATOM     30  O   LIG A   1     -10.816   5.113 130.688  0.00  0.00    -0.458 OA
BRANCH  30  31
ATOM     31  C   LIG A   1     -11.759   6.102 130.860  0.00  0.00    +0.307 C 
ATOM     32  O   LIG A   1     -12.232   6.411 131.952  0.00  0.00    -0.251 OA
BRANCH  31  33
ATOM     33  C   LIG A   1     -12.168   6.737 129.542  0.00  0.00    +0.120 C 
BRANCH  33  34
ATOM     34  C   LIG A   1     -11.660   8.179 129.345  0.00  0.00    +0.008 C 
ATOM     35  C   LIG A   1     -10.833   8.424 128.086  0.00  0.00    +0.004 C 
ENDBRANCH  33  34
ENDBRANCH  31  33
ENDBRANCH  30  31
ENDBRANCH   9  30
BRANCH  12  36
ATOM     36  C   LIG A   1      -6.433   6.465 131.893  0.00  0.00    +0.034 C 
BRANCH  36  37
ATOM     37  C   LIG A   1      -5.503   7.183 130.929  0.00  0.00    -0.023 C 
ATOM     38  C   LIG A   1      -4.399   6.764 130.283  0.00  0.00    -0.055 C 
ATOM     39  C   LIG A   1      -3.706   7.707 129.318  0.00  0.00    +0.043 C 
BRANCH  38  40
ATOM     40  C   LIG A   1      -3.816   5.444 130.431  0.00  0.00    -0.005 C 
ATOM     41  C   LIG A   1      -3.794   4.553 129.429  0.00  0.00    +0.008 C 
ENDBRANCH  38  40
ENDBRANCH  36  37
ENDBRANCH  12  36
TORSDOF 15
ENDMDL
MODEL 5
REMARK VINA RESULT:      -7.0      4.601      8.567
REMARK  Name = NuBBE_49
REMARK  21 active torsions:
REMARK  status: ('A' for Active; 'I' for Inactive)
REMARK    1  A    between atoms: O_1  and  C_2
REMARK    2  A    between atoms: C_6  and  O_8
REMARK    3  A    between atoms: O_8  and  C_9
REMARK    4  A    between atoms: C_9  and  C_10
REMARK    5  A    between atoms: C_10  and  C_11
REMARK    6  A    between atoms: C_11  and  C_12
REMARK    7  A    between atoms: C_15  and  O_17
REMARK    8  A    between atoms: O_17  and  C_18
REMARK    9  A    between atoms: C_18  and  C_19
REMARK   10  A    between atoms: C_22  and  O_24
REMARK   11  A    between atoms: C_25  and  O_27
REMARK   12  A    between atoms: O_27  and  C_28
REMARK   13  A    between atoms: C_28  and  C_29
REMARK   14  A    between atoms: C_29  and  C_30
REMARK   15  A    between atoms: C_30  and  C_31
REMARK   16  A    between atoms: C_33  and  C_35
REMARK   17  A    between atoms: C_36  and  C_37
REMARK   18  A    between atoms: C_36  and  C_38
REMARK   19  A    between atoms: C_38  and  C_39
REMARK   20  A    between atoms: C_40  and  C_41
REMARK   21  A    between atoms: C_40  and  C_43
REMARK                            x       y       z     vdW  Elec       q    Type
REMARK                         _______ _______ _______ _____ _____    ______ ____
ROOT
ATOM      1  C   LIG A   1      -8.073  -3.315 128.587  0.00  0.00    +0.138 C 
ATOM      2  C   LIG A   1      -7.414  -2.848 127.355  0.00  0.00    +0.010 C 
ATOM      3  C   LIG A   1      -6.895  -1.626 127.192  0.00  0.00    +0.011 C 
ATOM      4  C   LIG A   1      -6.369  -1.050 125.904  0.00  0.00    +0.343 C 
ATOM      5  O   LIG A   1      -6.552   0.362 126.029  0.00  0.00    -0.297 OA
ATOM      6  C   LIG A   1      -7.161   0.643 127.302  0.00  0.00    +0.327 C 
ATOM      7  C   LIG A   1      -6.825  -0.556 128.271  0.00  0.00    +0.093 C 
ATOM      8  C   LIG A   1      -5.337  -0.551 128.776  0.00  0.00    +0.172 C 
ATOM      9  C   LIG A   1      -5.097  -0.320 130.280  0.00  0.00    +0.209 C 
ATOM     10  C   LIG A   1      -6.158   0.575 130.958  0.00  0.00    +0.036 C 
ATOM     11  C   LIG A   1      -5.904   2.051 130.607  0.00  0.00    +0.012 C 
ATOM     12  C   LIG A   1      -7.651   0.074 130.786  0.00  0.00    -0.019 C 
ATOM     13  C   LIG A   1      -7.924  -0.742 132.089  0.00  0.00    +0.012 C 
ATOM     14  C   LIG A   1      -7.875  -0.772 129.421  0.00  0.00    +0.017 C 
ATOM     15  C   LIG A   1      -8.443  -2.226 129.597  0.00  0.00    +0.040 C 
ENDROOT
BRANCH   1  16
ATOM     16  O   LIG A   1      -9.260  -3.999 128.179  0.00  0.00    -0.388 OA
ATOM     17  H   LIG A   1     -10.014  -3.404 128.343  0.00  0.00    +0.210 HD
ENDBRANCH   1  16
BRANCH   8  18
ATOM     18  O   LIG A   1      -4.552   0.397 128.045  0.00  0.00    -0.387 OA
ATOM     19  H   LIG A   1      -4.713   1.279 128.435  0.00  0.00    +0.210 HD
ENDBRANCH   8  18
BRANCH   4  20
ATOM     20  O   LIG A   1      -7.111  -1.517 124.779  0.00  0.00    -0.431 OA
BRANCH  20  21
ATOM     21  C   LIG A   1      -6.378  -1.882 123.690  0.00  0.00    +0.309 C 
ATOM     22  O   LIG A   1      -6.669  -1.663 122.538  0.00  0.00    -0.251 OA
BRANCH  21  23
ATOM     23  C   LIG A   1      -5.119  -2.624 124.109  0.00  0.00    +0.120 C 
BRANCH  23  24
ATOM     24  C   LIG A   1      -5.252  -4.147 124.108  0.00  0.00    +0.008 C 
ATOM     25  C   LIG A   1      -4.105  -4.857 123.401  0.00  0.00    +0.004 C 
ENDBRANCH  23  24
ENDBRANCH  21  23
ENDBRANCH  20  21
ENDBRANCH   4  20
BRANCH   6  26
ATOM     26  O   LIG A   1      -8.585   0.802 127.105  0.00  0.00    -0.434 OA
BRANCH  26  27
ATOM     27  C   LIG A   1      -8.950   1.617 126.077  0.00  0.00    +0.306 C 
ATOM     28  C   LIG A   1      -9.771   0.864 125.066  0.00  0.00    +0.136 C 
ATOM     29  O   LIG A   1      -8.664   2.795 125.960  0.00  0.00    -0.251 OA
ENDBRANCH  26  27
ENDBRANCH   6  26
BRANCH   9  30
ATOM     30  O   LIG A   1      -4.956  -1.620 130.926  0.00  0.00    -0.458 OA
BRANCH  30  31
ATOM     31  C   LIG A   1      -3.936  -2.395 130.418  0.00  0.00    +0.307 C 
ATOM     32  O   LIG A   1      -2.756  -2.047 130.406  0.00  0.00    -0.251 OA
BRANCH  31  33
ATOM     33  C   LIG A   1      -4.445  -3.706 129.846  0.00  0.00    +0.120 C 
BRANCH  33  34
ATOM     34  C   LIG A   1      -5.525  -4.398 130.703  0.00  0.00    +0.008 C 
ATOM     35  C   LIG A   1      -5.054  -4.949 132.045  0.00  0.00    +0.004 C 
ENDBRANCH  33  34
ENDBRANCH  31  33
ENDBRANCH  30  31
ENDBRANCH   9  30
BRANCH  12  36
ATOM     36  C   LIG A   1      -8.715   1.270 130.850  0.00  0.00    +0.034 C 
BRANCH  36  37
ATOM     37  C   LIG A   1      -8.807   1.940 132.212  0.00  0.00    -0.023 C 
ATOM     38  C   LIG A   1      -8.809   3.239 132.563  0.00  0.00    -0.055 C 
ATOM     39  C   LIG A   1      -8.982   3.607 134.024  0.00  0.00    +0.043 C 
BRANCH  38  40
ATOM     40  C   LIG A   1      -8.668   4.340 131.630  0.00  0.00    -0.005 C 
ATOM     41  C   LIG A   1      -9.032   5.593 131.940  0.00  0.00    +0.008 C 
ENDBRANCH  38  40
ENDBRANCH  36  37
ENDBRANCH  12  36
TORSDOF 15
ENDMDL
MODEL 6
REMARK VINA RESULT:      -7.0      2.367      4.923
REMARK  Name = NuBBE_49
REMARK  21 active torsions:
REMARK  status: ('A' for Active; 'I' for Inactive)
REMARK    1  A    between atoms: O_1  and  C_2
REMARK    2  A    between atoms: C_6  and  O_8
REMARK    3  A    between atoms: O_8  and  C_9
REMARK    4  A    between atoms: C_9  and  C_10
REMARK    5  A    between atoms: C_10  and  C_11
REMARK    6  A    between atoms: C_11  and  C_12
REMARK    7  A    between atoms: C_15  and  O_17
REMARK    8  A    between atoms: O_17  and  C_18
REMARK    9  A    between atoms: C_18  and  C_19
REMARK   10  A    between atoms: C_22  and  O_24
REMARK   11  A    between atoms: C_25  and  O_27
REMARK   12  A    between atoms: O_27  and  C_28
REMARK   13  A    between atoms: C_28  and  C_29
REMARK   14  A    between atoms: C_29  and  C_30
REMARK   15  A    between atoms: C_30  and  C_31
REMARK   16  A    between atoms: C_33  and  C_35
REMARK   17  A    between atoms: C_36  and  C_37
REMARK   18  A    between atoms: C_36  and  C_38
REMARK   19  A    between atoms: C_38  and  C_39
REMARK   20  A    between atoms: C_40  and  C_41
REMARK   21  A    between atoms: C_40  and  C_43
REMARK                            x       y       z     vdW  Elec       q    Type
REMARK                         _______ _______ _______ _____ _____    ______ ____
ROOT
ATOM      1  C   LIG A   1      -9.011   3.309 133.419  0.00  0.00    +0.138 C 
ATOM      2  C   LIG A   1      -9.366   4.134 132.252  0.00  0.00    +0.010 C 
ATOM      3  C   LIG A   1      -8.645   4.202 131.127  0.00  0.00    +0.011 C 
ATOM      4  C   LIG A   1      -8.874   5.156 129.984  0.00  0.00    +0.343 C 
ATOM      5  O   LIG A   1      -7.587   5.332 129.387  0.00  0.00    -0.297 OA
ATOM      6  C   LIG A   1      -6.623   4.551 130.116  0.00  0.00    +0.327 C 
ATOM      7  C   LIG A   1      -7.400   3.381 130.837  0.00  0.00    +0.093 C 
ATOM      8  C   LIG A   1      -7.855   2.239 129.858  0.00  0.00    +0.172 C 
ATOM      9  C   LIG A   1      -7.216   0.849 130.040  0.00  0.00    +0.209 C 
ATOM     10  C   LIG A   1      -5.771   0.885 130.582  0.00  0.00    +0.036 C 
ATOM     11  C   LIG A   1      -4.796   1.278 129.459  0.00  0.00    +0.012 C 
ATOM     12  C   LIG A   1      -5.598   1.670 131.948  0.00  0.00    -0.019 C 
ATOM     13  C   LIG A   1      -5.672   0.550 133.034  0.00  0.00    +0.012 C 
ATOM     14  C   LIG A   1      -6.699   2.845 132.138  0.00  0.00    +0.017 C 
ATOM     15  C   LIG A   1      -7.583   2.756 133.434  0.00  0.00    +0.040 C 
ENDROOT
BRANCH   1  16
ATOM     16  O   LIG A   1      -9.209   4.129 134.574  0.00  0.00    -0.388 OA
ATOM     17  H   LIG A   1     -10.160   4.115 134.785  0.00  0.00    +0.210 HD
ENDBRANCH   1  16
BRANCH   8  18
ATOM     18  O   LIG A   1      -7.684   2.637 128.494  0.00  0.00    -0.387 OA
ATOM     19  H   LIG A   1      -7.352   3.556 128.492  0.00  0.00    +0.210 HD
ENDBRANCH   8  18
BRANCH   4  20
ATOM     20  O   LIG A   1      -9.350   6.419 130.442  0.00  0.00    -0.431 OA
BRANCH  20  21
ATOM     21  C   LIG A   1     -10.080   7.143 129.547  0.00  0.00    +0.309 C 
ATOM     22  O   LIG A   1      -9.701   8.130 128.961  0.00  0.00    -0.251 OA
BRANCH  21  23
ATOM     23  C   LIG A   1     -11.468   6.548 129.374  0.00  0.00    +0.120 C 
BRANCH  23  24
ATOM     24  C   LIG A   1     -12.603   7.430 129.893  0.00  0.00    +0.008 C 
ATOM     25  C   LIG A   1     -12.780   7.366 131.405  0.00  0.00    +0.004 C 
ENDBRANCH  23  24
ENDBRANCH  21  23
ENDBRANCH  20  21
ENDBRANCH   4  20
BRANCH   6  26
ATOM     26  O   LIG A   1      -5.948   5.417 131.057  0.00  0.00    -0.434 OA
BRANCH  26  27
ATOM     27  C   LIG A   1      -4.801   5.994 130.606  0.00  0.00    +0.306 C 
ATOM     28  C   LIG A   1      -4.037   5.045 129.724  0.00  0.00    +0.136 C 
ATOM     29  O   LIG A   1      -4.414   7.120 130.867  0.00  0.00    -0.251 OA
ENDBRANCH  26  27
ENDBRANCH   6  26
BRANCH   9  30
ATOM     30  O   LIG A   1      -8.109   0.038 130.859  0.00  0.00    -0.458 OA
BRANCH  30  31
ATOM     31  C   LIG A   1      -7.881  -1.318 130.770  0.00  0.00    +0.307 C 
ATOM     32  O   LIG A   1      -7.669  -2.039 131.744  0.00  0.00    -0.251 OA
BRANCH  31  33
ATOM     33  C   LIG A   1      -7.887  -1.805 129.332  0.00  0.00    +0.120 C 
BRANCH  33  34
ATOM     34  C   LIG A   1      -7.957  -3.338 129.178  0.00  0.00    +0.008 C 
ATOM     35  C   LIG A   1      -8.826  -3.850 128.034  0.00  0.00    +0.004 C 
ENDBRANCH  33  34
ENDBRANCH  31  33
ENDBRANCH  30  31
ENDBRANCH   9  30
BRANCH  12  36
ATOM     36  C   LIG A   1      -4.129   2.284 132.126  0.00  0.00    +0.034 C 
BRANCH  36  37
ATOM     37  C   LIG A   1      -4.050   3.403 133.152  0.00  0.00    -0.023 C 
ATOM     38  C   LIG A   1      -3.082   4.301 133.413  0.00  0.00    -0.055 C 
ATOM     39  C   LIG A   1      -3.322   5.356 134.476  0.00  0.00    +0.043 C 
BRANCH  38  40
ATOM     40  C   LIG A   1      -1.803   4.348 132.730  0.00  0.00    -0.005 C 
ATOM     41  C   LIG A   1      -1.222   5.504 132.375  0.00  0.00    +0.008 C 
ENDBRANCH  38  40
ENDBRANCH  36  37
ENDBRANCH  12  36
TORSDOF 15
ENDMDL
MODEL 7
REMARK VINA RESULT:      -6.8      2.228      5.574
REMARK  Name = NuBBE_49
REMARK  21 active torsions:
REMARK  status: ('A' for Active; 'I' for Inactive)
REMARK    1  A    between atoms: O_1  and  C_2
REMARK    2  A    between atoms: C_6  and  O_8
REMARK    3  A    between atoms: O_8  and  C_9
REMARK    4  A    between atoms: C_9  and  C_10
REMARK    5  A    between atoms: C_10  and  C_11
REMARK    6  A    between atoms: C_11  and  C_12
REMARK    7  A    between atoms: C_15  and  O_17
REMARK    8  A    between atoms: O_17  and  C_18
REMARK    9  A    between atoms: C_18  and  C_19
REMARK   10  A    between atoms: C_22  and  O_24
REMARK   11  A    between atoms: C_25  and  O_27
REMARK   12  A    between atoms: O_27  and  C_28
REMARK   13  A    between atoms: C_28  and  C_29
REMARK   14  A    between atoms: C_29  and  C_30
REMARK   15  A    between atoms: C_30  and  C_31
REMARK   16  A    between atoms: C_33  and  C_35
REMARK   17  A    between atoms: C_36  and  C_37
REMARK   18  A    between atoms: C_36  and  C_38
REMARK   19  A    between atoms: C_38  and  C_39
REMARK   20  A    between atoms: C_40  and  C_41
REMARK   21  A    between atoms: C_40  and  C_43
REMARK                            x       y       z     vdW  Elec       q    Type
REMARK                         _______ _______ _______ _____ _____    ______ ____
ROOT
ATOM      1  C   LIG A   1      -6.966   2.912 127.001  0.00  0.00    +0.138 C 
ATOM      2  C   LIG A   1      -7.640   4.075 127.602  0.00  0.00    +0.010 C 
ATOM      3  C   LIG A   1      -7.702   4.318 128.915  0.00  0.00    +0.011 C 
ATOM      4  C   LIG A   1      -8.521   5.393 129.580  0.00  0.00    +0.343 C 
ATOM      5  O   LIG A   1      -8.805   4.885 130.887  0.00  0.00    -0.297 OA
ATOM      6  C   LIG A   1      -8.214   3.580 131.019  0.00  0.00    +0.327 C 
ATOM      7  C   LIG A   1      -7.021   3.486 129.990  0.00  0.00    +0.093 C 
ATOM      8  C   LIG A   1      -5.754   4.305 130.429  0.00  0.00    +0.172 C 
ATOM      9  C   LIG A   1      -4.474   3.513 130.759  0.00  0.00    +0.209 C 
ATOM     10  C   LIG A   1      -4.735   2.105 131.336  0.00  0.00    +0.036 C 
ATOM     11  C   LIG A   1      -5.150   2.210 132.813  0.00  0.00    +0.012 C 
ATOM     12  C   LIG A   1      -5.647   1.179 130.430  0.00  0.00    -0.019 C 
ATOM     13  C   LIG A   1      -4.622   0.337 129.606  0.00  0.00    +0.012 C 
ATOM     14  C   LIG A   1      -6.687   2.024 129.518  0.00  0.00    +0.017 C 
ATOM     15  C   LIG A   1      -6.598   1.783 127.968  0.00  0.00    +0.040 C 
ENDROOT
BRANCH   1  16
ATOM     16  O   LIG A   1      -7.848   2.402 125.999  0.00  0.00    -0.388 OA
ATOM     17  H   LIG A   1      -8.330   1.648 126.386  0.00  0.00    +0.210 HD
ENDBRANCH   1  16
BRANCH   8  18
ATOM     18  O   LIG A   1      -6.054   5.157 131.540  0.00  0.00    -0.387 OA
ATOM     19  H   LIG A   1      -5.209   5.514 131.877  0.00  0.00    +0.210 HD
ENDBRANCH   8  18
BRANCH   4  20
ATOM     20  O   LIG A   1      -9.750   5.618 128.893  0.00  0.00    -0.431 OA
BRANCH  20  21
ATOM     21  C   LIG A   1     -10.272   6.872 128.998  0.00  0.00    +0.309 C 
ATOM     22  O   LIG A   1      -9.650   7.876 129.261  0.00  0.00    -0.251 OA
BRANCH  21  23
ATOM     23  C   LIG A   1     -11.770   6.858 128.746  0.00  0.00    +0.120 C 
BRANCH  23  24
ATOM     24  C   LIG A   1     -12.179   7.298 127.340  0.00  0.00    +0.008 C 
ATOM     25  C   LIG A   1     -10.997   7.592 126.426  0.00  0.00    +0.004 C 
ENDBRANCH  23  24
ENDBRANCH  21  23
ENDBRANCH  20  21
ENDBRANCH   4  20
BRANCH   6  26
ATOM     26  O   LIG A   1      -9.233   2.586 130.764  0.00  0.00    -0.434 OA
BRANCH  26  27
ATOM     27  C   LIG A   1      -9.622   1.852 131.842  0.00  0.00    +0.306 C 
ATOM     28  C   LIG A   1      -9.283   2.565 133.123  0.00  0.00    +0.136 C 
ATOM     29  O   LIG A   1     -10.166   0.762 131.809  0.00  0.00    -0.251 OA
ENDBRANCH  26  27
ENDBRANCH   6  26
BRANCH   9  30
ATOM     30  O   LIG A   1      -3.630   3.491 129.570  0.00  0.00    -0.458 OA
BRANCH  30  31
ATOM     31  C   LIG A   1      -2.935   4.660 129.349  0.00  0.00    +0.307 C 
ATOM     32  O   LIG A   1      -2.577   5.421 130.246  0.00  0.00    -0.251 OA
BRANCH  31  33
ATOM     33  C   LIG A   1      -2.698   4.913 127.870  0.00  0.00    +0.120 C 
BRANCH  33  34
ATOM     34  C   LIG A   1      -2.882   3.671 126.974  0.00  0.00    +0.008 C 
ATOM     35  C   LIG A   1      -1.598   2.989 126.514  0.00  0.00    +0.004 C 
ENDBRANCH  33  34
ENDBRANCH  31  33
ENDBRANCH  30  31
ENDBRANCH   9  30
BRANCH  12  36
ATOM     36  C   LIG A   1      -6.452   0.084 131.279  0.00  0.00    +0.034 C 
BRANCH  36  37
ATOM     37  C   LIG A   1      -7.293  -0.856 130.430  0.00  0.00    -0.023 C 
ATOM     38  C   LIG A   1      -7.213  -2.185 130.234  0.00  0.00    -0.055 C 
ATOM     39  C   LIG A   1      -8.253  -2.866 129.365  0.00  0.00    +0.043 C 
BRANCH  38  40
ATOM     40  C   LIG A   1      -6.194  -3.038 130.814  0.00  0.00    -0.005 C 
ATOM     41  C   LIG A   1      -5.987  -4.295 130.393  0.00  0.00    +0.008 C 
ENDBRANCH  38  40
ENDBRANCH  36  37
ENDBRANCH  12  36
TORSDOF 15
ENDMDL
MODEL 8
REMARK VINA RESULT:      -6.8      2.638      6.279
REMARK  Name = NuBBE_49
REMARK  21 active torsions:
REMARK  status: ('A' for Active; 'I' for Inactive)
REMARK    1  A    between atoms: O_1  and  C_2
REMARK    2  A    between atoms: C_6  and  O_8
REMARK    3  A    between atoms: O_8  and  C_9
REMARK    4  A    between atoms: C_9  and  C_10
REMARK    5  A    between atoms: C_10  and  C_11
REMARK    6  A    between atoms: C_11  and  C_12
REMARK    7  A    between atoms: C_15  and  O_17
REMARK    8  A    between atoms: O_17  and  C_18
REMARK    9  A    between atoms: C_18  and  C_19
REMARK   10  A    between atoms: C_22  and  O_24
REMARK   11  A    between atoms: C_25  and  O_27
REMARK   12  A    between atoms: O_27  and  C_28
REMARK   13  A    between atoms: C_28  and  C_29
REMARK   14  A    between atoms: C_29  and  C_30
REMARK   15  A    between atoms: C_30  and  C_31
REMARK   16  A    between atoms: C_33  and  C_35
REMARK   17  A    between atoms: C_36  and  C_37
REMARK   18  A    between atoms: C_36  and  C_38
REMARK   19  A    between atoms: C_38  and  C_39
REMARK   20  A    between atoms: C_40  and  C_41
REMARK   21  A    between atoms: C_40  and  C_43
REMARK                            x       y       z     vdW  Elec       q    Type
REMARK                         _______ _______ _______ _____ _____    ______ ____
ROOT
ATOM      1  C   LIG A   1      -8.274   4.718 129.088  0.00  0.00    +0.138 C 
ATOM      2  C   LIG A   1      -7.675   3.881 130.141  0.00  0.00    +0.010 C 
ATOM      3  C   LIG A   1      -6.579   3.131 129.980  0.00  0.00    +0.011 C 
ATOM      4  C   LIG A   1      -6.034   2.134 130.968  0.00  0.00    +0.343 C 
ATOM      5  O   LIG A   1      -5.342   1.167 130.172  0.00  0.00    -0.297 OA
ATOM      6  C   LIG A   1      -5.461   1.533 128.786  0.00  0.00    +0.327 C 
ATOM      7  C   LIG A   1      -5.730   3.087 128.719  0.00  0.00    +0.093 C 
ATOM      8  C   LIG A   1      -4.456   3.953 129.028  0.00  0.00    +0.172 C 
ATOM      9  C   LIG A   1      -3.888   4.815 127.884  0.00  0.00    +0.209 C 
ATOM     10  C   LIG A   1      -4.108   4.219 126.476  0.00  0.00    +0.036 C 
ATOM     11  C   LIG A   1      -3.108   3.079 126.225  0.00  0.00    +0.012 C 
ATOM     12  C   LIG A   1      -5.619   3.899 126.125  0.00  0.00    -0.019 C 
ATOM     13  C   LIG A   1      -6.099   5.166 125.349  0.00  0.00    +0.012 C 
ATOM     14  C   LIG A   1      -6.508   3.553 127.436  0.00  0.00    +0.017 C 
ATOM     15  C   LIG A   1      -7.776   4.453 127.664  0.00  0.00    +0.040 C 
ENDROOT
BRANCH   1  16
ATOM     16  O   LIG A   1      -9.685   4.492 129.140  0.00  0.00    -0.388 OA
ATOM     17  H   LIG A   1      -9.832   3.657 129.621  0.00  0.00    +0.210 HD
ENDBRANCH   1  16
BRANCH   8  18
ATOM     18  O   LIG A   1      -3.398   3.142 129.547  0.00  0.00    -0.387 OA
ATOM     19  H   LIG A   1      -3.795   2.489 130.156  0.00  0.00    +0.210 HD
ENDBRANCH   8  18
BRANCH   4  20
ATOM     20  O   LIG A   1      -7.079   1.482 131.686  0.00  0.00    -0.431 OA
BRANCH  20  21
ATOM     21  C   LIG A   1      -6.977   1.511 133.045  0.00  0.00    +0.309 C 
ATOM     22  O   LIG A   1      -7.128   0.566 133.784  0.00  0.00    -0.251 OA
BRANCH  21  23
ATOM     23  C   LIG A   1      -6.650   2.912 133.533  0.00  0.00    +0.120 C 
BRANCH  23  24
ATOM     24  C   LIG A   1      -7.805   3.621 134.241  0.00  0.00    +0.008 C 
ATOM     25  C   LIG A   1      -9.150   3.428 133.553  0.00  0.00    +0.004 C 
ENDBRANCH  23  24
ENDBRANCH  21  23
ENDBRANCH  20  21
ENDBRANCH   4  20
BRANCH   6  26
ATOM     26  O   LIG A   1      -6.538   0.767 128.199  0.00  0.00    -0.434 OA
BRANCH  26  27
ATOM     27  C   LIG A   1      -6.232  -0.514 127.858  0.00  0.00    +0.306 C 
ATOM     28  C   LIG A   1      -5.468  -0.553 126.563  0.00  0.00    +0.136 C 
ATOM     29  O   LIG A   1      -6.527  -1.514 128.489  0.00  0.00    -0.251 OA
ENDBRANCH  26  27
ENDBRANCH   6  26
BRANCH   9  30
ATOM     30  O   LIG A   1      -4.423   6.165 128.018  0.00  0.00    -0.458 OA
BRANCH  30  31
ATOM     31  C   LIG A   1      -3.509   7.093 128.466  0.00  0.00    +0.307 C 
ATOM     32  O   LIG A   1      -2.358   7.177 128.040  0.00  0.00    -0.251 OA
BRANCH  31  33
ATOM     33  C   LIG A   1      -4.078   7.971 129.566  0.00  0.00    +0.120 C 
BRANCH  33  34
ATOM     34  C   LIG A   1      -4.417   7.220 130.870  0.00  0.00    +0.008 C 
ATOM     35  C   LIG A   1      -5.895   6.920 131.097  0.00  0.00    +0.004 C 
ENDBRANCH  33  34
ENDBRANCH  31  33
ENDBRANCH  30  31
ENDBRANCH   9  30
BRANCH  12  36
ATOM     36  C   LIG A   1      -5.766   2.713 125.056  0.00  0.00    +0.034 C 
BRANCH  36  37
ATOM     37  C   LIG A   1      -7.013   2.814 124.192  0.00  0.00    -0.023 C 
ATOM     38  C   LIG A   1      -7.162   3.003 122.868  0.00  0.00    -0.055 C 
ATOM     39  C   LIG A   1      -8.558   2.995 122.275  0.00  0.00    +0.043 C 
BRANCH  38  40
ATOM     40  C   LIG A   1      -6.065   3.205 121.942  0.00  0.00    -0.005 C 
ATOM     41  C   LIG A   1      -6.187   3.959 120.839  0.00  0.00    +0.008 C 
ENDBRANCH  38  40
ENDBRANCH  36  37
ENDBRANCH  12  36
TORSDOF 15
ENDMDL
MODEL 9
REMARK VINA RESULT:      -6.7      2.520      5.579
REMARK  Name = NuBBE_49
REMARK  21 active torsions:
REMARK  status: ('A' for Active; 'I' for Inactive)
REMARK    1  A    between atoms: O_1  and  C_2
REMARK    2  A    between atoms: C_6  and  O_8
REMARK    3  A    between atoms: O_8  and  C_9
REMARK    4  A    between atoms: C_9  and  C_10
REMARK    5  A    between atoms: C_10  and  C_11
REMARK    6  A    between atoms: C_11  and  C_12
REMARK    7  A    between atoms: C_15  and  O_17
REMARK    8  A    between atoms: O_17  and  C_18
REMARK    9  A    between atoms: C_18  and  C_19
REMARK   10  A    between atoms: C_22  and  O_24
REMARK   11  A    between atoms: C_25  and  O_27
REMARK   12  A    between atoms: O_27  and  C_28
REMARK   13  A    between atoms: C_28  and  C_29
REMARK   14  A    between atoms: C_29  and  C_30
REMARK   15  A    between atoms: C_30  and  C_31
REMARK   16  A    between atoms: C_33  and  C_35
REMARK   17  A    between atoms: C_36  and  C_37
REMARK   18  A    between atoms: C_36  and  C_38
REMARK   19  A    between atoms: C_38  and  C_39
REMARK   20  A    between atoms: C_40  and  C_41
REMARK   21  A    between atoms: C_40  and  C_43
REMARK                            x       y       z     vdW  Elec       q    Type
REMARK                         _______ _______ _______ _____ _____    ______ ____
ROOT
ATOM      1  C   LIG A   1      -5.770   3.320 132.364  0.00  0.00    +0.138 C 
ATOM      2  C   LIG A   1      -5.434   4.466 131.501  0.00  0.00    +0.010 C 
ATOM      3  C   LIG A   1      -5.678   4.520 130.187  0.00  0.00    +0.011 C 
ATOM      4  C   LIG A   1      -5.202   5.590 129.240  0.00  0.00    +0.343 C 
ATOM      5  O   LIG A   1      -5.105   4.941 127.970  0.00  0.00    -0.297 OA
ATOM      6  C   LIG A   1      -5.484   3.561 128.120  0.00  0.00    +0.327 C 
ATOM      7  C   LIG A   1      -6.413   3.453 129.391  0.00  0.00    +0.093 C 
ATOM      8  C   LIG A   1      -7.861   4.015 129.153  0.00  0.00    +0.172 C 
ATOM      9  C   LIG A   1      -9.030   3.012 129.206  0.00  0.00    +0.209 C 
ATOM     10  C   LIG A   1      -8.658   1.585 128.749  0.00  0.00    +0.036 C 
ATOM     11  C   LIG A   1      -8.572   1.529 127.214  0.00  0.00    +0.012 C 
ATOM     12  C   LIG A   1      -7.441   0.938 129.530  0.00  0.00    -0.019 C 
ATOM     13  C   LIG A   1      -8.124   0.091 130.650  0.00  0.00    +0.012 C 
ATOM     14  C   LIG A   1      -6.395   2.044 130.087  0.00  0.00    +0.017 C 
ATOM     15  C   LIG A   1      -6.130   2.022 131.636  0.00  0.00    +0.040 C 
ENDROOT
BRANCH   1  16
ATOM     16  O   LIG A   1      -4.631   3.090 133.197  0.00  0.00    -0.388 OA
ATOM     17  H   LIG A   1      -4.583   2.133 133.372  0.00  0.00    +0.210 HD
ENDBRANCH   1  16
BRANCH   8  18
ATOM     18  O   LIG A   1      -7.937   4.728 127.915  0.00  0.00    -0.387 OA
ATOM     19  H   LIG A   1      -7.773   5.672 128.105  0.00  0.00    +0.210 HD
ENDBRANCH   8  18
BRANCH   4  20
ATOM     20  O   LIG A   1      -3.916   6.082 129.609  0.00  0.00    -0.431 OA
BRANCH  20  21
ATOM     21  C   LIG A   1      -3.891   7.318 130.183  0.00  0.00    +0.309 C 
ATOM     22  O   LIG A   1      -4.592   8.254 129.874  0.00  0.00    -0.251 OA
BRANCH  21  23
ATOM     23  C   LIG A   1      -2.846   7.383 131.283  0.00  0.00    +0.120 C 
BRANCH  23  24
ATOM     24  C   LIG A   1      -1.721   6.357 131.150  0.00  0.00    +0.008 C 
ATOM     25  C   LIG A   1      -1.606   5.423 132.348  0.00  0.00    +0.004 C 
ENDBRANCH  23  24
ENDBRANCH  21  23
ENDBRANCH  20  21
ENDBRANCH   4  20
BRANCH   6  26
ATOM     26  O   LIG A   1      -4.282   2.767 128.254  0.00  0.00    -0.434 OA
BRANCH  26  27
ATOM     27  C   LIG A   1      -3.582   2.561 127.105  0.00  0.00    +0.306 C 
ATOM     28  C   LIG A   1      -2.202   3.152 127.209  0.00  0.00    +0.136 C 
ATOM     29  O   LIG A   1      -3.988   1.986 126.111  0.00  0.00    -0.251 OA
ENDBRANCH  26  27
ENDBRANCH   6  26
BRANCH   9  30
ATOM     30  O   LIG A   1      -9.602   3.047 130.547  0.00  0.00    -0.458 OA
BRANCH  30  31
ATOM     31  C   LIG A   1     -10.360   4.167 130.809  0.00  0.00    +0.307 C 
ATOM     32  O   LIG A   1     -11.336   4.502 130.141  0.00  0.00    -0.251 OA
BRANCH  31  33
ATOM     33  C   LIG A   1      -9.825   4.954 131.994  0.00  0.00    +0.120 C 
BRANCH  33  34
ATOM     34  C   LIG A   1      -9.694   6.470 131.744  0.00  0.00    +0.008 C 
ATOM     35  C   LIG A   1      -8.491   6.904 130.912  0.00  0.00    +0.004 C 
ENDBRANCH  33  34
ENDBRANCH  31  33
ENDBRANCH  30  31
ENDBRANCH   9  30
BRANCH  12  36
ATOM     36  C   LIG A   1      -6.651  -0.146 128.654  0.00  0.00    +0.034 C 
BRANCH  36  37
ATOM     37  C   LIG A   1      -7.190  -1.561 128.793  0.00  0.00    -0.023 C 
ATOM     38  C   LIG A   1      -7.866  -2.342 127.931  0.00  0.00    -0.055 C 
ATOM     39  C   LIG A   1      -8.219  -3.759 128.341  0.00  0.00    +0.043 C 
BRANCH  38  40
ATOM     40  C   LIG A   1      -8.282  -1.929 126.605  0.00  0.00    -0.005 C 
ATOM     41  C   LIG A   1      -9.255  -2.558 125.929  0.00  0.00    +0.008 C 
ENDBRANCH  38  40
ENDBRANCH  36  37
ENDBRANCH  12  36
TORSDOF 15
ENDMDL
