MODEL 1
REMARK VINA RESULT:      -5.3      0.000      0.000
REMARK  Name = NuBBE_209
REMARK  3 active torsions:
REMARK  status: ('A' for Active; 'I' for Inactive)
REMARK    1  A    between atoms: O_1  and  C_2
REMARK    2  A    between atoms: C_2  and  C_3
REMARK    3  A    between atoms: C_4  and  O_5
REMARK                            x       y       z     vdW  Elec       q    Type
REMARK                         _______ _______ _______ _____ _____    ______ ____
ROOT
ATOM      1  C   LIG A   1     -11.219   7.199 130.285  0.00  0.00    +0.100 A 
ATOM      2  C   LIG A   1     -10.217   7.730 129.460  0.00  0.00    +0.131 A 
ATOM      3  C   LIG A   1     -10.548   8.331 128.245  0.00  0.00    +0.046 A 
ATOM      4  C   LIG A   1     -11.881   8.408 127.843  0.00  0.00    +0.004 A 
ATOM      5  C   LIG A   1     -12.886   7.885 128.654  0.00  0.00    +0.001 A 
ATOM      6  C   LIG A   1     -12.557   7.283 129.871  0.00  0.00    +0.019 A 
ENDROOT
BRANCH   1   7
ATOM      7  C   LIG A   1     -10.954   6.545 131.589  0.00  0.00    +0.340 C 
ATOM      8  O   LIG A   1      -9.888   6.517 132.175  0.00  0.00    -0.245 OA
BRANCH   7   9
ATOM      9  O   LIG A   1     -12.043   5.946 132.113  0.00  0.00    -0.477 OA
ATOM     10  H   LIG A   1     -12.779   6.339 131.591  0.00  0.00    +0.295 HD
ENDBRANCH   7   9
ENDBRANCH   1   7
BRANCH   2  11
ATOM     11  O   LIG A   1      -8.884   7.702 129.766  0.00  0.00    -0.506 OA
ATOM     12  H   LIG A   1      -8.713   6.867 130.251  0.00  0.00    +0.292 HD
ENDBRANCH   2  11
TORSDOF 3
ENDMDL
MODEL 2
REMARK VINA RESULT:      -5.3      2.259      3.735
REMARK  Name = NuBBE_209
REMARK  3 active torsions:
REMARK  status: ('A' for Active; 'I' for Inactive)
REMARK    1  A    between atoms: O_1  and  C_2
REMARK    2  A    between atoms: C_2  and  C_3
REMARK    3  A    between atoms: C_4  and  O_5
REMARK                            x       y       z     vdW  Elec       q    Type
REMARK                         _______ _______ _______ _____ _____    ______ ____
ROOT
ATOM      1  C   LIG A   1     -11.232   7.430 127.979  0.00  0.00    +0.100 A 
ATOM      2  C   LIG A   1     -11.096   6.618 129.114  0.00  0.00    +0.131 A 
ATOM      3  C   LIG A   1     -11.774   6.932 130.292  0.00  0.00    +0.046 A 
ATOM      4  C   LIG A   1     -12.595   8.059 130.347  0.00  0.00    +0.004 A 
ATOM      5  C   LIG A   1     -12.738   8.873 129.226  0.00  0.00    +0.001 A 
ATOM      6  C   LIG A   1     -12.060   8.560 128.045  0.00  0.00    +0.019 A 
ENDROOT
BRANCH   1   7
ATOM      7  C   LIG A   1     -10.547   7.167 126.690  0.00  0.00    +0.340 C 
ATOM      8  O   LIG A   1      -9.717   6.303 126.480  0.00  0.00    -0.245 OA
BRANCH   7   9
ATOM      9  O   LIG A   1     -10.934   8.004 125.705  0.00  0.00    -0.477 OA
ATOM     10  H   LIG A   1     -11.659   8.517 126.128  0.00  0.00    +0.295 HD
ENDBRANCH   7   9
ENDBRANCH   1   7
BRANCH   2  11
ATOM     11  O   LIG A   1     -10.316   5.494 129.158  0.00  0.00    -0.506 OA
ATOM     12  H   LIG A   1      -9.986   5.403 130.078  0.00  0.00    +0.292 HD
ENDBRANCH   2  11
TORSDOF 3
ENDMDL
MODEL 3
REMARK VINA RESULT:      -5.2      1.131      2.213
REMARK  Name = NuBBE_209
REMARK  3 active torsions:
REMARK  status: ('A' for Active; 'I' for Inactive)
REMARK    1  A    between atoms: O_1  and  C_2
REMARK    2  A    between atoms: C_2  and  C_3
REMARK    3  A    between atoms: C_4  and  O_5
REMARK                            x       y       z     vdW  Elec       q    Type
REMARK                         _______ _______ _______ _____ _____    ______ ____
ROOT
ATOM      1  C   LIG A   1     -10.969   7.096 130.554  0.00  0.00    +0.100 A 
ATOM      2  C   LIG A   1     -12.310   7.506 130.535  0.00  0.00    +0.131 A 
ATOM      3  C   LIG A   1     -12.789   8.306 129.497  0.00  0.00    +0.046 A 
ATOM      4  C   LIG A   1     -11.934   8.703 128.468  0.00  0.00    +0.004 A 
ATOM      5  C   LIG A   1     -10.599   8.301 128.476  0.00  0.00    +0.001 A 
ATOM      6  C   LIG A   1     -10.118   7.500 129.514  0.00  0.00    +0.019 A 
ENDROOT
BRANCH   1   7
ATOM      7  C   LIG A   1     -10.381   6.247 131.618  0.00  0.00    +0.340 C 
ATOM      8  O   LIG A   1      -9.408   6.516 132.297  0.00  0.00    -0.245 OA
BRANCH   7   9
ATOM      9  O   LIG A   1     -11.042   5.083 131.792  0.00  0.00    -0.477 OA
ATOM     10  H   LIG A   1     -10.488   4.442 131.292  0.00  0.00    +0.295 HD
ENDBRANCH   7   9
ENDBRANCH   1   7
BRANCH   2  11
ATOM     11  O   LIG A   1     -13.224   7.169 131.496  0.00  0.00    -0.506 OA
ATOM     12  H   LIG A   1     -13.972   6.723 131.046  0.00  0.00    +0.292 HD
ENDBRANCH   2  11
TORSDOF 3
ENDMDL
MODEL 4
REMARK VINA RESULT:      -5.1      9.380     10.478
REMARK  Name = NuBBE_209
REMARK  3 active torsions:
REMARK  status: ('A' for Active; 'I' for Inactive)
REMARK    1  A    between atoms: O_1  and  C_2
REMARK    2  A    between atoms: C_2  and  C_3
REMARK    3  A    between atoms: C_4  and  O_5
REMARK                            x       y       z     vdW  Elec       q    Type
REMARK                         _______ _______ _______ _____ _____    ______ ____
ROOT
ATOM      1  C   LIG A   1      -7.661   3.570 121.484  0.00  0.00    +0.100 A 
ATOM      2  C   LIG A   1      -8.132   3.943 120.217  0.00  0.00    +0.131 A 
ATOM      3  C   LIG A   1      -7.258   4.470 119.266  0.00  0.00    +0.046 A 
ATOM      4  C   LIG A   1      -5.906   4.629 119.570  0.00  0.00    +0.004 A 
ATOM      5  C   LIG A   1      -5.426   4.263 120.826  0.00  0.00    +0.001 A 
ATOM      6  C   LIG A   1      -6.299   3.734 121.780  0.00  0.00    +0.019 A 
ENDROOT
BRANCH   1   7
ATOM      7  C   LIG A   1      -8.522   3.003 122.550  0.00  0.00    +0.340 C 
ATOM      8  O   LIG A   1      -9.300   2.075 122.428  0.00  0.00    -0.245 OA
BRANCH   7   9
ATOM      9  O   LIG A   1      -8.373   3.625 123.738  0.00  0.00    -0.477 OA
ATOM     10  H   LIG A   1      -7.440   3.936 123.705  0.00  0.00    +0.295 HD
ENDBRANCH   7   9
ENDBRANCH   1   7
BRANCH   2  11
ATOM     11  O   LIG A   1      -9.438   3.825 119.825  0.00  0.00    -0.506 OA
ATOM     12  H   LIG A   1      -9.438   3.604 118.869  0.00  0.00    +0.292 HD
ENDBRANCH   2  11
TORSDOF 3
ENDMDL
MODEL 5
REMARK VINA RESULT:      -5.1      9.290     10.268
REMARK  Name = NuBBE_209
REMARK  3 active torsions:
REMARK  status: ('A' for Active; 'I' for Inactive)
REMARK    1  A    between atoms: O_1  and  C_2
REMARK    2  A    between atoms: C_2  and  C_3
REMARK    3  A    between atoms: C_4  and  O_5
REMARK                            x       y       z     vdW  Elec       q    Type
REMARK                         _______ _______ _______ _____ _____    ______ ____
ROOT
ATOM      1  C   LIG A   1      -8.109   3.528 121.281  0.00  0.00    +0.100 A 
ATOM      2  C   LIG A   1      -6.749   3.796 121.068  0.00  0.00    +0.131 A 
ATOM      3  C   LIG A   1      -6.315   4.322 119.851  0.00  0.00    +0.046 A 
ATOM      4  C   LIG A   1      -7.235   4.585 118.835  0.00  0.00    +0.004 A 
ATOM      5  C   LIG A   1      -8.589   4.323 119.035  0.00  0.00    +0.001 A 
ATOM      6  C   LIG A   1      -9.025   3.797 120.253  0.00  0.00    +0.019 A 
ENDROOT
BRANCH   1   7
ATOM      7  C   LIG A   1      -8.652   2.971 122.544  0.00  0.00    +0.340 C 
ATOM      8  O   LIG A   1      -9.348   1.978 122.650  0.00  0.00    -0.245 OA
BRANCH   7   9
ATOM      9  O   LIG A   1      -8.300   3.685 123.633  0.00  0.00    -0.477 OA
ATOM     10  H   LIG A   1      -8.233   4.601 123.280  0.00  0.00    +0.295 HD
ENDBRANCH   7   9
ENDBRANCH   1   7
BRANCH   2  11
ATOM     11  O   LIG A   1      -5.773   3.572 122.001  0.00  0.00    -0.506 OA
ATOM     12  H   LIG A   1      -5.443   4.447 122.296  0.00  0.00    +0.292 HD
ENDBRANCH   2  11
TORSDOF 3
ENDMDL
MODEL 6
REMARK VINA RESULT:      -5.1      1.514      1.615
REMARK  Name = NuBBE_209
REMARK  3 active torsions:
REMARK  status: ('A' for Active; 'I' for Inactive)
REMARK    1  A    between atoms: O_1  and  C_2
REMARK    2  A    between atoms: C_2  and  C_3
REMARK    3  A    between atoms: C_4  and  O_5
REMARK                            x       y       z     vdW  Elec       q    Type
REMARK                         _______ _______ _______ _____ _____    ______ ____
ROOT
ATOM      1  C   LIG A   1     -11.495   6.552 129.815  0.00  0.00    +0.100 A 
ATOM      2  C   LIG A   1     -10.760   6.958 128.691  0.00  0.00    +0.131 A 
ATOM      3  C   LIG A   1     -11.036   8.176 128.070  0.00  0.00    +0.046 A 
ATOM      4  C   LIG A   1     -12.046   9.001 128.564  0.00  0.00    +0.004 A 
ATOM      5  C   LIG A   1     -12.783   8.609 129.680  0.00  0.00    +0.001 A 
ATOM      6  C   LIG A   1     -12.509   7.390 130.304  0.00  0.00    +0.019 A 
ENDROOT
BRANCH   1   7
ATOM      7  C   LIG A   1     -11.267   5.276 130.534  0.00  0.00    +0.340 C 
ATOM      8  O   LIG A   1     -11.094   4.184 130.024  0.00  0.00    -0.245 OA
BRANCH   7   9
ATOM      9  O   LIG A   1     -11.263   5.417 131.876  0.00  0.00    -0.477 OA
ATOM     10  H   LIG A   1     -11.469   4.508 132.191  0.00  0.00    +0.295 HD
ENDBRANCH   7   9
ENDBRANCH   1   7
BRANCH   2  11
ATOM     11  O   LIG A   1      -9.752   6.219 128.134  0.00  0.00    -0.506 OA
ATOM     12  H   LIG A   1      -9.668   5.395 128.659  0.00  0.00    +0.292 HD
ENDBRANCH   2  11
TORSDOF 3
ENDMDL
MODEL 7
REMARK VINA RESULT:      -4.9      2.039      4.046
REMARK  Name = NuBBE_209
REMARK  3 active torsions:
REMARK  status: ('A' for Active; 'I' for Inactive)
REMARK    1  A    between atoms: O_1  and  C_2
REMARK    2  A    between atoms: C_2  and  C_3
REMARK    3  A    between atoms: C_4  and  O_5
REMARK                            x       y       z     vdW  Elec       q    Type
REMARK                         _______ _______ _______ _____ _____    ______ ____
ROOT
ATOM      1  C   LIG A   1     -11.244   7.665 129.831  0.00  0.00    +0.100 A 
ATOM      2  C   LIG A   1     -11.905   7.082 130.922  0.00  0.00    +0.131 A 
ATOM      3  C   LIG A   1     -11.186   6.386 131.893  0.00  0.00    +0.046 A 
ATOM      4  C   LIG A   1      -9.800   6.265 131.786  0.00  0.00    +0.004 A 
ATOM      5  C   LIG A   1      -9.132   6.840 130.707  0.00  0.00    +0.001 A 
ATOM      6  C   LIG A   1      -9.850   7.538 129.733  0.00  0.00    +0.019 A 
ENDROOT
BRANCH   1   7
ATOM      7  C   LIG A   1     -11.931   8.421 128.757  0.00  0.00    +0.340 C 
ATOM      8  O   LIG A   1     -13.130   8.607 128.663  0.00  0.00    -0.245 OA
BRANCH   7   9
ATOM      9  O   LIG A   1     -11.083   8.920 127.834  0.00  0.00    -0.477 OA
ATOM     10  H   LIG A   1     -11.279   9.884 127.856  0.00  0.00    +0.295 HD
ENDBRANCH   7   9
ENDBRANCH   1   7
BRANCH   2  11
ATOM     11  O   LIG A   1     -13.258   7.146 131.114  0.00  0.00    -0.506 OA
ATOM     12  H   LIG A   1     -13.644   6.318 130.757  0.00  0.00    +0.292 HD
ENDBRANCH   2  11
TORSDOF 3
ENDMDL
MODEL 8
REMARK VINA RESULT:      -4.9      1.963      2.926
REMARK  Name = NuBBE_209
REMARK  3 active torsions:
REMARK  status: ('A' for Active; 'I' for Inactive)
REMARK    1  A    between atoms: O_1  and  C_2
REMARK    2  A    between atoms: C_2  and  C_3
REMARK    3  A    between atoms: C_4  and  O_5
REMARK                            x       y       z     vdW  Elec       q    Type
REMARK                         _______ _______ _______ _____ _____    ______ ____
ROOT
ATOM      1  C   LIG A   1     -11.095   7.317 128.598  0.00  0.00    +0.100 A 
ATOM      2  C   LIG A   1     -11.866   7.237 127.429  0.00  0.00    +0.131 A 
ATOM      3  C   LIG A   1     -13.069   7.936 127.328  0.00  0.00    +0.046 A 
ATOM      4  C   LIG A   1     -13.513   8.722 128.392  0.00  0.00    +0.004 A 
ATOM      5  C   LIG A   1     -12.755   8.810 129.558  0.00  0.00    +0.001 A 
ATOM      6  C   LIG A   1     -11.550   8.111 129.661  0.00  0.00    +0.019 A 
ENDROOT
BRANCH   1   7
ATOM      7  C   LIG A   1      -9.807   6.607 128.787  0.00  0.00    +0.340 C 
ATOM      8  O   LIG A   1      -9.361   5.725 128.077  0.00  0.00    -0.245 OA
BRANCH   7   9
ATOM      9  O   LIG A   1      -9.120   7.033 129.867  0.00  0.00    -0.477 OA
ATOM     10  H   LIG A   1      -9.765   6.903 130.599  0.00  0.00    +0.295 HD
ENDBRANCH   7   9
ENDBRANCH   1   7
BRANCH   2  11
ATOM     11  O   LIG A   1     -11.516   6.493 126.335  0.00  0.00    -0.506 OA
ATOM     12  H   LIG A   1     -11.840   6.969 125.542  0.00  0.00    +0.292 HD
ENDBRANCH   2  11
TORSDOF 3
ENDMDL
MODEL 9
REMARK VINA RESULT:      -4.9      2.509      3.882
REMARK  Name = NuBBE_209
REMARK  3 active torsions:
REMARK  status: ('A' for Active; 'I' for Inactive)
REMARK    1  A    between atoms: O_1  and  C_2
REMARK    2  A    between atoms: C_2  and  C_3
REMARK    3  A    between atoms: C_4  and  O_5
REMARK                            x       y       z     vdW  Elec       q    Type
REMARK                         _______ _______ _______ _____ _____    ______ ____
ROOT
ATOM      1  C   LIG A   1     -11.203   7.306 128.941  0.00  0.00    +0.100 A 
ATOM      2  C   LIG A   1     -12.363   7.963 129.376  0.00  0.00    +0.131 A 
ATOM      3  C   LIG A   1     -12.830   7.783 130.678  0.00  0.00    +0.046 A 
ATOM      4  C   LIG A   1     -12.144   6.946 131.558  0.00  0.00    +0.004 A 
ATOM      5  C   LIG A   1     -10.990   6.287 131.138  0.00  0.00    +0.001 A 
ATOM      6  C   LIG A   1     -10.520   6.467 129.835  0.00  0.00    +0.019 A 
ENDROOT
BRANCH   1   7
ATOM      7  C   LIG A   1     -10.639   7.443 127.576  0.00  0.00    +0.340 C 
ATOM      8  O   LIG A   1     -10.877   8.338 126.787  0.00  0.00    -0.245 OA
BRANCH   7   9
ATOM      9  O   LIG A   1      -9.792   6.444 127.251  0.00  0.00    -0.477 OA
ATOM     10  H   LIG A   1      -8.964   6.926 127.026  0.00  0.00    +0.295 HD
ENDBRANCH   7   9
ENDBRANCH   1   7
BRANCH   2  11
ATOM     11  O   LIG A   1     -13.103   8.802 128.589  0.00  0.00    -0.506 OA
ATOM     12  H   LIG A   1     -13.842   8.277 128.214  0.00  0.00    +0.292 HD
ENDBRANCH   2  11
TORSDOF 3
ENDMDL
