MODEL 1
REMARK VINA RESULT:      -7.5      0.000      0.000
REMARK  Name = NuBBE_375
REMARK  4 active torsions:
REMARK  status: ('A' for Active; 'I' for Inactive)
REMARK    1  A    between atoms: C_2  and  C_8
REMARK    2  A    between atoms: C_9  and  C_10
REMARK    3  A    between atoms: C_10  and  C_11
REMARK    4  A    between atoms: C_11  and  C_12
REMARK                            x       y       z     vdW  Elec       q    Type
REMARK                         _______ _______ _______ _____ _____    ______ ____
ROOT
ATOM      1  C   LIG A   1      -8.976   2.303 124.161  0.00  0.00    +0.032 C 
ENDROOT
BRANCH   1   3
ATOM      2  C   LIG A   1      -8.934  -0.172 123.860  0.00  0.00    +0.063 C 
ATOM      3  C   LIG A   1      -8.778   0.897 124.655  0.00  0.00    -0.021 C 
BRANCH   2   5
ATOM      4  O   LIG A   1      -9.573  -2.143 125.007  0.00  0.00    -0.271 OA
ATOM      5  C   LIG A   1      -8.717  -1.561 124.353  0.00  0.00    +0.239 C 
ATOM      6  N   LIG A   1      -7.507  -2.125 124.016  0.00  0.00    -0.298 N 
ATOM      7  C   LIG A   1      -7.172  -3.477 124.428  0.00  0.00    +0.108 C 
ATOM      8  C   LIG A   1      -5.682  -3.607 124.139  0.00  0.00    +0.020 C 
ATOM      9  C   LIG A   1      -5.476  -2.669 122.958  0.00  0.00    +0.020 C 
ATOM     10  C   LIG A   1      -6.410  -1.516 123.280  0.00  0.00    +0.108 C 
ENDBRANCH   2   5
ENDBRANCH   1   3
BRANCH   1  11
ATOM     11  C   LIG A   1      -9.188   2.357 122.643  0.00  0.00    +0.039 C 
BRANCH  11  12
ATOM     12  C   LIG A   1      -8.080   3.092 121.922  0.00  0.00    -0.043 A 
ATOM     13  C   LIG A   1      -6.791   3.194 122.497  0.00  0.00    +0.007 A 
ATOM     14  C   LIG A   1      -5.753   3.857 121.835  0.00  0.00    +0.050 A 
ATOM     15  C   LIG A   1      -6.025   4.394 120.597  0.00  0.00    +0.166 A 
ATOM     16  C   LIG A   1      -7.269   4.292 120.022  0.00  0.00    +0.167 A 
ATOM     17  O   LIG A   1      -7.322   4.877 118.795  0.00  0.00    -0.453 OA
ATOM     18  C   LIG A   1      -5.962   5.339 118.656  0.00  0.00    +0.466 C 
ATOM     19  O   LIG A   1      -5.139   5.057 119.807  0.00  0.00    -0.453 OA
ATOM     20  C   LIG A   1      -8.314   3.653 120.656  0.00  0.00    +0.053 A 
ENDBRANCH  11  12
ENDBRANCH   1  11
TORSDOF 4
ENDMDL
MODEL 2
REMARK VINA RESULT:      -7.2      2.560      7.559
REMARK  Name = NuBBE_375
REMARK  4 active torsions:
REMARK  status: ('A' for Active; 'I' for Inactive)
REMARK    1  A    between atoms: C_2  and  C_8
REMARK    2  A    between atoms: C_9  and  C_10
REMARK    3  A    between atoms: C_10  and  C_11
REMARK    4  A    between atoms: C_11  and  C_12
REMARK                            x       y       z     vdW  Elec       q    Type
REMARK                         _______ _______ _______ _____ _____    ______ ____
ROOT
ATOM      1  C   LIG A   1      -8.921   2.584 124.372  0.00  0.00    +0.032 C 
ENDROOT
BRANCH   1   3
ATOM      2  C   LIG A   1      -7.306   3.105 122.544  0.00  0.00    +0.063 C 
ATOM      3  C   LIG A   1      -7.759   3.337 123.786  0.00  0.00    -0.021 C 
BRANCH   2   5
ATOM      4  O   LIG A   1      -5.146   4.076 122.610  0.00  0.00    -0.271 OA
ATOM      5  C   LIG A   1      -6.166   3.870 121.965  0.00  0.00    +0.239 C 
ATOM      6  N   LIG A   1      -6.347   4.309 120.672  0.00  0.00    -0.298 N 
ATOM      7  C   LIG A   1      -5.310   5.061 119.985  0.00  0.00    +0.108 C 
ATOM      8  C   LIG A   1      -5.996   5.610 118.741  0.00  0.00    +0.020 C 
ATOM      9  C   LIG A   1      -7.061   4.565 118.443  0.00  0.00    +0.020 C 
ATOM     10  C   LIG A   1      -7.524   4.153 119.831  0.00  0.00    +0.108 C 
ENDBRANCH   2   5
ENDBRANCH   1   3
BRANCH   1  11
ATOM     11  C   LIG A   1      -9.536   1.601 123.369  0.00  0.00    +0.039 C 
BRANCH  11  12
ATOM     12  C   LIG A   1      -9.328   0.155 123.762  0.00  0.00    -0.043 A 
ATOM     13  C   LIG A   1      -9.285  -0.859 122.776  0.00  0.00    +0.007 A 
ATOM     14  C   LIG A   1      -9.078  -2.198 123.123  0.00  0.00    +0.050 A 
ATOM     15  C   LIG A   1      -8.903  -2.493 124.456  0.00  0.00    +0.166 A 
ATOM     16  C   LIG A   1      -8.933  -1.517 125.423  0.00  0.00    +0.167 A 
ATOM     17  O   LIG A   1      -8.728  -2.016 126.671  0.00  0.00    -0.453 OA
ATOM     18  C   LIG A   1      -8.545  -3.417 126.375  0.00  0.00    +0.466 C 
ATOM     19  O   LIG A   1      -8.679  -3.731 124.973  0.00  0.00    -0.453 OA
ATOM     20  C   LIG A   1      -9.145  -0.189 125.111  0.00  0.00    +0.053 A 
ENDBRANCH  11  12
ENDBRANCH   1  11
TORSDOF 4
ENDMDL
MODEL 3
REMARK VINA RESULT:      -7.1      1.972      2.399
REMARK  Name = NuBBE_375
REMARK  4 active torsions:
REMARK  status: ('A' for Active; 'I' for Inactive)
REMARK    1  A    between atoms: C_2  and  C_8
REMARK    2  A    between atoms: C_9  and  C_10
REMARK    3  A    between atoms: C_10  and  C_11
REMARK    4  A    between atoms: C_11  and  C_12
REMARK                            x       y       z     vdW  Elec       q    Type
REMARK                         _______ _______ _______ _____ _____    ______ ____
ROOT
ATOM      1  C   LIG A   1      -7.937   1.859 124.265  0.00  0.00    +0.032 C 
ENDROOT
BRANCH   1   3
ATOM      2  C   LIG A   1      -8.657  -0.135 125.579  0.00  0.00    +0.063 C 
ATOM      3  C   LIG A   1      -8.286   0.404 124.407  0.00  0.00    -0.021 C 
BRANCH   2   5
ATOM      4  O   LIG A   1      -9.678  -2.142 124.845  0.00  0.00    -0.271 OA
ATOM      5  C   LIG A   1      -9.019  -1.573 125.706  0.00  0.00    +0.239 C 
ATOM      6  N   LIG A   1      -8.557  -2.200 126.843  0.00  0.00    -0.298 N 
ATOM      7  C   LIG A   1      -8.834  -3.605 127.087  0.00  0.00    +0.108 C 
ATOM      8  C   LIG A   1      -8.437  -3.827 128.541  0.00  0.00    +0.020 C 
ATOM      9  C   LIG A   1      -7.327  -2.808 128.756  0.00  0.00    +0.020 C 
ATOM     10  C   LIG A   1      -7.803  -1.617 127.942  0.00  0.00    +0.108 C 
ENDBRANCH   2   5
ENDBRANCH   1   3
BRANCH   1  11
ATOM     11  C   LIG A   1      -8.632   2.505 123.060  0.00  0.00    +0.039 C 
BRANCH  11  12
ATOM     12  C   LIG A   1      -7.669   3.236 122.151  0.00  0.00    -0.043 A 
ATOM     13  C   LIG A   1      -6.340   3.490 122.565  0.00  0.00    +0.007 A 
ATOM     14  C   LIG A   1      -5.434   4.150 121.729  0.00  0.00    +0.050 A 
ATOM     15  C   LIG A   1      -5.876   4.531 120.482  0.00  0.00    +0.166 A 
ATOM     16  C   LIG A   1      -7.161   4.282 120.064  0.00  0.00    +0.167 A 
ATOM     17  O   LIG A   1      -7.390   4.728 118.799  0.00  0.00    -0.453 OA
ATOM     18  C   LIG A   1      -6.094   5.268 118.464  0.00  0.00    +0.466 C 
ATOM     19  O   LIG A   1      -5.135   5.168 119.537  0.00  0.00    -0.453 OA
ATOM     20  C   LIG A   1      -8.079   3.641 120.870  0.00  0.00    +0.053 A 
ENDBRANCH  11  12
ENDBRANCH   1  11
TORSDOF 4
ENDMDL
MODEL 4
REMARK VINA RESULT:      -7.0      3.295      7.916
REMARK  Name = NuBBE_375
REMARK  4 active torsions:
REMARK  status: ('A' for Active; 'I' for Inactive)
REMARK    1  A    between atoms: C_2  and  C_8
REMARK    2  A    between atoms: C_9  and  C_10
REMARK    3  A    between atoms: C_10  and  C_11
REMARK    4  A    between atoms: C_11  and  C_12
REMARK                            x       y       z     vdW  Elec       q    Type
REMARK                         _______ _______ _______ _____ _____    ______ ____
ROOT
ATOM      1  C   LIG A   1      -8.652  -3.213 124.156  0.00  0.00    +0.032 C 
ENDROOT
BRANCH   1   3
ATOM      2  C   LIG A   1      -9.199  -0.796 123.877  0.00  0.00    +0.063 C 
ATOM      3  C   LIG A   1      -9.055  -2.017 123.339  0.00  0.00    -0.021 C 
BRANCH   2   5
ATOM      4  O   LIG A   1     -10.665   0.448 122.494  0.00  0.00    -0.271 OA
ATOM      5  C   LIG A   1      -9.579   0.387 123.057  0.00  0.00    +0.239 C 
ATOM      6  N   LIG A   1      -8.634   1.388 122.990  0.00  0.00    -0.298 N 
ATOM      7  C   LIG A   1      -8.882   2.601 122.229  0.00  0.00    +0.108 C 
ATOM      8  C   LIG A   1      -7.525   3.287 122.150  0.00  0.00    +0.020 C 
ATOM      9  C   LIG A   1      -6.838   2.842 123.434  0.00  0.00    +0.020 C 
ATOM     10  C   LIG A   1      -7.307   1.405 123.584  0.00  0.00    +0.108 C 
ENDBRANCH   2   5
ENDBRANCH   1   3
BRANCH   1  11
ATOM     11  C   LIG A   1      -9.386  -3.267 125.501  0.00  0.00    +0.039 C 
BRANCH  11  12
ATOM     12  C   LIG A   1      -8.456  -3.101 126.683  0.00  0.00    -0.043 A 
ATOM     13  C   LIG A   1      -8.781  -3.669 127.938  0.00  0.00    +0.007 A 
ATOM     14  C   LIG A   1      -7.924  -3.537 129.035  0.00  0.00    +0.050 A 
ATOM     15  C   LIG A   1      -6.746  -2.850 128.848  0.00  0.00    +0.166 A 
ATOM     16  C   LIG A   1      -6.414  -2.303 127.632  0.00  0.00    +0.167 A 
ATOM     17  O   LIG A   1      -5.206  -1.679 127.657  0.00  0.00    -0.453 OA
ATOM     18  C   LIG A   1      -4.808  -1.914 129.024  0.00  0.00    +0.466 C 
ATOM     19  O   LIG A   1      -5.792  -2.636 129.793  0.00  0.00    -0.453 OA
ATOM     20  C   LIG A   1      -7.244  -2.408 126.535  0.00  0.00    +0.053 A 
ENDBRANCH  11  12
ENDBRANCH   1  11
TORSDOF 4
ENDMDL
MODEL 5
REMARK VINA RESULT:      -6.8      5.267      9.557
REMARK  Name = NuBBE_375
REMARK  4 active torsions:
REMARK  status: ('A' for Active; 'I' for Inactive)
REMARK    1  A    between atoms: C_2  and  C_8
REMARK    2  A    between atoms: C_9  and  C_10
REMARK    3  A    between atoms: C_10  and  C_11
REMARK    4  A    between atoms: C_11  and  C_12
REMARK                            x       y       z     vdW  Elec       q    Type
REMARK                         _______ _______ _______ _____ _____    ______ ____
ROOT
ATOM      1  C   LIG A   1      -8.741  -3.979 128.361  0.00  0.00    +0.032 C 
ENDROOT
BRANCH   1   3
ATOM      2  C   LIG A   1      -8.373  -2.229 126.623  0.00  0.00    +0.063 C 
ATOM      3  C   LIG A   1      -8.870  -3.427 126.969  0.00  0.00    -0.021 C 
BRANCH   2   5
ATOM      4  O   LIG A   1      -9.486  -1.086 124.872  0.00  0.00    -0.271 OA
ATOM      5  C   LIG A   1      -8.490  -1.698 125.236  0.00  0.00    +0.239 C 
ATOM      6  N   LIG A   1      -7.407  -1.940 124.419  0.00  0.00    -0.298 N 
ATOM      7  C   LIG A   1      -7.389  -1.469 123.044  0.00  0.00    +0.108 C 
ATOM      8  C   LIG A   1      -6.202  -2.185 122.411  0.00  0.00    +0.020 C 
ATOM      9  C   LIG A   1      -5.252  -2.382 123.583  0.00  0.00    +0.020 C 
ATOM     10  C   LIG A   1      -6.197  -2.682 124.734  0.00  0.00    +0.108 C 
ENDBRANCH   2   5
ENDBRANCH   1   3
BRANCH   1  11
ATOM     11  C   LIG A   1      -8.293  -2.911 129.366  0.00  0.00    +0.039 C 
BRANCH  11  12
ATOM     12  C   LIG A   1      -6.902  -3.161 129.907  0.00  0.00    -0.043 A 
ATOM     13  C   LIG A   1      -5.770  -3.025 129.068  0.00  0.00    +0.007 A 
ATOM     14  C   LIG A   1      -4.477  -3.238 129.558  0.00  0.00    +0.050 A 
ATOM     15  C   LIG A   1      -4.343  -3.569 130.887  0.00  0.00    +0.166 A 
ATOM     16  C   LIG A   1      -5.434  -3.694 131.714  0.00  0.00    +0.167 A 
ATOM     17  O   LIG A   1      -5.083  -4.014 132.989  0.00  0.00    -0.453 OA
ATOM     18  C   LIG A   1      -3.645  -4.055 132.872  0.00  0.00    +0.466 C 
ATOM     19  O   LIG A   1      -3.170  -3.797 131.535  0.00  0.00    -0.453 OA
ATOM     20  C   LIG A   1      -6.721  -3.500 131.257  0.00  0.00    +0.053 A 
ENDBRANCH  11  12
ENDBRANCH   1  11
TORSDOF 4
ENDMDL
MODEL 6
REMARK VINA RESULT:      -6.6      9.929     11.613
REMARK  Name = NuBBE_375
REMARK  4 active torsions:
REMARK  status: ('A' for Active; 'I' for Inactive)
REMARK    1  A    between atoms: C_2  and  C_8
REMARK    2  A    between atoms: C_9  and  C_10
REMARK    3  A    between atoms: C_10  and  C_11
REMARK    4  A    between atoms: C_11  and  C_12
REMARK                            x       y       z     vdW  Elec       q    Type
REMARK                         _______ _______ _______ _____ _____    ______ ____
ROOT
ATOM      1  C   LIG A   1      -8.450   5.564 131.657  0.00  0.00    +0.032 C 
ENDROOT
BRANCH   1   3
ATOM      2  C   LIG A   1      -6.150   6.226 130.956  0.00  0.00    +0.063 C 
ATOM      3  C   LIG A   1      -7.311   6.539 131.553  0.00  0.00    -0.021 C 
BRANCH   2   5
ATOM      4  O   LIG A   1      -4.967   7.986 129.901  0.00  0.00    -0.271 OA
ATOM      5  C   LIG A   1      -5.033   7.205 130.841  0.00  0.00    +0.239 C 
ATOM      6  N   LIG A   1      -4.107   7.165 131.860  0.00  0.00    -0.298 N 
ATOM      7  C   LIG A   1      -2.971   8.072 131.874  0.00  0.00    +0.108 C 
ATOM      8  C   LIG A   1      -2.052   7.517 132.954  0.00  0.00    +0.020 C 
ATOM      9  C   LIG A   1      -3.019   6.854 133.925  0.00  0.00    +0.020 C 
ATOM     10  C   LIG A   1      -4.068   6.261 132.999  0.00  0.00    +0.108 C 
ENDBRANCH   2   5
ENDBRANCH   1   3
BRANCH   1  11
ATOM     11  C   LIG A   1      -9.684   6.186 132.321  0.00  0.00    +0.039 C 
BRANCH  11  12
ATOM     12  C   LIG A   1     -10.787   6.498 131.333  0.00  0.00    -0.043 A 
ATOM     13  C   LIG A   1     -12.050   6.949 131.785  0.00  0.00    +0.007 A 
ATOM     14  C   LIG A   1     -13.074   7.256 130.883  0.00  0.00    +0.050 A 
ATOM     15  C   LIG A   1     -12.806   7.118 129.540  0.00  0.00    +0.166 A 
ATOM     16  C   LIG A   1     -11.580   6.691 129.088  0.00  0.00    +0.167 A 
ATOM     17  O   LIG A   1     -11.519   6.636 127.730  0.00  0.00    -0.453 OA
ATOM     18  C   LIG A   1     -12.842   7.098 127.381  0.00  0.00    +0.466 C 
ATOM     19  O   LIG A   1     -13.672   7.383 128.526  0.00  0.00    -0.453 OA
ATOM     20  C   LIG A   1     -10.555   6.372 129.954  0.00  0.00    +0.053 A 
ENDBRANCH  11  12
ENDBRANCH   1  11
TORSDOF 4
ENDMDL
MODEL 7
REMARK VINA RESULT:      -6.5      5.256      8.900
REMARK  Name = NuBBE_375
REMARK  4 active torsions:
REMARK  status: ('A' for Active; 'I' for Inactive)
REMARK    1  A    between atoms: C_2  and  C_8
REMARK    2  A    between atoms: C_9  and  C_10
REMARK    3  A    between atoms: C_10  and  C_11
REMARK    4  A    between atoms: C_11  and  C_12
REMARK                            x       y       z     vdW  Elec       q    Type
REMARK                         _______ _______ _______ _____ _____    ______ ____
ROOT
ATOM      1  C   LIG A   1      -8.888  -3.894 128.589  0.00  0.00    +0.032 C 
ENDROOT
BRANCH   1   3
ATOM      2  C   LIG A   1      -8.450  -2.389 126.648  0.00  0.00    +0.063 C 
ATOM      3  C   LIG A   1      -8.971  -3.528 127.134  0.00  0.00    -0.021 C 
BRANCH   2   5
ATOM      4  O   LIG A   1      -9.561  -1.646 124.693  0.00  0.00    -0.271 OA
ATOM      5  C   LIG A   1      -8.521  -2.044 125.202  0.00  0.00    +0.239 C 
ATOM      6  N   LIG A   1      -7.345  -2.197 124.501  0.00  0.00    -0.298 N 
ATOM      7  C   LIG A   1      -7.274  -1.887 123.083  0.00  0.00    +0.108 C 
ATOM      8  C   LIG A   1      -5.940  -2.468 122.630  0.00  0.00    +0.020 C 
ATOM      9  C   LIG A   1      -5.080  -2.375 123.883  0.00  0.00    +0.020 C 
ATOM     10  C   LIG A   1      -6.069  -2.693 124.992  0.00  0.00    +0.108 C 
ENDBRANCH   2   5
ENDBRANCH   1   3
BRANCH   1  11
ATOM     11  C   LIG A   1      -7.504  -3.602 129.180  0.00  0.00    +0.039 C 
BRANCH  11  12
ATOM     12  C   LIG A   1      -7.548  -2.600 130.312  0.00  0.00    -0.043 A 
ATOM     13  C   LIG A   1      -7.297  -3.008 131.644  0.00  0.00    +0.007 A 
ATOM     14  C   LIG A   1      -7.320  -2.089 132.698  0.00  0.00    +0.050 A 
ATOM     15  C   LIG A   1      -7.579  -0.772 132.394  0.00  0.00    +0.166 A 
ATOM     16  C   LIG A   1      -7.814  -0.362 131.104  0.00  0.00    +0.167 A 
ATOM     17  O   LIG A   1      -8.036   0.978 131.019  0.00  0.00    -0.453 OA
ATOM     18  C   LIG A   1      -7.893   1.364 132.402  0.00  0.00    +0.466 C 
ATOM     19  O   LIG A   1      -7.627   0.254 133.284  0.00  0.00    -0.453 OA
ATOM     20  C   LIG A   1      -7.809  -1.246 130.045  0.00  0.00    +0.053 A 
ENDBRANCH  11  12
ENDBRANCH   1  11
TORSDOF 4
ENDMDL
MODEL 8
REMARK VINA RESULT:      -6.5      4.908      8.395
REMARK  Name = NuBBE_375
REMARK  4 active torsions:
REMARK  status: ('A' for Active; 'I' for Inactive)
REMARK    1  A    between atoms: C_2  and  C_8
REMARK    2  A    between atoms: C_9  and  C_10
REMARK    3  A    between atoms: C_10  and  C_11
REMARK    4  A    between atoms: C_11  and  C_12
REMARK                            x       y       z     vdW  Elec       q    Type
REMARK                         _______ _______ _______ _____ _____    ______ ____
ROOT
ATOM      1  C   LIG A   1      -8.948  -4.067 128.100  0.00  0.00    +0.032 C 
ENDROOT
BRANCH   1   3
ATOM      2  C   LIG A   1      -8.829  -3.390 125.702  0.00  0.00    +0.063 C 
ATOM      3  C   LIG A   1      -8.728  -3.065 127.001  0.00  0.00    -0.021 C 
BRANCH   2   5
ATOM      4  O   LIG A   1      -9.488  -1.558 124.354  0.00  0.00    -0.271 OA
ATOM      5  C   LIG A   1      -8.627  -2.387 124.620  0.00  0.00    +0.239 C 
ATOM      6  N   LIG A   1      -7.419  -2.462 123.963  0.00  0.00    -0.298 N 
ATOM      7  C   LIG A   1      -7.092  -1.537 122.892  0.00  0.00    +0.108 C 
ATOM      8  C   LIG A   1      -5.848  -2.129 122.241  0.00  0.00    +0.020 C 
ATOM      9  C   LIG A   1      -5.170  -2.859 123.393  0.00  0.00    +0.020 C 
ATOM     10  C   LIG A   1      -6.346  -3.422 124.171  0.00  0.00    +0.108 C 
ENDBRANCH   2   5
ENDBRANCH   1   3
BRANCH   1  11
ATOM     11  C   LIG A   1      -8.813  -3.436 129.491  0.00  0.00    +0.039 C 
BRANCH  11  12
ATOM     12  C   LIG A   1      -7.492  -2.725 129.687  0.00  0.00    -0.043 A 
ATOM     13  C   LIG A   1      -7.454  -1.329 129.918  0.00  0.00    +0.007 A 
ATOM     14  C   LIG A   1      -6.241  -0.662 130.116  0.00  0.00    +0.050 A 
ATOM     15  C   LIG A   1      -5.087  -1.412 130.094  0.00  0.00    +0.166 A 
ATOM     16  C   LIG A   1      -5.111  -2.769 129.881  0.00  0.00    +0.167 A 
ATOM     17  O   LIG A   1      -3.868  -3.320 129.910  0.00  0.00    -0.453 OA
ATOM     18  C   LIG A   1      -3.062  -2.155 130.187  0.00  0.00    +0.466 C 
ATOM     19  O   LIG A   1      -3.827  -0.936 130.280  0.00  0.00    -0.453 OA
ATOM     20  C   LIG A   1      -6.291  -3.453 129.673  0.00  0.00    +0.053 A 
ENDBRANCH  11  12
ENDBRANCH   1  11
TORSDOF 4
ENDMDL
MODEL 9
REMARK VINA RESULT:      -6.5      4.233      6.546
REMARK  Name = NuBBE_375
REMARK  4 active torsions:
REMARK  status: ('A' for Active; 'I' for Inactive)
REMARK    1  A    between atoms: C_2  and  C_8
REMARK    2  A    between atoms: C_9  and  C_10
REMARK    3  A    between atoms: C_10  and  C_11
REMARK    4  A    between atoms: C_11  and  C_12
REMARK                            x       y       z     vdW  Elec       q    Type
REMARK                         _______ _______ _______ _____ _____    ______ ____
ROOT
ATOM      1  C   LIG A   1      -9.295  -3.662 127.055  0.00  0.00    +0.032 C 
ENDROOT
BRANCH   1   3
ATOM      2  C   LIG A   1      -7.618  -2.795 128.685  0.00  0.00    +0.063 C 
ATOM      3  C   LIG A   1      -8.604  -3.657 128.390  0.00  0.00    -0.021 C 
BRANCH   2   5
ATOM      4  O   LIG A   1      -7.603  -2.767 131.054  0.00  0.00    -0.271 OA
ATOM      5  C   LIG A   1      -6.952  -2.784 130.017  0.00  0.00    +0.239 C 
ATOM      6  N   LIG A   1      -5.574  -2.803 129.988  0.00  0.00    -0.298 N 
ATOM      7  C   LIG A   1      -4.800  -2.803 131.218  0.00  0.00    +0.108 C 
ATOM      8  C   LIG A   1      -3.372  -2.518 130.771  0.00  0.00    +0.020 C 
ATOM      9  C   LIG A   1      -3.324  -3.109 129.369  0.00  0.00    +0.020 C 
ATOM     10  C   LIG A   1      -4.704  -2.787 128.822  0.00  0.00    +0.108 C 
ENDBRANCH   2   5
ENDBRANCH   1   3
BRANCH   1  11
ATOM     11  C   LIG A   1      -8.309  -3.491 125.894  0.00  0.00    +0.039 C 
BRANCH  11  12
ATOM     12  C   LIG A   1      -8.647  -2.314 125.006  0.00  0.00    -0.043 A 
ATOM     13  C   LIG A   1      -8.915  -2.506 123.629  0.00  0.00    +0.007 A 
ATOM     14  C   LIG A   1      -9.245  -1.431 122.799  0.00  0.00    +0.050 A 
ATOM     15  C   LIG A   1      -9.315  -0.180 123.370  0.00  0.00    +0.166 A 
ATOM     16  C   LIG A   1      -9.068   0.018 124.707  0.00  0.00    +0.167 A 
ATOM     17  O   LIG A   1      -9.203   1.322 125.071  0.00  0.00    -0.453 OA
ATOM     18  C   LIG A   1      -9.583   1.916 123.812  0.00  0.00    +0.466 C 
ATOM     19  O   LIG A   1      -9.633   0.972 122.722  0.00  0.00    -0.453 OA
ATOM     20  C   LIG A   1      -8.731  -1.022 125.548  0.00  0.00    +0.053 A 
ENDBRANCH  11  12
ENDBRANCH   1  11
TORSDOF 4
ENDMDL
