MODEL 1
REMARK VINA RESULT:      -6.2      0.000      0.000
REMARK  Name = NuBBE_1812
REMARK  3 active torsions:
REMARK  status: ('A' for Active; 'I' for Inactive)
REMARK    1  A    between atoms: C_1  and  C_5
REMARK    2  A    between atoms: C_2  and  C_3
REMARK    3  A    between atoms: C_3  and  O_4
REMARK                            x       y       z     vdW  Elec       q    Type
REMARK                         _______ _______ _______ _____ _____    ______ ____
ROOT
ATOM      1  C   LIG A   1      -6.765  -1.917 123.140  0.00  0.00    -0.022 A 
ATOM      2  C   LIG A   1      -6.747  -0.523 123.300  0.00  0.00    +0.057 A 
ATOM      3  C   LIG A   1      -7.954   0.144 123.365  0.00  0.00    +0.167 A 
ATOM      4  C   LIG A   1      -9.155  -0.519 123.285  0.00  0.00    +0.166 A 
ATOM      5  C   LIG A   1      -9.218  -1.886 123.143  0.00  0.00    +0.050 A 
ATOM      6  C   LIG A   1      -8.008  -2.588 123.077  0.00  0.00    +0.012 A 
ATOM      7  O   LIG A   1     -10.221   0.321 123.372  0.00  0.00    -0.453 OA
ATOM      8  C   LIG A   1      -9.552   1.591 123.516  0.00  0.00    +0.466 C 
ATOM      9  O   LIG A   1      -8.113   1.487 123.514  0.00  0.00    -0.453 OA
ENDROOT
BRANCH   1  10
ATOM     10  C   LIG A   1      -5.486  -2.646 123.105  0.00  0.00    +0.006 C 
ATOM     11  C   LIG A   1      -5.267  -3.814 123.728  0.00  0.00    +0.001 C 
BRANCH  11  12
ATOM     12  C   LIG A   1      -3.967  -4.547 123.710  0.00  0.00    +0.183 C 
BRANCH  12  13
ATOM     13  O   LIG A   1      -4.129  -5.714 122.920  0.00  0.00    -0.391 OA
ATOM     14  H   LIG A   1      -3.731  -6.449 123.419  0.00  0.00    +0.210 HD
ENDBRANCH  12  13
ENDBRANCH  11  12
ENDBRANCH   1  10
TORSDOF 3
ENDMDL
MODEL 2
REMARK VINA RESULT:      -6.0      9.859     13.571
REMARK  Name = NuBBE_1812
REMARK  3 active torsions:
REMARK  status: ('A' for Active; 'I' for Inactive)
REMARK    1  A    between atoms: C_1  and  C_5
REMARK    2  A    between atoms: C_2  and  C_3
REMARK    3  A    between atoms: C_3  and  O_4
REMARK                            x       y       z     vdW  Elec       q    Type
REMARK                         _______ _______ _______ _____ _____    ______ ____
ROOT
ATOM      1  C   LIG A   1     -12.148   8.053 129.895  0.00  0.00    -0.022 A 
ATOM      2  C   LIG A   1     -11.024   7.662 129.153  0.00  0.00    +0.057 A 
ATOM      3  C   LIG A   1     -10.321   6.547 129.566  0.00  0.00    +0.167 A 
ATOM      4  C   LIG A   1     -10.698   5.819 130.669  0.00  0.00    +0.166 A 
ATOM      5  C   LIG A   1     -11.802   6.159 131.416  0.00  0.00    +0.050 A 
ATOM      6  C   LIG A   1     -12.535   7.283 131.017  0.00  0.00    +0.012 A 
ATOM      7  O   LIG A   1      -9.875   4.763 130.903  0.00  0.00    -0.453 OA
ATOM      8  C   LIG A   1      -8.934   4.908 129.818  0.00  0.00    +0.466 C 
ATOM      9  O   LIG A   1      -9.212   6.038 128.965  0.00  0.00    -0.453 OA
ENDROOT
BRANCH   1  10
ATOM     10  C   LIG A   1     -12.928   9.217 129.446  0.00  0.00    +0.006 C 
ATOM     11  C   LIG A   1     -13.081  10.344 130.160  0.00  0.00    +0.001 C 
BRANCH  11  12
ATOM     12  C   LIG A   1     -13.886  11.519 129.715  0.00  0.00    +0.183 C 
BRANCH  12  13
ATOM     13  O   LIG A   1     -13.812  12.513 130.725  0.00  0.00    -0.391 OA
ATOM     14  H   LIG A   1     -13.741  12.045 131.575  0.00  0.00    +0.210 HD
ENDBRANCH  12  13
ENDBRANCH  11  12
ENDBRANCH   1  10
TORSDOF 3
ENDMDL
MODEL 3
REMARK VINA RESULT:      -6.0      0.974      1.869
REMARK  Name = NuBBE_1812
REMARK  3 active torsions:
REMARK  status: ('A' for Active; 'I' for Inactive)
REMARK    1  A    between atoms: C_1  and  C_5
REMARK    2  A    between atoms: C_2  and  C_3
REMARK    3  A    between atoms: C_3  and  O_4
REMARK                            x       y       z     vdW  Elec       q    Type
REMARK                         _______ _______ _______ _____ _____    ______ ____
ROOT
ATOM      1  C   LIG A   1      -6.735  -1.994 124.066  0.00  0.00    -0.022 A 
ATOM      2  C   LIG A   1      -7.992  -2.163 123.468  0.00  0.00    +0.057 A 
ATOM      3  C   LIG A   1      -8.737  -1.036 123.179  0.00  0.00    +0.167 A 
ATOM      4  C   LIG A   1      -8.276   0.228 123.454  0.00  0.00    +0.166 A 
ATOM      5  C   LIG A   1      -7.043   0.440 124.026  0.00  0.00    +0.050 A 
ATOM      6  C   LIG A   1      -6.266  -0.685 124.327  0.00  0.00    +0.012 A 
ATOM      7  O   LIG A   1      -9.160   1.196 123.091  0.00  0.00    -0.453 OA
ATOM      8  C   LIG A   1     -10.232   0.394 122.554  0.00  0.00    +0.466 C 
ATOM      9  O   LIG A   1      -9.971  -1.024 122.605  0.00  0.00    -0.453 OA
ENDROOT
BRANCH   1  10
ATOM     10  C   LIG A   1      -5.915  -3.183 124.347  0.00  0.00    +0.006 C 
ATOM     11  C   LIG A   1      -4.866  -3.569 123.603  0.00  0.00    +0.001 C 
BRANCH  11  12
ATOM     12  C   LIG A   1      -4.043  -4.784 123.874  0.00  0.00    +0.183 C 
BRANCH  12  13
ATOM     13  O   LIG A   1      -4.161  -5.655 122.760  0.00  0.00    -0.391 OA
ATOM     14  H   LIG A   1      -4.068  -5.106 121.963  0.00  0.00    +0.210 HD
ENDBRANCH  12  13
ENDBRANCH  11  12
ENDBRANCH   1  10
TORSDOF 3
ENDMDL
MODEL 4
REMARK VINA RESULT:      -5.7     11.474     12.035
REMARK  Name = NuBBE_1812
REMARK  3 active torsions:
REMARK  status: ('A' for Active; 'I' for Inactive)
REMARK    1  A    between atoms: C_1  and  C_5
REMARK    2  A    between atoms: C_2  and  C_3
REMARK    3  A    between atoms: C_3  and  O_4
REMARK                            x       y       z     vdW  Elec       q    Type
REMARK                         _______ _______ _______ _____ _____    ______ ____
ROOT
ATOM      1  C   LIG A   1     -10.749   6.505 131.503  0.00  0.00    -0.022 A 
ATOM      2  C   LIG A   1      -9.972   6.804 130.374  0.00  0.00    +0.057 A 
ATOM      3  C   LIG A   1     -10.592   7.396 129.291  0.00  0.00    +0.167 A 
ATOM      4  C   LIG A   1     -11.932   7.702 129.300  0.00  0.00    +0.166 A 
ATOM      5  C   LIG A   1     -12.726   7.439 130.392  0.00  0.00    +0.050 A 
ATOM      6  C   LIG A   1     -12.122   6.842 131.504  0.00  0.00    +0.012 A 
ATOM      7  O   LIG A   1     -12.343   8.280 128.139  0.00  0.00    -0.453 OA
ATOM      8  C   LIG A   1     -11.105   8.304 127.398  0.00  0.00    +0.466 C 
ATOM      9  O   LIG A   1      -9.989   7.747 128.123  0.00  0.00    -0.453 OA
ENDROOT
BRANCH   1  10
ATOM     10  C   LIG A   1     -10.094   5.907 132.678  0.00  0.00    +0.006 C 
ATOM     11  C   LIG A   1      -8.768   5.913 132.888  0.00  0.00    +0.001 C 
BRANCH  11  12
ATOM     12  C   LIG A   1      -8.099   5.292 134.069  0.00  0.00    +0.183 C 
BRANCH  12  13
ATOM     13  O   LIG A   1      -8.994   4.351 134.638  0.00  0.00    -0.391 OA
ATOM     14  H   LIG A   1      -9.605   4.080 133.931  0.00  0.00    +0.210 HD
ENDBRANCH  12  13
ENDBRANCH  11  12
ENDBRANCH   1  10
TORSDOF 3
ENDMDL
MODEL 5
REMARK VINA RESULT:      -5.5     11.659     13.009
REMARK  Name = NuBBE_1812
REMARK  3 active torsions:
REMARK  status: ('A' for Active; 'I' for Inactive)
REMARK    1  A    between atoms: C_1  and  C_5
REMARK    2  A    between atoms: C_2  and  C_3
REMARK    3  A    between atoms: C_3  and  O_4
REMARK                            x       y       z     vdW  Elec       q    Type
REMARK                         _______ _______ _______ _____ _____    ______ ____
ROOT
ATOM      1  C   LIG A   1     -10.695   6.960 130.711  0.00  0.00    -0.022 A 
ATOM      2  C   LIG A   1      -9.424   7.273 130.206  0.00  0.00    +0.057 A 
ATOM      3  C   LIG A   1      -8.317   6.880 130.931  0.00  0.00    +0.167 A 
ATOM      4  C   LIG A   1      -8.431   6.192 132.114  0.00  0.00    +0.166 A 
ATOM      5  C   LIG A   1      -9.657   5.851 132.637  0.00  0.00    +0.050 A 
ATOM      6  C   LIG A   1     -10.797   6.235 131.921  0.00  0.00    +0.012 A 
ATOM      7  O   LIG A   1      -7.223   5.899 132.666  0.00  0.00    -0.453 OA
ATOM      8  C   LIG A   1      -6.333   6.482 131.692  0.00  0.00    +0.466 C 
ATOM      9  O   LIG A   1      -7.020   7.106 130.586  0.00  0.00    -0.453 OA
ENDROOT
BRANCH   1  10
ATOM     10  C   LIG A   1     -11.884   7.341 129.931  0.00  0.00    +0.006 C 
ATOM     11  C   LIG A   1     -12.027   8.517 129.300  0.00  0.00    +0.001 C 
BRANCH  11  12
ATOM     12  C   LIG A   1     -13.238   8.914 128.523  0.00  0.00    +0.183 C 
BRANCH  12  13
ATOM     13  O   LIG A   1     -13.404  10.317 128.651  0.00  0.00    -0.391 OA
ATOM     14  H   LIG A   1     -14.138  10.568 128.063  0.00  0.00    +0.210 HD
ENDBRANCH  12  13
ENDBRANCH  11  12
ENDBRANCH   1  10
TORSDOF 3
ENDMDL
MODEL 6
REMARK VINA RESULT:      -5.5      9.406     12.807
REMARK  Name = NuBBE_1812
REMARK  3 active torsions:
REMARK  status: ('A' for Active; 'I' for Inactive)
REMARK    1  A    between atoms: C_1  and  C_5
REMARK    2  A    between atoms: C_2  and  C_3
REMARK    3  A    between atoms: C_3  and  O_4
REMARK                            x       y       z     vdW  Elec       q    Type
REMARK                         _______ _______ _______ _____ _____    ______ ____
ROOT
ATOM      1  C   LIG A   1     -11.678   7.340 129.953  0.00  0.00    -0.022 A 
ATOM      2  C   LIG A   1     -12.082   6.002 130.075  0.00  0.00    +0.057 A 
ATOM      3  C   LIG A   1     -11.105   5.028 130.150  0.00  0.00    +0.167 A 
ATOM      4  C   LIG A   1      -9.767   5.338 130.115  0.00  0.00    +0.166 A 
ATOM      5  C   LIG A   1      -9.329   6.638 130.012  0.00  0.00    +0.050 A 
ATOM      6  C   LIG A   1     -10.298   7.646 129.938  0.00  0.00    +0.012 A 
ATOM      7  O   LIG A   1      -8.974   4.237 130.203  0.00  0.00    -0.453 OA
ATOM      8  C   LIG A   1      -9.969   3.196 130.298  0.00  0.00    +0.466 C 
ATOM      9  O   LIG A   1     -11.324   3.690 130.266  0.00  0.00    -0.453 OA
ENDROOT
BRANCH   1  10
ATOM     10  C   LIG A   1     -12.707   8.392 129.909  0.00  0.00    +0.006 C 
ATOM     11  C   LIG A   1     -12.778   9.339 128.960  0.00  0.00    +0.001 C 
BRANCH  11  12
ATOM     12  C   LIG A   1     -13.808  10.418 128.922  0.00  0.00    +0.183 C 
BRANCH  12  13
ATOM     13  O   LIG A   1     -13.173  11.648 129.230  0.00  0.00    -0.391 OA
ATOM     14  H   LIG A   1     -13.406  12.271 128.521  0.00  0.00    +0.210 HD
ENDBRANCH  12  13
ENDBRANCH  11  12
ENDBRANCH   1  10
TORSDOF 3
ENDMDL
MODEL 7
REMARK VINA RESULT:      -5.4     11.623     11.859
REMARK  Name = NuBBE_1812
REMARK  3 active torsions:
REMARK  status: ('A' for Active; 'I' for Inactive)
REMARK    1  A    between atoms: C_1  and  C_5
REMARK    2  A    between atoms: C_2  and  C_3
REMARK    3  A    between atoms: C_3  and  O_4
REMARK                            x       y       z     vdW  Elec       q    Type
REMARK                         _______ _______ _______ _____ _____    ______ ____
ROOT
ATOM      1  C   LIG A   1      -9.530   6.653 131.170  0.00  0.00    -0.022 A 
ATOM      2  C   LIG A   1      -9.588   7.403 129.985  0.00  0.00    +0.057 A 
ATOM      3  C   LIG A   1     -10.829   7.770 129.504  0.00  0.00    +0.167 A 
ATOM      4  C   LIG A   1     -11.990   7.430 130.154  0.00  0.00    +0.166 A 
ATOM      5  C   LIG A   1     -11.977   6.709 131.326  0.00  0.00    +0.050 A 
ATOM      6  C   LIG A   1     -10.732   6.326 131.838  0.00  0.00    +0.012 A 
ATOM      7  O   LIG A   1     -13.100   7.889 129.516  0.00  0.00    -0.453 OA
ATOM      8  C   LIG A   1     -12.503   8.560 128.387  0.00  0.00    +0.466 C 
ATOM      9  O   LIG A   1     -11.062   8.490 128.373  0.00  0.00    -0.453 OA
ENDROOT
BRANCH   1  10
ATOM     10  C   LIG A   1      -8.213   6.285 131.714  0.00  0.00    +0.006 C 
ATOM     11  C   LIG A   1      -7.046   6.763 131.254  0.00  0.00    +0.001 C 
BRANCH  11  12
ATOM     12  C   LIG A   1      -5.707   6.379 131.792  0.00  0.00    +0.183 C 
BRANCH  12  13
ATOM     13  O   LIG A   1      -5.862   6.040 133.161  0.00  0.00    -0.391 OA
ATOM     14  H   LIG A   1      -5.170   6.517 133.649  0.00  0.00    +0.210 HD
ENDBRANCH  12  13
ENDBRANCH  11  12
ENDBRANCH   1  10
TORSDOF 3
ENDMDL
MODEL 8
REMARK VINA RESULT:      -5.3      4.875      6.617
REMARK  Name = NuBBE_1812
REMARK  3 active torsions:
REMARK  status: ('A' for Active; 'I' for Inactive)
REMARK    1  A    between atoms: C_1  and  C_5
REMARK    2  A    between atoms: C_2  and  C_3
REMARK    3  A    between atoms: C_3  and  O_4
REMARK                            x       y       z     vdW  Elec       q    Type
REMARK                         _______ _______ _______ _____ _____    ______ ____
ROOT
ATOM      1  C   LIG A   1      -7.980   3.087 122.264  0.00  0.00    -0.022 A 
ATOM      2  C   LIG A   1      -8.403   3.519 120.998  0.00  0.00    +0.057 A 
ATOM      3  C   LIG A   1      -7.478   4.123 120.170  0.00  0.00    +0.167 A 
ATOM      4  C   LIG A   1      -6.170   4.301 120.550  0.00  0.00    +0.166 A 
ATOM      5  C   LIG A   1      -5.710   3.880 121.776  0.00  0.00    +0.050 A 
ATOM      6  C   LIG A   1      -6.626   3.261 122.635  0.00  0.00    +0.012 A 
ATOM      7  O   LIG A   1      -5.426   4.913 119.591  0.00  0.00    -0.453 OA
ATOM      8  C   LIG A   1      -6.418   5.100 118.559  0.00  0.00    +0.466 C 
ATOM      9  O   LIG A   1      -7.722   4.600 118.919  0.00  0.00    -0.453 OA
ENDROOT
BRANCH   1  10
ATOM     10  C   LIG A   1      -8.946   2.409 123.144  0.00  0.00    +0.006 C 
ATOM     11  C   LIG A   1      -8.604   1.656 124.202  0.00  0.00    +0.001 C 
BRANCH  11  12
ATOM     12  C   LIG A   1      -9.579   0.953 125.085  0.00  0.00    +0.183 C 
BRANCH  12  13
ATOM     13  O   LIG A   1      -9.336   1.359 126.423  0.00  0.00    -0.391 OA
ATOM     14  H   LIG A   1      -9.078   2.296 126.389  0.00  0.00    +0.210 HD
ENDBRANCH  12  13
ENDBRANCH  11  12
ENDBRANCH   1  10
TORSDOF 3
ENDMDL
MODEL 9
REMARK VINA RESULT:      -5.0     10.939     11.771
REMARK  Name = NuBBE_1812
REMARK  3 active torsions:
REMARK  status: ('A' for Active; 'I' for Inactive)
REMARK    1  A    between atoms: C_1  and  C_5
REMARK    2  A    between atoms: C_2  and  C_3
REMARK    3  A    between atoms: C_3  and  O_4
REMARK                            x       y       z     vdW  Elec       q    Type
REMARK                         _______ _______ _______ _____ _____    ______ ____
ROOT
ATOM      1  C   LIG A   1      -9.203   6.082 131.506  0.00  0.00    -0.022 A 
ATOM      2  C   LIG A   1      -9.039   7.139 130.598  0.00  0.00    +0.057 A 
ATOM      3  C   LIG A   1      -9.935   7.248 129.553  0.00  0.00    +0.167 A 
ATOM      4  C   LIG A   1     -10.972   6.362 129.390  0.00  0.00    +0.166 A 
ATOM      5  C   LIG A   1     -11.178   5.321 130.266  0.00  0.00    +0.050 A 
ATOM      6  C   LIG A   1     -10.286   5.188 131.337  0.00  0.00    +0.012 A 
ATOM      7  O   LIG A   1     -11.737   6.647 128.303  0.00  0.00    -0.453 OA
ATOM      8  C   LIG A   1     -11.061   7.818 127.798  0.00  0.00    +0.466 C 
ATOM      9  O   LIG A   1      -9.917   8.206 128.587  0.00  0.00    -0.453 OA
ENDROOT
BRANCH   1  10
ATOM     10  C   LIG A   1      -8.277   5.974 132.646  0.00  0.00    +0.006 C 
ATOM     11  C   LIG A   1      -8.537   5.280 133.766  0.00  0.00    +0.001 C 
BRANCH  11  12
ATOM     12  C   LIG A   1      -7.609   5.183 134.930  0.00  0.00    +0.183 C 
BRANCH  12  13
ATOM     13  O   LIG A   1      -8.219   5.828 136.036  0.00  0.00    -0.391 OA
ATOM     14  H   LIG A   1      -9.176   5.671 135.961  0.00  0.00    +0.210 HD
ENDBRANCH  12  13
ENDBRANCH  11  12
ENDBRANCH   1  10
TORSDOF 3
ENDMDL
