MODEL 1
REMARK VINA RESULT:      -7.5      0.000      0.000
REMARK  Name = NuBBE_1270
REMARK  7 active torsions:
REMARK  status: ('A' for Active; 'I' for Inactive)
REMARK    1  A    between atoms: C_6  and  O_7
REMARK    2  A    between atoms: C_11  and  C_12
REMARK    3  A    between atoms: C_11  and  C_13
REMARK    4  A    between atoms: C_16  and  C_17
REMARK    5  A    between atoms: C_17  and  C_18
REMARK    6  A    between atoms: C_17  and  C_20
REMARK    7  A    between atoms: C_17  and  C_21
REMARK                            x       y       z     vdW  Elec       q    Type
REMARK                         _______ _______ _______ _____ _____    ______ ____
ROOT
ATOM      1  O   LIG A   1     -10.232   0.178 121.772  0.00  0.00    -0.245 OA
ATOM      2  C   LIG A   1      -9.879   0.368 122.924  0.00  0.00    +0.337 A 
ATOM      3  C   LIG A   1      -9.980   1.705 123.529  0.00  0.00    +0.093 A 
ATOM      4  C   LIG A   1      -9.567   1.950 124.772  0.00  0.00    +0.022 A 
ATOM      5  C   LIG A   1      -8.974   0.889 125.583  0.00  0.00    +0.060 A 
ATOM      6  C   LIG A   1      -8.494   1.123 126.873  0.00  0.00    +0.138 A 
ATOM      7  C   LIG A   1      -7.983   0.077 127.648  0.00  0.00    +0.059 A 
ATOM      8  C   LIG A   1      -7.504   0.326 129.006  0.00  0.00    +0.015 C 
ATOM      9  C   LIG A   1      -6.984  -0.685 129.705  0.00  0.00    +0.020 C 
ATOM     10  C   LIG A   1      -6.870  -2.076 129.157  0.00  0.00    +0.123 C 
ATOM     11  C   LIG A   1      -5.397  -2.495 129.105  0.00  0.00    +0.060 C 
ATOM     12  C   LIG A   1      -7.658  -3.053 130.036  0.00  0.00    +0.060 C 
ATOM     13  O   LIG A   1      -7.382  -2.247 127.830  0.00  0.00    -0.481 OA
ATOM     14  C   LIG A   1      -7.917  -1.223 127.106  0.00  0.00    +0.140 A 
ATOM     15  C   LIG A   1      -8.380  -1.524 125.797  0.00  0.00    +0.047 A 
ATOM     16  C   LIG A   1      -8.905  -0.419 125.067  0.00  0.00    +0.150 A 
ATOM     17  O   LIG A   1      -9.372  -0.640 123.740  0.00  0.00    -0.422 OA
ENDROOT
BRANCH  15  18
ATOM     18  C   LIG A   1      -8.338  -2.961 125.177  0.00  0.00    +0.015 C 
ATOM     19  C   LIG A   1      -8.638  -4.014 126.274  0.00  0.00    +0.020 C 
ATOM     20  C   LIG A   1      -9.386  -3.267 124.068  0.00  0.00    +0.020 C 
BRANCH  18  21
ATOM     21  C   LIG A   1      -6.994  -3.188 124.466  0.00  0.00    -0.023 C 
ATOM     22  C   LIG A   1      -5.869  -2.469 124.596  0.00  0.00    +0.005 C 
ENDBRANCH  18  21
ENDBRANCH  15  18
BRANCH   6  23
ATOM     23  O   LIG A   1      -8.498   2.389 127.409  0.00  0.00    -0.505 OA
ATOM     24  H   LIG A   1      -9.340   2.811 127.171  0.00  0.00    +0.292 HD
ENDBRANCH   6  23
TORSDOF 3
ENDMDL
MODEL 2
REMARK VINA RESULT:      -7.1      1.843      5.036
REMARK  Name = NuBBE_1270
REMARK  7 active torsions:
REMARK  status: ('A' for Active; 'I' for Inactive)
REMARK    1  A    between atoms: C_6  and  O_7
REMARK    2  A    between atoms: C_11  and  C_12
REMARK    3  A    between atoms: C_11  and  C_13
REMARK    4  A    between atoms: C_16  and  C_17
REMARK    5  A    between atoms: C_17  and  C_18
REMARK    6  A    between atoms: C_17  and  C_20
REMARK    7  A    between atoms: C_17  and  C_21
REMARK                            x       y       z     vdW  Elec       q    Type
REMARK                         _______ _______ _______ _____ _____    ______ ____
ROOT
ATOM      1  O   LIG A   1      -8.113   1.234 131.792  0.00  0.00    -0.245 OA
ATOM      2  C   LIG A   1      -8.142   1.301 130.574  0.00  0.00    +0.337 A 
ATOM      3  C   LIG A   1      -8.404   2.581 129.899  0.00  0.00    +0.093 A 
ATOM      4  C   LIG A   1      -8.479   2.677 128.573  0.00  0.00    +0.022 A 
ATOM      5  C   LIG A   1      -8.322   1.494 127.730  0.00  0.00    +0.060 A 
ATOM      6  C   LIG A   1      -8.436   1.554 126.340  0.00  0.00    +0.138 A 
ATOM      7  C   LIG A   1      -8.224   0.416 125.554  0.00  0.00    +0.059 A 
ATOM      8  C   LIG A   1      -8.323   0.492 124.098  0.00  0.00    +0.015 C 
ATOM      9  C   LIG A   1      -8.156  -0.618 123.378  0.00  0.00    +0.020 C 
ATOM     10  C   LIG A   1      -7.867  -1.952 124.001  0.00  0.00    +0.123 C 
ATOM     11  C   LIG A   1      -8.989  -2.939 123.661  0.00  0.00    +0.060 C 
ATOM     12  C   LIG A   1      -6.528  -2.491 123.488  0.00  0.00    +0.060 C 
ATOM     13  O   LIG A   1      -7.761  -1.943 125.429  0.00  0.00    -0.481 OA
ATOM     14  C   LIG A   1      -7.927  -0.814 126.176  0.00  0.00    +0.140 A 
ATOM     15  C   LIG A   1      -7.807  -0.942 127.585  0.00  0.00    +0.047 A 
ATOM     16  C   LIG A   1      -8.017   0.256 128.326  0.00  0.00    +0.150 A 
ATOM     17  O   LIG A   1      -7.930   0.201 129.747  0.00  0.00    -0.422 OA
ENDROOT
BRANCH  15  18
ATOM     18  C   LIG A   1      -7.460  -2.290 128.302  0.00  0.00    +0.015 C 
ATOM     19  C   LIG A   1      -5.922  -2.486 128.332  0.00  0.00    +0.020 C 
ATOM     20  C   LIG A   1      -7.881  -2.409 129.795  0.00  0.00    +0.020 C 
BRANCH  18  21
ATOM     21  C   LIG A   1      -8.208  -3.452 127.629  0.00  0.00    -0.023 C 
ATOM     22  C   LIG A   1      -9.291  -4.099 128.085  0.00  0.00    +0.005 C 
ENDBRANCH  18  21
ENDBRANCH  15  18
BRANCH   6  23
ATOM     23  O   LIG A   1      -8.775   2.728 125.709  0.00  0.00    -0.505 OA
ATOM     24  H   LIG A   1      -8.873   3.414 126.390  0.00  0.00    +0.292 HD
ENDBRANCH   6  23
TORSDOF 3
ENDMDL
MODEL 3
REMARK VINA RESULT:      -7.1      2.942      3.876
REMARK  Name = NuBBE_1270
REMARK  7 active torsions:
REMARK  status: ('A' for Active; 'I' for Inactive)
REMARK    1  A    between atoms: C_6  and  O_7
REMARK    2  A    between atoms: C_11  and  C_12
REMARK    3  A    between atoms: C_11  and  C_13
REMARK    4  A    between atoms: C_16  and  C_17
REMARK    5  A    between atoms: C_17  and  C_18
REMARK    6  A    between atoms: C_17  and  C_20
REMARK    7  A    between atoms: C_17  and  C_21
REMARK                            x       y       z     vdW  Elec       q    Type
REMARK                         _______ _______ _______ _____ _____    ______ ____
ROOT
ATOM      1  O   LIG A   1      -9.929  -1.675 122.832  0.00  0.00    -0.245 OA
ATOM      2  C   LIG A   1      -9.409  -0.644 123.227  0.00  0.00    +0.337 A 
ATOM      3  C   LIG A   1      -9.918   0.667 122.796  0.00  0.00    +0.093 A 
ATOM      4  C   LIG A   1      -9.348   1.807 123.181  0.00  0.00    +0.022 A 
ATOM      5  C   LIG A   1      -8.167   1.796 124.041  0.00  0.00    +0.060 A 
ATOM      6  C   LIG A   1      -7.521   2.972 124.428  0.00  0.00    +0.138 A 
ATOM      7  C   LIG A   1      -6.427   2.935 125.299  0.00  0.00    +0.059 A 
ATOM      8  C   LIG A   1      -5.771   4.172 125.718  0.00  0.00    +0.015 C 
ATOM      9  C   LIG A   1      -4.704   4.101 126.516  0.00  0.00    +0.020 C 
ATOM     10  C   LIG A   1      -4.145   2.799 127.009  0.00  0.00    +0.123 C 
ATOM     11  C   LIG A   1      -2.704   2.632 126.514  0.00  0.00    +0.060 C 
ATOM     12  C   LIG A   1      -4.176   2.761 128.540  0.00  0.00    +0.060 C 
ATOM     13  O   LIG A   1      -4.855   1.633 126.576  0.00  0.00    -0.481 OA
ATOM     14  C   LIG A   1      -5.948   1.692 125.762  0.00  0.00    +0.140 A 
ATOM     15  C   LIG A   1      -6.555   0.461 125.397  0.00  0.00    +0.047 A 
ATOM     16  C   LIG A   1      -7.674   0.569 124.523  0.00  0.00    +0.150 A 
ATOM     17  O   LIG A   1      -8.324  -0.626 124.100  0.00  0.00    -0.422 OA
ENDROOT
BRANCH  15  18
ATOM     18  C   LIG A   1      -6.056  -0.931 125.911  0.00  0.00    +0.015 C 
ATOM     19  C   LIG A   1      -5.373  -0.766 127.293  0.00  0.00    +0.020 C 
ATOM     20  C   LIG A   1      -7.150  -2.009 126.161  0.00  0.00    +0.020 C 
BRANCH  18  21
ATOM     21  C   LIG A   1      -5.149  -1.587 124.858  0.00  0.00    -0.023 C 
ATOM     22  C   LIG A   1      -5.319  -2.774 124.257  0.00  0.00    +0.005 C 
ENDBRANCH  18  21
ENDBRANCH  15  18
BRANCH   6  23
ATOM     23  O   LIG A   1      -7.934   4.194 123.953  0.00  0.00    -0.505 OA
ATOM     24  H   LIG A   1      -8.824   4.365 124.305  0.00  0.00    +0.292 HD
ENDBRANCH   6  23
TORSDOF 3
ENDMDL
MODEL 4
REMARK VINA RESULT:      -6.9      2.038      5.980
REMARK  Name = NuBBE_1270
REMARK  7 active torsions:
REMARK  status: ('A' for Active; 'I' for Inactive)
REMARK    1  A    between atoms: C_6  and  O_7
REMARK    2  A    between atoms: C_11  and  C_12
REMARK    3  A    between atoms: C_11  and  C_13
REMARK    4  A    between atoms: C_16  and  C_17
REMARK    5  A    between atoms: C_17  and  C_18
REMARK    6  A    between atoms: C_17  and  C_20
REMARK    7  A    between atoms: C_17  and  C_21
REMARK                            x       y       z     vdW  Elec       q    Type
REMARK                         _______ _______ _______ _____ _____    ______ ____
ROOT
ATOM      1  O   LIG A   1      -6.570   0.188 131.548  0.00  0.00    -0.245 OA
ATOM      2  C   LIG A   1      -7.002  -0.519 130.651  0.00  0.00    +0.337 A 
ATOM      3  C   LIG A   1      -7.543  -1.855 130.942  0.00  0.00    +0.093 A 
ATOM      4  C   LIG A   1      -7.986  -2.662 129.980  0.00  0.00    +0.022 A 
ATOM      5  C   LIG A   1      -7.930  -2.251 128.579  0.00  0.00    +0.060 A 
ATOM      6  C   LIG A   1      -8.347  -3.090 127.544  0.00  0.00    +0.138 A 
ATOM      7  C   LIG A   1      -8.336  -2.650 126.216  0.00  0.00    +0.059 A 
ATOM      8  C   LIG A   1      -8.797  -3.526 125.141  0.00  0.00    +0.015 C 
ATOM      9  C   LIG A   1      -8.736  -3.092 123.881  0.00  0.00    +0.020 C 
ATOM     10  C   LIG A   1      -8.214  -1.734 123.515  0.00  0.00    +0.123 C 
ATOM     11  C   LIG A   1      -6.985  -1.876 122.611  0.00  0.00    +0.060 C 
ATOM     12  C   LIG A   1      -9.301  -0.932 122.793  0.00  0.00    +0.060 C 
ATOM     13  O   LIG A   1      -7.804  -0.925 124.624  0.00  0.00    -0.481 OA
ATOM     14  C   LIG A   1      -7.864  -1.356 125.916  0.00  0.00    +0.140 A 
ATOM     15  C   LIG A   1      -7.417  -0.459 126.922  0.00  0.00    +0.047 A 
ATOM     16  C   LIG A   1      -7.470  -0.961 128.254  0.00  0.00    +0.150 A 
ATOM     17  O   LIG A   1      -7.021  -0.125 129.316  0.00  0.00    -0.422 OA
ENDROOT
BRANCH  15  18
ATOM     18  C   LIG A   1      -6.905   0.989 126.621  0.00  0.00    +0.015 C 
ATOM     19  C   LIG A   1      -7.824   1.661 125.568  0.00  0.00    +0.020 C 
ATOM     20  C   LIG A   1      -6.911   1.989 127.814  0.00  0.00    +0.020 C 
BRANCH  18  21
ATOM     21  C   LIG A   1      -5.427   0.949 126.201  0.00  0.00    -0.023 C 
ATOM     22  C   LIG A   1      -4.518   1.929 126.317  0.00  0.00    +0.005 C 
ENDBRANCH  18  21
ENDBRANCH  15  18
BRANCH   6  23
ATOM     23  O   LIG A   1      -8.765  -4.375 127.801  0.00  0.00    -0.505 OA
ATOM     24  H   LIG A   1      -9.617  -4.323 128.267  0.00  0.00    +0.292 HD
ENDBRANCH   6  23
TORSDOF 3
ENDMDL
MODEL 5
REMARK VINA RESULT:      -6.9      5.430      7.251
REMARK  Name = NuBBE_1270
REMARK  7 active torsions:
REMARK  status: ('A' for Active; 'I' for Inactive)
REMARK    1  A    between atoms: C_6  and  O_7
REMARK    2  A    between atoms: C_11  and  C_12
REMARK    3  A    between atoms: C_11  and  C_13
REMARK    4  A    between atoms: C_16  and  C_17
REMARK    5  A    between atoms: C_17  and  C_18
REMARK    6  A    between atoms: C_17  and  C_20
REMARK    7  A    between atoms: C_17  and  C_21
REMARK                            x       y       z     vdW  Elec       q    Type
REMARK                         _______ _______ _______ _____ _____    ______ ____
ROOT
ATOM      1  O   LIG A   1     -10.521   7.560 126.713  0.00  0.00    -0.245 OA
ATOM      2  C   LIG A   1     -10.418   7.145 127.856  0.00  0.00    +0.337 A 
ATOM      3  C   LIG A   1     -11.180   7.762 128.951  0.00  0.00    +0.093 A 
ATOM      4  C   LIG A   1     -11.058   7.355 130.213  0.00  0.00    +0.022 A 
ATOM      5  C   LIG A   1     -10.135   6.278 130.563  0.00  0.00    +0.060 A 
ATOM      6  C   LIG A   1      -9.954   5.856 131.881  0.00  0.00    +0.138 A 
ATOM      7  C   LIG A   1      -9.106   4.784 132.180  0.00  0.00    +0.059 A 
ATOM      8  C   LIG A   1      -8.939   4.333 133.560  0.00  0.00    +0.015 C 
ATOM      9  C   LIG A   1      -8.092   3.335 133.818  0.00  0.00    +0.020 C 
ATOM     10  C   LIG A   1      -7.299   2.648 132.747  0.00  0.00    +0.123 C 
ATOM     11  C   LIG A   1      -5.801   2.832 133.011  0.00  0.00    +0.060 C 
ATOM     12  C   LIG A   1      -7.642   1.155 132.717  0.00  0.00    +0.060 C 
ATOM     13  O   LIG A   1      -7.533   3.128 131.418  0.00  0.00    -0.481 OA
ATOM     14  C   LIG A   1      -8.398   4.146 131.141  0.00  0.00    +0.140 A 
ATOM     15  C   LIG A   1      -8.532   4.534 129.782  0.00  0.00    +0.047 A 
ATOM     16  C   LIG A   1      -9.423   5.619 129.542  0.00  0.00    +0.150 A 
ATOM     17  O   LIG A   1      -9.595   6.076 128.205  0.00  0.00    -0.422 OA
ENDROOT
BRANCH  15  18
ATOM     18  C   LIG A   1      -7.773   3.832 128.606  0.00  0.00    +0.015 C 
ATOM     19  C   LIG A   1      -8.263   2.367 128.468  0.00  0.00    +0.020 C 
ATOM     20  C   LIG A   1      -7.988   4.433 127.187  0.00  0.00    +0.020 C 
BRANCH  18  21
ATOM     21  C   LIG A   1      -6.255   3.950 128.814  0.00  0.00    -0.023 C 
ATOM     22  C   LIG A   1      -5.336   2.980 128.692  0.00  0.00    +0.005 C 
ENDBRANCH  18  21
ENDBRANCH  15  18
BRANCH   6  23
ATOM     23  O   LIG A   1     -10.591   6.492 132.921  0.00  0.00    -0.505 OA
ATOM     24  H   LIG A   1     -10.349   6.033 133.743  0.00  0.00    +0.292 HD
ENDBRANCH   6  23
TORSDOF 3
ENDMDL
MODEL 6
REMARK VINA RESULT:      -6.9      1.747      3.698
REMARK  Name = NuBBE_1270
REMARK  7 active torsions:
REMARK  status: ('A' for Active; 'I' for Inactive)
REMARK    1  A    between atoms: C_6  and  O_7
REMARK    2  A    between atoms: C_11  and  C_12
REMARK    3  A    between atoms: C_11  and  C_13
REMARK    4  A    between atoms: C_16  and  C_17
REMARK    5  A    between atoms: C_17  and  C_18
REMARK    6  A    between atoms: C_17  and  C_20
REMARK    7  A    between atoms: C_17  and  C_21
REMARK                            x       y       z     vdW  Elec       q    Type
REMARK                         _______ _______ _______ _____ _____    ______ ____
ROOT
ATOM      1  O   LIG A   1      -8.805   3.138 123.127  0.00  0.00    -0.245 OA
ATOM      2  C   LIG A   1      -8.837   2.014 123.602  0.00  0.00    +0.337 A 
ATOM      3  C   LIG A   1      -9.488   0.911 122.879  0.00  0.00    +0.093 A 
ATOM      4  C   LIG A   1      -9.571  -0.316 123.391  0.00  0.00    +0.022 A 
ATOM      5  C   LIG A   1      -9.029  -0.609 124.715  0.00  0.00    +0.060 A 
ATOM      6  C   LIG A   1      -9.137  -1.874 125.296  0.00  0.00    +0.138 A 
ATOM      7  C   LIG A   1      -8.559  -2.142 126.541  0.00  0.00    +0.059 A 
ATOM      8  C   LIG A   1      -8.656  -3.476 127.133  0.00  0.00    +0.015 C 
ATOM      9  C   LIG A   1      -8.130  -3.689 128.340  0.00  0.00    +0.020 C 
ATOM     10  C   LIG A   1      -7.436  -2.615 129.123  0.00  0.00    +0.123 C 
ATOM     11  C   LIG A   1      -8.175  -2.373 130.443  0.00  0.00    +0.060 C 
ATOM     12  C   LIG A   1      -5.987  -3.026 129.407  0.00  0.00    +0.060 C 
ATOM     13  O   LIG A   1      -7.359  -1.343 128.469  0.00  0.00    -0.481 OA
ATOM     14  C   LIG A   1      -7.890  -1.113 127.235  0.00  0.00    +0.140 A 
ATOM     15  C   LIG A   1      -7.755   0.197 126.702  0.00  0.00    +0.047 A 
ATOM     16  C   LIG A   1      -8.350   0.400 125.424  0.00  0.00    +0.150 A 
ATOM     17  O   LIG A   1      -8.270   1.693 124.834  0.00  0.00    -0.422 OA
ENDROOT
BRANCH  15  18
ATOM     18  C   LIG A   1      -7.002   1.355 127.440  0.00  0.00    +0.015 C 
ATOM     19  C   LIG A   1      -8.030   2.336 128.059  0.00  0.00    +0.020 C 
ATOM     20  C   LIG A   1      -6.108   0.941 128.645  0.00  0.00    +0.020 C 
BRANCH  18  21
ATOM     21  C   LIG A   1      -6.012   2.034 126.482  0.00  0.00    -0.023 C 
ATOM     22  C   LIG A   1      -4.773   1.629 126.165  0.00  0.00    +0.005 C 
ENDBRANCH  18  21
ENDBRANCH  15  18
BRANCH   6  23
ATOM     23  O   LIG A   1      -9.826  -2.884 124.668  0.00  0.00    -0.505 OA
ATOM     24  H   LIG A   1      -9.213  -3.329 124.059  0.00  0.00    +0.292 HD
ENDBRANCH   6  23
TORSDOF 3
ENDMDL
MODEL 7
REMARK VINA RESULT:      -6.9      1.516      5.039
REMARK  Name = NuBBE_1270
REMARK  7 active torsions:
REMARK  status: ('A' for Active; 'I' for Inactive)
REMARK    1  A    between atoms: C_6  and  O_7
REMARK    2  A    between atoms: C_11  and  C_12
REMARK    3  A    between atoms: C_11  and  C_13
REMARK    4  A    between atoms: C_16  and  C_17
REMARK    5  A    between atoms: C_17  and  C_18
REMARK    6  A    between atoms: C_17  and  C_20
REMARK    7  A    between atoms: C_17  and  C_21
REMARK                            x       y       z     vdW  Elec       q    Type
REMARK                         _______ _______ _______ _____ _____    ______ ____
ROOT
ATOM      1  O   LIG A   1      -7.401  -4.019 129.181  0.00  0.00    -0.245 OA
ATOM      2  C   LIG A   1      -7.498  -2.855 128.826  0.00  0.00    +0.337 A 
ATOM      3  C   LIG A   1      -7.670  -1.781 129.815  0.00  0.00    +0.093 A 
ATOM      4  C   LIG A   1      -7.816  -0.507 129.454  0.00  0.00    +0.022 A 
ATOM      5  C   LIG A   1      -7.832  -0.129 128.043  0.00  0.00    +0.060 A 
ATOM      6  C   LIG A   1      -8.025   1.191 127.632  0.00  0.00    +0.138 A 
ATOM      7  C   LIG A   1      -7.978   1.533 126.276  0.00  0.00    +0.059 A 
ATOM      8  C   LIG A   1      -8.158   2.921 125.855  0.00  0.00    +0.015 C 
ATOM      9  C   LIG A   1      -8.149   3.209 124.553  0.00  0.00    +0.020 C 
ATOM     10  C   LIG A   1      -7.960   2.165 123.493  0.00  0.00    +0.123 C 
ATOM     11  C   LIG A   1      -9.196   2.113 122.587  0.00  0.00    +0.060 C 
ATOM     12  C   LIG A   1      -6.717   2.486 122.656  0.00  0.00    +0.060 C 
ATOM     13  O   LIG A   1      -7.766   0.833 123.982  0.00  0.00    -0.481 OA
ATOM     14  C   LIG A   1      -7.771   0.527 125.311  0.00  0.00    +0.140 A 
ATOM     15  C   LIG A   1      -7.578  -0.835 125.665  0.00  0.00    +0.047 A 
ATOM     16  C   LIG A   1      -7.618  -1.114 127.061  0.00  0.00    +0.150 A 
ATOM     17  O   LIG A   1      -7.451  -2.462 127.491  0.00  0.00    -0.422 OA
ENDROOT
BRANCH  15  18
ATOM     18  C   LIG A   1      -7.326  -1.971 124.617  0.00  0.00    +0.015 C 
ATOM     19  C   LIG A   1      -8.250  -3.178 124.921  0.00  0.00    +0.020 C 
ATOM     20  C   LIG A   1      -7.640  -1.625 123.133  0.00  0.00    +0.020 C 
BRANCH  18  21
ATOM     21  C   LIG A   1      -5.834  -2.339 124.586  0.00  0.00    -0.023 C 
ATOM     22  C   LIG A   1      -5.174  -2.994 123.620  0.00  0.00    +0.005 C 
ENDBRANCH  18  21
ENDBRANCH  15  18
BRANCH   6  23
ATOM     23  O   LIG A   1      -8.280   2.186 128.546  0.00  0.00    -0.505 OA
ATOM     24  H   LIG A   1      -8.454   3.005 128.053  0.00  0.00    +0.292 HD
ENDBRANCH   6  23
TORSDOF 3
ENDMDL
MODEL 8
REMARK VINA RESULT:      -6.9      1.732      3.881
REMARK  Name = NuBBE_1270
REMARK  7 active torsions:
REMARK  status: ('A' for Active; 'I' for Inactive)
REMARK    1  A    between atoms: C_6  and  O_7
REMARK    2  A    between atoms: C_11  and  C_12
REMARK    3  A    between atoms: C_11  and  C_13
REMARK    4  A    between atoms: C_16  and  C_17
REMARK    5  A    between atoms: C_17  and  C_18
REMARK    6  A    between atoms: C_17  and  C_20
REMARK    7  A    between atoms: C_17  and  C_21
REMARK                            x       y       z     vdW  Elec       q    Type
REMARK                         _______ _______ _______ _____ _____    ______ ____
ROOT
ATOM      1  O   LIG A   1      -9.211  -1.262 122.406  0.00  0.00    -0.245 OA
ATOM      2  C   LIG A   1      -9.009  -1.699 123.527  0.00  0.00    +0.337 A 
ATOM      3  C   LIG A   1      -9.211  -3.124 123.826  0.00  0.00    +0.093 A 
ATOM      4  C   LIG A   1      -9.035  -3.621 125.049  0.00  0.00    +0.022 A 
ATOM      5  C   LIG A   1      -8.648  -2.752 126.158  0.00  0.00    +0.060 A 
ATOM      6  C   LIG A   1      -8.495  -3.234 127.459  0.00  0.00    +0.138 A 
ATOM      7  C   LIG A   1      -8.068  -2.390 128.490  0.00  0.00    +0.059 A 
ATOM      8  C   LIG A   1      -7.889  -2.908 129.845  0.00  0.00    +0.015 C 
ATOM      9  C   LIG A   1      -7.520  -2.069 130.815  0.00  0.00    +0.020 C 
ATOM     10  C   LIG A   1      -7.278  -0.609 130.576  0.00  0.00    +0.123 C 
ATOM     11  C   LIG A   1      -8.253   0.224 131.415  0.00  0.00    +0.060 C 
ATOM     12  C   LIG A   1      -5.835  -0.249 130.946  0.00  0.00    +0.060 C 
ATOM     13  O   LIG A   1      -7.450  -0.181 129.220  0.00  0.00    -0.481 OA
ATOM     14  C   LIG A   1      -7.824  -1.028 128.219  0.00  0.00    +0.140 A 
ATOM     15  C   LIG A   1      -7.971  -0.475 126.919  0.00  0.00    +0.047 A 
ATOM     16  C   LIG A   1      -8.390  -1.390 125.911  0.00  0.00    +0.150 A 
ATOM     17  O   LIG A   1      -8.576  -0.903 124.586  0.00  0.00    -0.422 OA
ENDROOT
BRANCH  15  18
ATOM     18  C   LIG A   1      -7.689   1.028 126.585  0.00  0.00    +0.015 C 
ATOM     19  C   LIG A   1      -8.861   1.608 125.752  0.00  0.00    +0.020 C 
ATOM     20  C   LIG A   1      -7.576   1.997 127.797  0.00  0.00    +0.020 C 
BRANCH  18  21
ATOM     21  C   LIG A   1      -6.323   1.167 125.894  0.00  0.00    -0.023 C 
ATOM     22  C   LIG A   1      -5.181   0.535 126.206  0.00  0.00    +0.005 C 
ENDBRANCH  18  21
ENDBRANCH  15  18
BRANCH   6  23
ATOM     23  O   LIG A   1      -8.775  -4.545 127.764  0.00  0.00    -0.505 OA
ATOM     24  H   LIG A   1      -9.305  -4.913 127.038  0.00  0.00    +0.292 HD
ENDBRANCH   6  23
TORSDOF 3
ENDMDL
MODEL 9
REMARK VINA RESULT:      -6.8      1.842      2.103
REMARK  Name = NuBBE_1270
REMARK  7 active torsions:
REMARK  status: ('A' for Active; 'I' for Inactive)
REMARK    1  A    between atoms: C_6  and  O_7
REMARK    2  A    between atoms: C_11  and  C_12
REMARK    3  A    between atoms: C_11  and  C_13
REMARK    4  A    between atoms: C_16  and  C_17
REMARK    5  A    between atoms: C_17  and  C_18
REMARK    6  A    between atoms: C_17  and  C_20
REMARK    7  A    between atoms: C_17  and  C_21
REMARK                            x       y       z     vdW  Elec       q    Type
REMARK                         _______ _______ _______ _____ _____    ______ ____
ROOT
ATOM      1  O   LIG A   1      -6.823   2.698 122.028  0.00  0.00    -0.245 OA
ATOM      2  C   LIG A   1      -7.047   2.420 123.195  0.00  0.00    +0.337 A 
ATOM      3  C   LIG A   1      -7.378   3.473 124.167  0.00  0.00    +0.093 A 
ATOM      4  C   LIG A   1      -7.591   3.203 125.455  0.00  0.00    +0.022 A 
ATOM      5  C   LIG A   1      -7.481   1.836 125.957  0.00  0.00    +0.060 A 
ATOM      6  C   LIG A   1      -7.656   1.527 127.307  0.00  0.00    +0.138 A 
ATOM      7  C   LIG A   1      -7.602   0.202 127.752  0.00  0.00    +0.059 A 
ATOM      8  C   LIG A   1      -7.810  -0.117 129.163  0.00  0.00    +0.015 C 
ATOM      9  C   LIG A   1      -7.711  -1.386 129.562  0.00  0.00    +0.020 C 
ATOM     10  C   LIG A   1      -7.396  -2.510 128.621  0.00  0.00    +0.123 C 
ATOM     11  C   LIG A   1      -6.085  -3.185 129.038  0.00  0.00    +0.060 C 
ATOM     12  C   LIG A   1      -8.535  -3.535 128.629  0.00  0.00    +0.060 C 
ATOM     13  O   LIG A   1      -7.230  -2.124 127.252  0.00  0.00    -0.481 OA
ATOM     14  C   LIG A   1      -7.330  -0.831 126.831  0.00  0.00    +0.140 A 
ATOM     15  C   LIG A   1      -7.133  -0.580 125.446  0.00  0.00    +0.047 A 
ATOM     16  C   LIG A   1      -7.219   0.787 125.056  0.00  0.00    +0.150 A 
ATOM     17  O   LIG A   1      -7.014   1.117 123.686  0.00  0.00    -0.422 OA
ENDROOT
BRANCH  15  18
ATOM     18  C   LIG A   1      -6.849  -1.708 124.398  0.00  0.00    +0.015 C 
ATOM     19  C   LIG A   1      -7.991  -2.756 124.434  0.00  0.00    +0.020 C 
ATOM     20  C   LIG A   1      -6.792  -1.268 122.907  0.00  0.00    +0.020 C 
BRANCH  18  21
ATOM     21  C   LIG A   1      -5.458  -2.315 124.641  0.00  0.00    -0.023 C 
ATOM     22  C   LIG A   1      -4.926  -3.398 124.056  0.00  0.00    +0.005 C 
ENDBRANCH  18  21
ENDBRANCH  15  18
BRANCH   6  23
ATOM     23  O   LIG A   1      -7.872   2.517 128.237  0.00  0.00    -0.505 OA
ATOM     24  H   LIG A   1      -7.595   3.360 127.842  0.00  0.00    +0.292 HD
ENDBRANCH   6  23
TORSDOF 3
ENDMDL
