MODEL 1
REMARK VINA RESULT:      -9.2      0.000      0.000
REMARK  Name = NuBBE_1726
REMARK  10 active torsions:
REMARK  status: ('A' for Active; 'I' for Inactive)
REMARK    1  A    between atoms: C_1  and  C_2
REMARK    2  A    between atoms: C_5  and  C_6
REMARK    3  A    between atoms: C_11  and  C_12
REMARK    4  A    between atoms: C_11  and  C_13
REMARK    5  A    between atoms: C_14  and  O_18
REMARK    6  A    between atoms: O_18  and  C_19
REMARK    7  A    between atoms: C_19  and  C_21
REMARK    8  A    between atoms: C_26  and  C_27
REMARK    9  A    between atoms: C_30  and  C_32
REMARK   10  A    between atoms: C_32  and  C_33
REMARK                            x       y       z     vdW  Elec       q    Type
REMARK                         _______ _______ _______ _____ _____    ______ ____
ROOT
ATOM      1  C   LIG A   1      -7.959   3.908 128.878  0.00  0.00    +0.012 C 
ATOM      2  C   LIG A   1      -7.839   3.738 130.426  0.00  0.00    -0.023 C 
ATOM      3  C   LIG A   1      -8.509   2.409 130.932  0.00  0.00    +0.002 C 
ATOM      4  C   LIG A   1      -7.832   1.055 130.448  0.00  0.00    -0.025 C 
ATOM      5  C   LIG A   1      -8.097   0.819 128.943  0.00  0.00    +0.012 C 
ATOM      6  C   LIG A   1      -6.306   1.124 130.829  0.00  0.00    +0.004 C 
ATOM      7  C   LIG A   1      -5.626   2.395 130.278  0.00  0.00    +0.005 C 
ATOM      8  C   LIG A   1      -6.323   3.673 130.755  0.00  0.00    +0.008 C 
ATOM      9  C   LIG A   1      -5.482  -0.201 130.609  0.00  0.00    +0.005 C 
ATOM     10  C   LIG A   1      -5.203  -0.520 129.125  0.00  0.00    +0.015 C 
ATOM     11  C   LIG A   1      -4.090  -0.047 131.285  0.00  0.00    +0.015 C 
ATOM     12  C   LIG A   1      -6.208  -1.388 131.318  0.00  0.00    +0.182 C 
ATOM     13  C   LIG A   1      -7.709  -1.462 131.030  0.00  0.00    +0.046 C 
ATOM     14  C   LIG A   1      -8.440  -0.138 131.247  0.00  0.00    +0.011 C 
ATOM     15  C   LIG A   1     -10.058   2.435 130.860  0.00  0.00    +0.005 C 
ATOM     16  C   LIG A   1     -10.703   3.735 130.377  0.00  0.00    +0.005 C 
ATOM     17  C   LIG A   1     -10.074   5.018 130.925  0.00  0.00    +0.002 C 
ATOM     18  C   LIG A   1      -8.532   4.957 131.191  0.00  0.00    -0.023 C 
ATOM     19  C   LIG A   1      -8.366   4.892 132.742  0.00  0.00    +0.012 C 
ATOM     20  C   LIG A   1      -7.984   6.349 130.762  0.00  0.00    +0.008 C 
ATOM     21  C   LIG A   1      -9.200   7.227 130.512  0.00  0.00    +0.008 C 
ATOM     22  C   LIG A   1     -10.301   6.265 130.039  0.00  0.00    +0.036 C 
ENDROOT
BRANCH  22  23
ATOM     23  C   LIG A   1     -11.720   6.900 130.079  0.00  0.00    +0.114 C 
ATOM     24  C   LIG A   1     -12.383   6.815 131.466  0.00  0.00    +0.056 C 
ATOM     25  O   LIG A   1     -11.597   8.299 129.744  0.00  0.00    -0.458 OA
ATOM     26  C   LIG A   1     -12.684   8.711 129.031  0.00  0.00    +0.308 C 
ATOM     27  O   LIG A   1     -12.914   9.875 128.735  0.00  0.00    -0.251 OA
ATOM     28  C   LIG A   1     -13.563   7.545 128.704  0.00  0.00    +0.124 C 
ATOM     29  C   LIG A   1     -12.655   6.371 128.995  0.00  0.00    +0.059 C 
ENDBRANCH  22  23
BRANCH  12  30
ATOM     30  O   LIG A   1      -5.654  -2.651 130.873  0.00  0.00    -0.461 OA
BRANCH  30  31
ATOM     31  C   LIG A   1      -5.408  -3.608 131.803  0.00  0.00    +0.304 C 
ATOM     32  O   LIG A   1      -5.187  -3.415 132.991  0.00  0.00    -0.251 OA
ATOM     33  C   LIG A   1      -5.507  -4.966 131.176  0.00  0.00    +0.136 C 
ENDBRANCH  30  31
ENDBRANCH  12  30
TORSDOF 3
ENDMDL
MODEL 2
REMARK VINA RESULT:      -9.0      6.302      9.593
REMARK  Name = NuBBE_1726
REMARK  10 active torsions:
REMARK  status: ('A' for Active; 'I' for Inactive)
REMARK    1  A    between atoms: C_1  and  C_2
REMARK    2  A    between atoms: C_5  and  C_6
REMARK    3  A    between atoms: C_11  and  C_12
REMARK    4  A    between atoms: C_11  and  C_13
REMARK    5  A    between atoms: C_14  and  O_18
REMARK    6  A    between atoms: O_18  and  C_19
REMARK    7  A    between atoms: C_19  and  C_21
REMARK    8  A    between atoms: C_26  and  C_27
REMARK    9  A    between atoms: C_30  and  C_32
REMARK   10  A    between atoms: C_32  and  C_33
REMARK                            x       y       z     vdW  Elec       q    Type
REMARK                         _______ _______ _______ _____ _____    ______ ____
ROOT
ATOM      1  C   LIG A   1      -5.089  -1.543 130.673  0.00  0.00    +0.012 C 
ATOM      2  C   LIG A   1      -5.398  -2.956 130.084  0.00  0.00    -0.023 C 
ATOM      3  C   LIG A   1      -6.862  -3.057 129.519  0.00  0.00    +0.002 C 
ATOM      4  C   LIG A   1      -7.189  -2.150 128.256  0.00  0.00    -0.025 C 
ATOM      5  C   LIG A   1      -7.263  -0.659 128.659  0.00  0.00    +0.012 C 
ATOM      6  C   LIG A   1      -6.111  -2.465 127.152  0.00  0.00    +0.004 C 
ATOM      7  C   LIG A   1      -4.671  -2.303 127.683  0.00  0.00    +0.005 C 
ATOM      8  C   LIG A   1      -4.408  -3.181 128.910  0.00  0.00    +0.008 C 
ATOM      9  C   LIG A   1      -6.360  -1.810 125.741  0.00  0.00    +0.005 C 
ATOM     10  C   LIG A   1      -6.101  -0.289 125.706  0.00  0.00    +0.015 C 
ATOM     11  C   LIG A   1      -5.376  -2.438 124.713  0.00  0.00    +0.015 C 
ATOM     12  C   LIG A   1      -7.807  -2.151 125.260  0.00  0.00    +0.182 C 
ATOM     13  C   LIG A   1      -8.887  -1.922 126.318  0.00  0.00    +0.046 C 
ATOM     14  C   LIG A   1      -8.570  -2.568 127.666  0.00  0.00    +0.011 C 
ATOM     15  C   LIG A   1      -7.949  -3.066 130.625  0.00  0.00    +0.005 C 
ATOM     16  C   LIG A   1      -7.458  -3.037 132.073  0.00  0.00    +0.005 C 
ATOM     17  C   LIG A   1      -6.248  -3.925 132.370  0.00  0.00    +0.002 C 
ATOM     18  C   LIG A   1      -5.224  -4.089 131.196  0.00  0.00    -0.023 C 
ATOM     19  C   LIG A   1      -5.431  -5.536 130.646  0.00  0.00    +0.012 C 
ATOM     20  C   LIG A   1      -3.821  -4.087 131.869  0.00  0.00    +0.008 C 
ATOM     21  C   LIG A   1      -4.067  -4.174 133.367  0.00  0.00    +0.008 C 
ATOM     22  C   LIG A   1      -5.418  -3.478 133.595  0.00  0.00    +0.036 C 
ENDROOT
BRANCH  22  23
ATOM     23  C   LIG A   1      -6.025  -3.775 134.995  0.00  0.00    +0.114 C 
ATOM     24  C   LIG A   1      -4.997  -3.666 136.136  0.00  0.00    +0.056 C 
ATOM     25  O   LIG A   1      -7.061  -2.802 135.253  0.00  0.00    -0.458 OA
ATOM     26  C   LIG A   1      -8.079  -3.374 135.959  0.00  0.00    +0.308 C 
ATOM     27  O   LIG A   1      -9.020  -2.754 136.435  0.00  0.00    -0.251 OA
ATOM     28  C   LIG A   1      -7.854  -4.847 136.096  0.00  0.00    +0.124 C 
ATOM     29  C   LIG A   1      -6.778  -5.100 135.064  0.00  0.00    +0.059 C 
ENDBRANCH  22  23
BRANCH  12  30
ATOM     30  O   LIG A   1      -8.169  -1.315 124.133  0.00  0.00    -0.461 OA
BRANCH  30  31
ATOM     31  C   LIG A   1      -9.219  -1.694 123.361  0.00  0.00    +0.304 C 
ATOM     32  O   LIG A   1     -10.015  -0.943 122.815  0.00  0.00    -0.251 OA
ATOM     33  C   LIG A   1      -9.234  -3.186 123.216  0.00  0.00    +0.136 C 
ENDBRANCH  30  31
ENDBRANCH  12  30
TORSDOF 3
ENDMDL
MODEL 3
REMARK VINA RESULT:      -8.9      1.479      9.518
REMARK  Name = NuBBE_1726
REMARK  10 active torsions:
REMARK  status: ('A' for Active; 'I' for Inactive)
REMARK    1  A    between atoms: C_1  and  C_2
REMARK    2  A    between atoms: C_5  and  C_6
REMARK    3  A    between atoms: C_11  and  C_12
REMARK    4  A    between atoms: C_11  and  C_13
REMARK    5  A    between atoms: C_14  and  O_18
REMARK    6  A    between atoms: O_18  and  C_19
REMARK    7  A    between atoms: C_19  and  C_21
REMARK    8  A    between atoms: C_26  and  C_27
REMARK    9  A    between atoms: C_30  and  C_32
REMARK   10  A    between atoms: C_32  and  C_33
REMARK                            x       y       z     vdW  Elec       q    Type
REMARK                         _______ _______ _______ _____ _____    ______ ____
ROOT
ATOM      1  C   LIG A   1      -6.564   1.563 133.292  0.00  0.00    +0.012 C 
ATOM      2  C   LIG A   1      -6.367   1.877 131.775  0.00  0.00    -0.023 C 
ATOM      3  C   LIG A   1      -7.710   1.768 130.966  0.00  0.00    +0.002 C 
ATOM      4  C   LIG A   1      -8.834   2.830 131.327  0.00  0.00    -0.025 C 
ATOM      5  C   LIG A   1      -9.445   2.529 132.716  0.00  0.00    +0.012 C 
ATOM      6  C   LIG A   1      -8.191   4.263 131.205  0.00  0.00    +0.004 C 
ATOM      7  C   LIG A   1      -6.907   4.398 132.051  0.00  0.00    +0.005 C 
ATOM      8  C   LIG A   1      -5.861   3.342 131.680  0.00  0.00    +0.008 C 
ATOM      9  C   LIG A   1      -9.187   5.477 131.338  0.00  0.00    +0.005 C 
ATOM     10  C   LIG A   1      -9.691   5.713 132.777  0.00  0.00    +0.015 C 
ATOM     11  C   LIG A   1      -8.449   6.781 130.921  0.00  0.00    +0.015 C 
ATOM     12  C   LIG A   1     -10.376   5.284 130.344  0.00  0.00    +0.182 C 
ATOM     13  C   LIG A   1     -10.996   3.886 130.378  0.00  0.00    +0.046 C 
ATOM     14  C   LIG A   1      -9.972   2.758 130.264  0.00  0.00    +0.011 C 
ATOM     15  C   LIG A   1      -8.210   0.308 130.798  0.00  0.00    +0.005 C 
ATOM     16  C   LIG A   1      -7.321  -0.794 131.375  0.00  0.00    +0.005 C 
ATOM     17  C   LIG A   1      -5.820  -0.611 131.143  0.00  0.00    +0.002 C 
ATOM     18  C   LIG A   1      -5.315   0.872 131.116  0.00  0.00    -0.023 C 
ATOM     19  C   LIG A   1      -5.005   1.192 129.619  0.00  0.00    +0.012 C 
ATOM     20  C   LIG A   1      -3.938   0.853 131.841  0.00  0.00    +0.008 C 
ATOM     21  C   LIG A   1      -3.579  -0.613 132.034  0.00  0.00    +0.008 C 
ATOM     22  C   LIG A   1      -4.925  -1.343 132.170  0.00  0.00    +0.036 C 
ENDROOT
BRANCH  22  23
ATOM     23  C   LIG A   1      -4.798  -2.884 132.010  0.00  0.00    +0.114 C 
ATOM     24  C   LIG A   1      -5.031  -3.365 130.567  0.00  0.00    +0.056 C 
ATOM     25  O   LIG A   1      -3.455  -3.266 132.381  0.00  0.00    -0.458 OA
ATOM     26  C   LIG A   1      -3.465  -4.483 132.998  0.00  0.00    +0.308 C 
ATOM     27  O   LIG A   1      -2.459  -5.114 133.292  0.00  0.00    -0.251 OA
ATOM     28  C   LIG A   1      -4.871  -4.942 133.221  0.00  0.00    +0.124 C 
ATOM     29  C   LIG A   1      -5.659  -3.671 132.994  0.00  0.00    +0.059 C 
ENDBRANCH  22  23
BRANCH  12  30
ATOM     30  O   LIG A   1     -11.448   6.204 130.663  0.00  0.00    -0.461 OA
BRANCH  30  31
ATOM     31  C   LIG A   1     -12.067   6.849 129.642  0.00  0.00    +0.304 C 
ATOM     32  O   LIG A   1     -12.195   6.429 128.500  0.00  0.00    -0.251 OA
ATOM     33  C   LIG A   1     -12.640   8.146 130.129  0.00  0.00    +0.136 C 
ENDBRANCH  30  31
ENDBRANCH  12  30
TORSDOF 3
ENDMDL
MODEL 4
REMARK VINA RESULT:      -8.7      5.849      7.829
REMARK  Name = NuBBE_1726
REMARK  10 active torsions:
REMARK  status: ('A' for Active; 'I' for Inactive)
REMARK    1  A    between atoms: C_1  and  C_2
REMARK    2  A    between atoms: C_5  and  C_6
REMARK    3  A    between atoms: C_11  and  C_12
REMARK    4  A    between atoms: C_11  and  C_13
REMARK    5  A    between atoms: C_14  and  O_18
REMARK    6  A    between atoms: O_18  and  C_19
REMARK    7  A    between atoms: C_19  and  C_21
REMARK    8  A    between atoms: C_26  and  C_27
REMARK    9  A    between atoms: C_30  and  C_32
REMARK   10  A    between atoms: C_32  and  C_33
REMARK                            x       y       z     vdW  Elec       q    Type
REMARK                         _______ _______ _______ _____ _____    ______ ____
ROOT
ATOM      1  C   LIG A   1      -4.886  -2.898 128.733  0.00  0.00    +0.012 C 
ATOM      2  C   LIG A   1      -5.748  -1.675 129.182  0.00  0.00    -0.023 C 
ATOM      3  C   LIG A   1      -6.926  -2.096 130.133  0.00  0.00    +0.002 C 
ATOM      4  C   LIG A   1      -6.508  -2.680 131.551  0.00  0.00    -0.025 C 
ATOM      5  C   LIG A   1      -5.895  -4.091 131.401  0.00  0.00    +0.012 C 
ATOM      6  C   LIG A   1      -5.550  -1.631 132.232  0.00  0.00    +0.004 C 
ATOM      7  C   LIG A   1      -4.354  -1.264 131.329  0.00  0.00    +0.005 C 
ATOM      8  C   LIG A   1      -4.806  -0.725 129.968  0.00  0.00    +0.008 C 
ATOM      9  C   LIG A   1      -5.165  -1.926 133.732  0.00  0.00    +0.005 C 
ATOM     10  C   LIG A   1      -4.175  -3.096 133.902  0.00  0.00    +0.015 C 
ATOM     11  C   LIG A   1      -4.459  -0.674 134.325  0.00  0.00    +0.015 C 
ATOM     12  C   LIG A   1      -6.466  -2.157 134.565  0.00  0.00    +0.182 C 
ATOM     13  C   LIG A   1      -7.460  -3.121 133.915  0.00  0.00    +0.046 C 
ATOM     14  C   LIG A   1      -7.772  -2.787 132.457  0.00  0.00    +0.011 C 
ATOM     15  C   LIG A   1      -8.056  -2.873 129.407  0.00  0.00    +0.005 C 
ATOM     16  C   LIG A   1      -7.900  -3.064 127.898  0.00  0.00    +0.005 C 
ATOM     17  C   LIG A   1      -7.382  -1.842 127.136  0.00  0.00    +0.002 C 
ATOM     18  C   LIG A   1      -6.381  -0.928 127.920  0.00  0.00    -0.023 C 
ATOM     19  C   LIG A   1      -7.181   0.360 128.298  0.00  0.00    +0.012 C 
ATOM     20  C   LIG A   1      -5.323  -0.478 126.871  0.00  0.00    +0.008 C 
ATOM     21  C   LIG A   1      -5.857  -0.914 125.515  0.00  0.00    +0.008 C 
ATOM     22  C   LIG A   1      -6.688  -2.177 125.796  0.00  0.00    +0.036 C 
ENDROOT
BRANCH  22  23
ATOM     23  C   LIG A   1      -7.612  -2.570 124.609  0.00  0.00    +0.114 C 
ATOM     24  C   LIG A   1      -8.219  -3.977 124.755  0.00  0.00    +0.056 C 
ATOM     25  O   LIG A   1      -8.708  -1.630 124.561  0.00  0.00    -0.458 OA
ATOM     26  C   LIG A   1      -9.069  -1.393 123.267  0.00  0.00    +0.308 C 
ATOM     27  O   LIG A   1     -10.054  -0.749 122.933  0.00  0.00    -0.251 OA
ATOM     28  C   LIG A   1      -8.114  -2.063 122.329  0.00  0.00    +0.124 C 
ATOM     29  C   LIG A   1      -6.956  -2.398 123.243  0.00  0.00    +0.059 C 
ENDBRANCH  22  23
BRANCH  12  30
ATOM     30  O   LIG A   1      -6.138  -2.732 135.854  0.00  0.00    -0.461 OA
BRANCH  30  31
ATOM     31  C   LIG A   1      -6.656  -2.154 136.967  0.00  0.00    +0.304 C 
ATOM     32  O   LIG A   1      -7.839  -2.125 137.277  0.00  0.00    -0.251 OA
ATOM     33  C   LIG A   1      -5.551  -1.596 137.814  0.00  0.00    +0.136 C 
ENDBRANCH  30  31
ENDBRANCH  12  30
TORSDOF 3
ENDMDL
MODEL 5
REMARK VINA RESULT:      -8.7      5.224      7.040
REMARK  Name = NuBBE_1726
REMARK  10 active torsions:
REMARK  status: ('A' for Active; 'I' for Inactive)
REMARK    1  A    between atoms: C_1  and  C_2
REMARK    2  A    between atoms: C_5  and  C_6
REMARK    3  A    between atoms: C_11  and  C_12
REMARK    4  A    between atoms: C_11  and  C_13
REMARK    5  A    between atoms: C_14  and  O_18
REMARK    6  A    between atoms: O_18  and  C_19
REMARK    7  A    between atoms: C_19  and  C_21
REMARK    8  A    between atoms: C_26  and  C_27
REMARK    9  A    between atoms: C_30  and  C_32
REMARK   10  A    between atoms: C_32  and  C_33
REMARK                            x       y       z     vdW  Elec       q    Type
REMARK                         _______ _______ _______ _____ _____    ______ ____
ROOT
ATOM      1  C   LIG A   1      -6.231   4.248 128.200  0.00  0.00    +0.012 C 
ATOM      2  C   LIG A   1      -4.972   3.563 127.581  0.00  0.00    -0.023 C 
ATOM      3  C   LIG A   1      -4.852   2.052 127.998  0.00  0.00    +0.002 C 
ATOM      4  C   LIG A   1      -5.991   1.084 127.461  0.00  0.00    -0.025 C 
ATOM      5  C   LIG A   1      -7.328   1.357 128.187  0.00  0.00    +0.012 C 
ATOM      6  C   LIG A   1      -6.062   1.256 125.897  0.00  0.00    +0.004 C 
ATOM      7  C   LIG A   1      -6.247   2.730 125.482  0.00  0.00    +0.005 C 
ATOM      8  C   LIG A   1      -5.137   3.628 126.038  0.00  0.00    +0.008 C 
ATOM      9  C   LIG A   1      -7.001   0.244 125.136  0.00  0.00    +0.005 C 
ATOM     10  C   LIG A   1      -8.505   0.520 125.339  0.00  0.00    +0.015 C 
ATOM     11  C   LIG A   1      -6.742   0.369 123.608  0.00  0.00    +0.015 C 
ATOM     12  C   LIG A   1      -6.631  -1.216 125.548  0.00  0.00    +0.182 C 
ATOM     13  C   LIG A   1      -6.487  -1.422 127.056  0.00  0.00    +0.046 C 
ATOM     14  C   LIG A   1      -5.579  -0.396 127.731  0.00  0.00    +0.011 C 
ATOM     15  C   LIG A   1      -4.466   1.855 129.488  0.00  0.00    +0.005 C 
ATOM     16  C   LIG A   1      -4.205   3.121 130.305  0.00  0.00    +0.005 C 
ATOM     17  C   LIG A   1      -3.406   4.209 129.585  0.00  0.00    +0.002 C 
ATOM     18  C   LIG A   1      -3.633   4.305 128.038  0.00  0.00    -0.023 C 
ATOM     19  C   LIG A   1      -2.344   3.722 127.378  0.00  0.00    +0.012 C 
ATOM     20  C   LIG A   1      -3.627   5.827 127.713  0.00  0.00    +0.008 C 
ATOM     21  C   LIG A   1      -3.162   6.530 128.979  0.00  0.00    +0.008 C 
ATOM     22  C   LIG A   1      -3.638   5.636 130.135  0.00  0.00    +0.036 C 
ENDROOT
BRANCH  22  23
ATOM     23  C   LIG A   1      -2.955   5.981 131.489  0.00  0.00    +0.114 C 
ATOM     24  C   LIG A   1      -1.740   5.088 131.799  0.00  0.00    +0.056 C 
ATOM     25  O   LIG A   1      -2.484   7.344 131.421  0.00  0.00    -0.458 OA
ATOM     26  C   LIG A   1      -2.604   7.945 132.640  0.00  0.00    +0.308 C 
ATOM     27  O   LIG A   1      -2.155   9.050 132.910  0.00  0.00    -0.251 OA
ATOM     28  C   LIG A   1      -3.322   7.045 133.596  0.00  0.00    +0.124 C 
ATOM     29  C   LIG A   1      -3.924   6.013 132.667  0.00  0.00    +0.059 C 
ENDBRANCH  22  23
BRANCH  12  30
ATOM     30  O   LIG A   1      -7.666  -2.134 125.117  0.00  0.00    -0.461 OA
BRANCH  30  31
ATOM     31  C   LIG A   1      -7.292  -3.351 124.645  0.00  0.00    +0.304 C 
ATOM     32  O   LIG A   1      -7.967  -4.370 124.675  0.00  0.00    -0.251 OA
ATOM     33  C   LIG A   1      -5.934  -3.259 124.015  0.00  0.00    +0.136 C 
ENDBRANCH  30  31
ENDBRANCH  12  30
TORSDOF 3
ENDMDL
MODEL 6
REMARK VINA RESULT:      -8.6      5.140      6.601
REMARK  Name = NuBBE_1726
REMARK  10 active torsions:
REMARK  status: ('A' for Active; 'I' for Inactive)
REMARK    1  A    between atoms: C_1  and  C_2
REMARK    2  A    between atoms: C_5  and  C_6
REMARK    3  A    between atoms: C_11  and  C_12
REMARK    4  A    between atoms: C_11  and  C_13
REMARK    5  A    between atoms: C_14  and  O_18
REMARK    6  A    between atoms: O_18  and  C_19
REMARK    7  A    between atoms: C_19  and  C_21
REMARK    8  A    between atoms: C_26  and  C_27
REMARK    9  A    between atoms: C_30  and  C_32
REMARK   10  A    between atoms: C_32  and  C_33
REMARK                            x       y       z     vdW  Elec       q    Type
REMARK                         _______ _______ _______ _____ _____    ______ ____
ROOT
ATOM      1  C   LIG A   1      -8.213  -0.341 127.874  0.00  0.00    +0.012 C 
ATOM      2  C   LIG A   1      -6.951  -1.072 127.318  0.00  0.00    -0.023 C 
ATOM      3  C   LIG A   1      -5.651  -0.713 128.127  0.00  0.00    +0.002 C 
ATOM      4  C   LIG A   1      -5.612  -1.197 129.640  0.00  0.00    -0.025 C 
ATOM      5  C   LIG A   1      -6.588  -0.367 130.505  0.00  0.00    +0.012 C 
ATOM      6  C   LIG A   1      -5.900  -2.746 129.650  0.00  0.00    +0.004 C 
ATOM      7  C   LIG A   1      -7.210  -3.098 128.914  0.00  0.00    +0.005 C 
ATOM      8  C   LIG A   1      -7.210  -2.595 127.468  0.00  0.00    +0.008 C 
ATOM      9  C   LIG A   1      -5.721  -3.468 131.039  0.00  0.00    +0.005 C 
ATOM     10  C   LIG A   1      -6.837  -3.149 132.055  0.00  0.00    +0.015 C 
ATOM     11  C   LIG A   1      -5.769  -5.007 130.816  0.00  0.00    +0.015 C 
ATOM     12  C   LIG A   1      -4.311  -3.132 131.620  0.00  0.00    +0.182 C 
ATOM     13  C   LIG A   1      -3.955  -1.645 131.575  0.00  0.00    +0.046 C 
ATOM     14  C   LIG A   1      -4.171  -1.006 130.204  0.00  0.00    +0.011 C 
ATOM     15  C   LIG A   1      -5.157   0.738 127.885  0.00  0.00    +0.005 C 
ATOM     16  C   LIG A   1      -5.945   1.574 126.876  0.00  0.00    +0.005 C 
ATOM     17  C   LIG A   1      -6.374   0.833 125.608  0.00  0.00    +0.002 C 
ATOM     18  C   LIG A   1      -6.696  -0.689 125.788  0.00  0.00    -0.023 C 
ATOM     19  C   LIG A   1      -5.498  -1.460 125.146  0.00  0.00    +0.012 C 
ATOM     20  C   LIG A   1      -7.920  -0.964 124.868  0.00  0.00    +0.008 C 
ATOM     21  C   LIG A   1      -8.108   0.287 124.024  0.00  0.00    +0.008 C 
ATOM     22  C   LIG A   1      -7.606   1.444 124.901  0.00  0.00    +0.036 C 
ENDROOT
BRANCH  22  23
ATOM     23  C   LIG A   1      -7.372   2.756 124.100  0.00  0.00    +0.114 C 
ATOM     24  C   LIG A   1      -8.480   3.043 123.071  0.00  0.00    +0.056 C 
ATOM     25  O   LIG A   1      -7.353   3.858 125.033  0.00  0.00    -0.458 OA
ATOM     26  C   LIG A   1      -6.458   4.804 124.628  0.00  0.00    +0.308 C 
ATOM     27  O   LIG A   1      -6.335   5.904 125.148  0.00  0.00    -0.251 OA
ATOM     28  C   LIG A   1      -5.688   4.317 123.441  0.00  0.00    +0.124 C 
ATOM     29  C   LIG A   1      -5.992   2.835 123.452  0.00  0.00    +0.059 C 
ENDBRANCH  22  23
BRANCH  12  30
ATOM     30  O   LIG A   1      -4.240  -3.516 133.015  0.00  0.00    -0.461 OA
BRANCH  30  31
ATOM     31  C   LIG A   1      -3.183  -4.263 133.425  0.00  0.00    +0.304 C 
ATOM     32  O   LIG A   1      -2.046  -3.853 133.615  0.00  0.00    -0.251 OA
ATOM     33  C   LIG A   1      -3.622  -5.674 133.678  0.00  0.00    +0.136 C 
ENDBRANCH  30  31
ENDBRANCH  12  30
TORSDOF 3
ENDMDL
MODEL 7
REMARK VINA RESULT:      -8.4      6.219      9.727
REMARK  Name = NuBBE_1726
REMARK  10 active torsions:
REMARK  status: ('A' for Active; 'I' for Inactive)
REMARK    1  A    between atoms: C_1  and  C_2
REMARK    2  A    between atoms: C_5  and  C_6
REMARK    3  A    between atoms: C_11  and  C_12
REMARK    4  A    between atoms: C_11  and  C_13
REMARK    5  A    between atoms: C_14  and  O_18
REMARK    6  A    between atoms: O_18  and  C_19
REMARK    7  A    between atoms: C_19  and  C_21
REMARK    8  A    between atoms: C_26  and  C_27
REMARK    9  A    between atoms: C_30  and  C_32
REMARK   10  A    between atoms: C_32  and  C_33
REMARK                            x       y       z     vdW  Elec       q    Type
REMARK                         _______ _______ _______ _____ _____    ______ ____
ROOT
ATOM      1  C   LIG A   1      -5.708  -3.990 129.872  0.00  0.00    +0.012 C 
ATOM      2  C   LIG A   1      -6.690  -2.804 130.131  0.00  0.00    -0.023 C 
ATOM      3  C   LIG A   1      -6.299  -1.519 129.313  0.00  0.00    +0.002 C 
ATOM      4  C   LIG A   1      -6.409  -1.635 127.732  0.00  0.00    -0.025 C 
ATOM      5  C   LIG A   1      -5.291  -2.543 127.171  0.00  0.00    +0.012 C 
ATOM      6  C   LIG A   1      -7.867  -2.126 127.392  0.00  0.00    +0.004 C 
ATOM      7  C   LIG A   1      -8.233  -3.424 128.141  0.00  0.00    +0.005 C 
ATOM      8  C   LIG A   1      -8.093  -3.271 129.659  0.00  0.00    +0.008 C 
ATOM      9  C   LIG A   1      -8.252  -2.127 125.864  0.00  0.00    +0.005 C 
ATOM     10  C   LIG A   1      -7.574  -3.250 125.052  0.00  0.00    +0.015 C 
ATOM     11  C   LIG A   1      -9.783  -2.365 125.731  0.00  0.00    +0.015 C 
ATOM     12  C   LIG A   1      -7.951  -0.722 125.252  0.00  0.00    +0.182 C 
ATOM     13  C   LIG A   1      -6.568  -0.171 125.606  0.00  0.00    +0.046 C 
ATOM     14  C   LIG A   1      -6.255  -0.218 127.100  0.00  0.00    +0.011 C 
ATOM     15  C   LIG A   1      -5.015  -0.824 129.836  0.00  0.00    +0.005 C 
ATOM     16  C   LIG A   1      -4.360  -1.433 131.076  0.00  0.00    +0.005 C 
ATOM     17  C   LIG A   1      -5.328  -1.879 132.174  0.00  0.00    +0.002 C 
ATOM     18  C   LIG A   1      -6.716  -2.409 131.679  0.00  0.00    -0.023 C 
ATOM     19  C   LIG A   1      -7.749  -1.288 132.016  0.00  0.00    +0.012 C 
ATOM     20  C   LIG A   1      -7.061  -3.602 132.616  0.00  0.00    +0.008 C 
ATOM     21  C   LIG A   1      -6.035  -3.572 133.738  0.00  0.00    +0.008 C 
ATOM     22  C   LIG A   1      -4.767  -2.975 133.109  0.00  0.00    +0.036 C 
ENDROOT
BRANCH  22  23
ATOM     23  C   LIG A   1      -3.721  -2.522 134.166  0.00  0.00    +0.114 C 
ATOM     24  C   LIG A   1      -3.768  -3.354 135.460  0.00  0.00    +0.056 C 
ATOM     25  O   LIG A   1      -2.404  -2.684 133.596  0.00  0.00    -0.458 OA
ATOM     26  C   LIG A   1      -1.576  -1.691 134.031  0.00  0.00    +0.308 C 
ATOM     27  O   LIG A   1      -0.371  -1.657 133.821  0.00  0.00    -0.251 OA
ATOM     28  C   LIG A   1      -2.345  -0.684 134.826  0.00  0.00    +0.124 C 
ATOM     29  C   LIG A   1      -3.775  -1.028 134.475  0.00  0.00    +0.059 C 
ENDBRANCH  22  23
BRANCH  12  30
ATOM     30  O   LIG A   1      -7.996  -0.787 123.805  0.00  0.00    -0.461 OA
BRANCH  30  31
ATOM     31  C   LIG A   1      -9.043  -0.205 123.167  0.00  0.00    +0.304 C 
ATOM     32  O   LIG A   1      -9.966  -0.794 122.620  0.00  0.00    -0.251 OA
ATOM     33  C   LIG A   1      -8.945   1.286 123.278  0.00  0.00    +0.136 C 
ENDBRANCH  30  31
ENDBRANCH  12  30
TORSDOF 3
ENDMDL
MODEL 8
REMARK VINA RESULT:      -8.4      4.942      8.671
REMARK  Name = NuBBE_1726
REMARK  10 active torsions:
REMARK  status: ('A' for Active; 'I' for Inactive)
REMARK    1  A    between atoms: C_1  and  C_2
REMARK    2  A    between atoms: C_5  and  C_6
REMARK    3  A    between atoms: C_11  and  C_12
REMARK    4  A    between atoms: C_11  and  C_13
REMARK    5  A    between atoms: C_14  and  O_18
REMARK    6  A    between atoms: O_18  and  C_19
REMARK    7  A    between atoms: C_19  and  C_21
REMARK    8  A    between atoms: C_26  and  C_27
REMARK    9  A    between atoms: C_30  and  C_32
REMARK   10  A    between atoms: C_32  and  C_33
REMARK                            x       y       z     vdW  Elec       q    Type
REMARK                         _______ _______ _______ _____ _____    ______ ____
ROOT
ATOM      1  C   LIG A   1      -7.550   1.885 128.105  0.00  0.00    +0.012 C 
ATOM      2  C   LIG A   1      -6.266   1.203 128.675  0.00  0.00    -0.023 C 
ATOM      3  C   LIG A   1      -4.949   1.887 128.154  0.00  0.00    +0.002 C 
ATOM      4  C   LIG A   1      -4.704   3.384 128.624  0.00  0.00    -0.025 C 
ATOM      5  C   LIG A   1      -5.687   4.347 127.920  0.00  0.00    +0.012 C 
ATOM      6  C   LIG A   1      -4.795   3.409 130.197  0.00  0.00    +0.004 C 
ATOM      7  C   LIG A   1      -6.115   2.800 130.712  0.00  0.00    +0.005 C 
ATOM      8  C   LIG A   1      -6.317   1.364 130.218  0.00  0.00    +0.008 C 
ATOM      9  C   LIG A   1      -4.394   4.768 130.887  0.00  0.00    +0.005 C 
ATOM     10  C   LIG A   1      -5.437   5.890 130.705  0.00  0.00    +0.015 C 
ATOM     11  C   LIG A   1      -4.272   4.538 132.420  0.00  0.00    +0.015 C 
ATOM     12  C   LIG A   1      -2.987   5.214 130.376  0.00  0.00    +0.182 C 
ATOM     13  C   LIG A   1      -2.825   5.147 128.856  0.00  0.00    +0.046 C 
ATOM     14  C   LIG A   1      -3.250   3.809 128.253  0.00  0.00    +0.011 C 
ATOM     15  C   LIG A   1      -4.665   1.610 126.654  0.00  0.00    +0.005 C 
ATOM     16  C   LIG A   1      -5.645   0.690 125.926  0.00  0.00    +0.005 C 
ATOM     17  C   LIG A   1      -6.098  -0.538 126.719  0.00  0.00    +0.002 C 
ATOM     18  C   LIG A   1      -6.209  -0.341 128.269  0.00  0.00    -0.023 C 
ATOM     19  C   LIG A   1      -4.993  -1.101 128.887  0.00  0.00    +0.012 C 
ATOM     20  C   LIG A   1      -7.473  -1.140 128.698  0.00  0.00    +0.008 C 
ATOM     21  C   LIG A   1      -7.896  -1.952 127.483  0.00  0.00    +0.008 C 
ATOM     22  C   LIG A   1      -7.459  -1.117 126.269  0.00  0.00    +0.036 C 
ENDROOT
BRANCH  22  23
ATOM     23  C   LIG A   1      -7.469  -1.927 124.942  0.00  0.00    +0.114 C 
ATOM     24  C   LIG A   1      -6.269  -2.882 124.807  0.00  0.00    +0.056 C 
ATOM     25  O   LIG A   1      -8.667  -2.731 124.913  0.00  0.00    -0.458 OA
ATOM     26  C   LIG A   1      -9.140  -2.828 123.637  0.00  0.00    +0.308 C 
ATOM     27  O   LIG A   1     -10.059  -3.560 123.296  0.00  0.00    -0.251 OA
ATOM     28  C   LIG A   1      -8.351  -1.945 122.722  0.00  0.00    +0.124 C 
ATOM     29  C   LIG A   1      -7.614  -1.055 123.698  0.00  0.00    +0.059 C 
ENDBRANCH  22  23
BRANCH  12  30
ATOM     30  O   LIG A   1      -2.735   6.592 130.743  0.00  0.00    -0.461 OA
BRANCH  30  31
ATOM     31  C   LIG A   1      -1.754   6.849 131.646  0.00  0.00    +0.304 C 
ATOM     32  O   LIG A   1      -0.603   6.438 131.591  0.00  0.00    -0.251 OA
ATOM     33  C   LIG A   1      -2.267   7.774 132.708  0.00  0.00    +0.136 C 
ENDBRANCH  30  31
ENDBRANCH  12  30
TORSDOF 3
ENDMDL
MODEL 9
REMARK VINA RESULT:      -8.3      5.358      7.946
REMARK  Name = NuBBE_1726
REMARK  10 active torsions:
REMARK  status: ('A' for Active; 'I' for Inactive)
REMARK    1  A    between atoms: C_1  and  C_2
REMARK    2  A    between atoms: C_5  and  C_6
REMARK    3  A    between atoms: C_11  and  C_12
REMARK    4  A    between atoms: C_11  and  C_13
REMARK    5  A    between atoms: C_14  and  O_18
REMARK    6  A    between atoms: O_18  and  C_19
REMARK    7  A    between atoms: C_19  and  C_21
REMARK    8  A    between atoms: C_26  and  C_27
REMARK    9  A    between atoms: C_30  and  C_32
REMARK   10  A    between atoms: C_32  and  C_33
REMARK                            x       y       z     vdW  Elec       q    Type
REMARK                         _______ _______ _______ _____ _____    ______ ____
ROOT
ATOM      1  C   LIG A   1      -3.702   3.801 130.909  0.00  0.00    +0.012 C 
ATOM      2  C   LIG A   1      -4.863   4.751 130.472  0.00  0.00    -0.023 C 
ATOM      3  C   LIG A   1      -4.675   5.280 129.004  0.00  0.00    +0.002 C 
ATOM      4  C   LIG A   1      -4.755   4.191 127.850  0.00  0.00    -0.025 C 
ATOM      5  C   LIG A   1      -3.503   3.284 127.867  0.00  0.00    +0.012 C 
ATOM      6  C   LIG A   1      -6.114   3.413 128.024  0.00  0.00    +0.004 C 
ATOM      7  C   LIG A   1      -6.274   2.833 129.445  0.00  0.00    +0.005 C 
ATOM      8  C   LIG A   1      -6.171   3.917 130.523  0.00  0.00    +0.008 C 
ATOM      9  C   LIG A   1      -6.484   2.409 126.867  0.00  0.00    +0.005 C 
ATOM     10  C   LIG A   1      -5.630   1.124 126.862  0.00  0.00    +0.015 C 
ATOM     11  C   LIG A   1      -7.957   1.947 127.055  0.00  0.00    +0.015 C 
ATOM     12  C   LIG A   1      -6.406   3.149 125.494  0.00  0.00    +0.182 C 
ATOM     13  C   LIG A   1      -5.131   3.971 125.300  0.00  0.00    +0.046 C 
ATOM     14  C   LIG A   1      -4.824   4.908 126.468  0.00  0.00    +0.011 C 
ATOM     15  C   LIG A   1      -3.521   6.308 128.863  0.00  0.00    +0.005 C 
ATOM     16  C   LIG A   1      -2.786   6.696 130.146  0.00  0.00    +0.005 C 
ATOM     17  C   LIG A   1      -3.678   6.913 131.369  0.00  0.00    +0.002 C 
ATOM     18  C   LIG A   1      -4.961   6.018 131.440  0.00  0.00    -0.023 C 
ATOM     19  C   LIG A   1      -6.162   6.960 131.109  0.00  0.00    +0.012 C 
ATOM     20  C   LIG A   1      -5.119   5.639 132.941  0.00  0.00    +0.008 C 
ATOM     21  C   LIG A   1      -4.118   6.495 133.703  0.00  0.00    +0.008 C 
ATOM     22  C   LIG A   1      -2.956   6.724 132.723  0.00  0.00    +0.036 C 
ENDROOT
BRANCH  22  23
ATOM     23  C   LIG A   1      -2.003   7.868 133.172  0.00  0.00    +0.114 C 
ATOM     24  C   LIG A   1      -0.517   7.549 132.924  0.00  0.00    +0.056 C 
ATOM     25  O   LIG A   1      -2.324   9.049 132.405  0.00  0.00    -0.458 OA
ATOM     26  C   LIG A   1      -2.161  10.166 133.171  0.00  0.00    +0.308 C 
ATOM     27  O   LIG A   1      -2.227  11.310 132.743  0.00  0.00    -0.251 OA
ATOM     28  C   LIG A   1      -1.854   9.787 134.586  0.00  0.00    +0.124 C 
ATOM     29  C   LIG A   1      -2.231   8.322 134.610  0.00  0.00    +0.059 C 
ENDBRANCH  22  23
BRANCH  12  30
ATOM     30  O   LIG A   1      -6.430   2.190 124.408  0.00  0.00    -0.461 OA
BRANCH  30  31
ATOM     31  C   LIG A   1      -6.982   2.569 123.227  0.00  0.00    +0.304 C 
ATOM     32  O   LIG A   1      -6.374   2.785 122.188  0.00  0.00    -0.251 OA
ATOM     33  C   LIG A   1      -8.474   2.628 123.356  0.00  0.00    +0.136 C 
ENDBRANCH  30  31
ENDBRANCH  12  30
TORSDOF 3
ENDMDL
