MODEL 1
REMARK VINA RESULT:      -7.0      0.000      0.000
REMARK  Name = NuBBE_2438
REMARK  4 active torsions:
REMARK  status: ('A' for Active; 'I' for Inactive)
REMARK    1  A    between atoms: C_3  and  O_4
REMARK    2  A    between atoms: O_4  and  C_5
REMARK    3  A    between atoms: C_17  and  C_18
REMARK    4  A    between atoms: C_17  and  C_19
REMARK                            x       y       z     vdW  Elec       q    Type
REMARK                         _______ _______ _______ _____ _____    ______ ____
ROOT
ATOM      1  O   LIG A   1     -11.033   6.197 128.800  0.00  0.00    -0.478 OA
ATOM      2  C   LIG A   1     -10.627   5.812 130.049  0.00  0.00    +0.174 A 
ATOM      3  C   LIG A   1      -9.776   4.701 130.128  0.00  0.00    +0.205 A 
ATOM      4  C   LIG A   1      -9.316   4.276 131.379  0.00  0.00    +0.184 A 
ATOM      5  O   LIG A   1      -8.423   3.185 131.440  0.00  0.00    -0.418 OA
ATOM      6  C   LIG A   1      -7.939   2.701 132.646  0.00  0.00    +0.337 A 
ATOM      7  O   LIG A   1      -7.186   1.737 132.714  0.00  0.00    -0.245 OA
ATOM      8  C   LIG A   1      -8.380   3.398 133.865  0.00  0.00    +0.092 A 
ATOM      9  C   LIG A   1      -9.212   4.442 133.830  0.00  0.00    +0.019 A 
ATOM     10  C   LIG A   1      -9.711   4.922 132.551  0.00  0.00    +0.022 A 
ATOM     11  C   LIG A   1     -10.571   6.020 132.466  0.00  0.00    +0.023 A 
ATOM     12  C   LIG A   1     -11.027   6.470 131.219  0.00  0.00    +0.021 A 
ATOM     13  C   LIG A   1     -11.908   7.625 131.140  0.00  0.00    +0.011 C 
ATOM     14  C   LIG A   1     -12.338   8.003 129.933  0.00  0.00    +0.020 C 
ATOM     15  C   LIG A   1     -11.957   7.292 128.655  0.00  0.00    +0.124 C 
ATOM     16  C   LIG A   1     -13.219   6.715 128.003  0.00  0.00    +0.060 C 
ATOM     17  C   LIG A   1     -11.293   8.290 127.699  0.00  0.00    +0.060 C 
ENDROOT
BRANCH   3  18
ATOM     18  O   LIG A   1      -9.362   4.114 128.959  0.00  0.00    -0.488 OA
ATOM     19  C   LIG A   1      -8.057   4.542 128.574  0.00  0.00    +0.277 C 
ENDBRANCH   3  18
TORSDOF 1
ENDMDL
MODEL 2
REMARK VINA RESULT:      -6.9      7.751      9.036
REMARK  Name = NuBBE_2438
REMARK  4 active torsions:
REMARK  status: ('A' for Active; 'I' for Inactive)
REMARK    1  A    between atoms: C_3  and  O_4
REMARK    2  A    between atoms: O_4  and  C_5
REMARK    3  A    between atoms: C_17  and  C_18
REMARK    4  A    between atoms: C_17  and  C_19
REMARK                            x       y       z     vdW  Elec       q    Type
REMARK                         _______ _______ _______ _____ _____    ______ ____
ROOT
ATOM      1  O   LIG A   1      -7.977  -1.073 124.452  0.00  0.00    -0.478 OA
ATOM      2  C   LIG A   1      -8.042  -1.687 125.674  0.00  0.00    +0.174 A 
ATOM      3  C   LIG A   1      -7.409  -1.041 126.745  0.00  0.00    +0.205 A 
ATOM      4  C   LIG A   1      -7.459  -1.614 128.020  0.00  0.00    +0.184 A 
ATOM      5  O   LIG A   1      -6.858  -0.930 129.099  0.00  0.00    -0.418 OA
ATOM      6  C   LIG A   1      -6.857  -1.447 130.385  0.00  0.00    +0.337 A 
ATOM      7  O   LIG A   1      -6.314  -0.876 131.324  0.00  0.00    -0.245 OA
ATOM      8  C   LIG A   1      -7.540  -2.735 130.583  0.00  0.00    +0.092 A 
ATOM      9  C   LIG A   1      -8.129  -3.393 129.580  0.00  0.00    +0.019 A 
ATOM     10  C   LIG A   1      -8.105  -2.831 128.239  0.00  0.00    +0.022 A 
ATOM     11  C   LIG A   1      -8.722  -3.477 127.164  0.00  0.00    +0.023 A 
ATOM     12  C   LIG A   1      -8.696  -2.907 125.883  0.00  0.00    +0.021 A 
ATOM     13  C   LIG A   1      -9.356  -3.578 124.775  0.00  0.00    +0.011 C 
ATOM     14  C   LIG A   1      -9.284  -3.011 123.567  0.00  0.00    +0.020 C 
ATOM     15  C   LIG A   1      -8.553  -1.715 123.300  0.00  0.00    +0.124 C 
ATOM     16  C   LIG A   1      -7.399  -1.979 122.325  0.00  0.00    +0.060 C 
ATOM     17  C   LIG A   1      -9.527  -0.703 122.686  0.00  0.00    +0.060 C 
ENDROOT
BRANCH   3  18
ATOM     18  O   LIG A   1      -6.823   0.179 126.515  0.00  0.00    -0.488 OA
ATOM     19  C   LIG A   1      -5.426   0.064 126.250  0.00  0.00    +0.277 C 
ENDBRANCH   3  18
TORSDOF 1
ENDMDL
MODEL 3
REMARK VINA RESULT:      -6.9      8.006     10.448
REMARK  Name = NuBBE_2438
REMARK  4 active torsions:
REMARK  status: ('A' for Active; 'I' for Inactive)
REMARK    1  A    between atoms: C_3  and  O_4
REMARK    2  A    between atoms: O_4  and  C_5
REMARK    3  A    between atoms: C_17  and  C_18
REMARK    4  A    between atoms: C_17  and  C_19
REMARK                            x       y       z     vdW  Elec       q    Type
REMARK                         _______ _______ _______ _____ _____    ______ ____
ROOT
ATOM      1  O   LIG A   1      -5.812  -1.928 128.812  0.00  0.00    -0.478 OA
ATOM      2  C   LIG A   1      -6.737  -2.303 127.875  0.00  0.00    +0.174 A 
ATOM      3  C   LIG A   1      -6.478  -1.942 126.545  0.00  0.00    +0.205 A 
ATOM      4  C   LIG A   1      -7.381  -2.316 125.545  0.00  0.00    +0.184 A 
ATOM      5  O   LIG A   1      -7.085  -1.987 124.203  0.00  0.00    -0.418 OA
ATOM      6  C   LIG A   1      -7.941  -2.312 123.163  0.00  0.00    +0.337 A 
ATOM      7  O   LIG A   1      -7.709  -2.008 121.999  0.00  0.00    -0.245 OA
ATOM      8  C   LIG A   1      -9.167  -3.045 123.518  0.00  0.00    +0.092 A 
ATOM      9  C   LIG A   1      -9.461  -3.380 124.778  0.00  0.00    +0.019 A 
ATOM     10  C   LIG A   1      -8.548  -3.016 125.850  0.00  0.00    +0.022 A 
ATOM     11  C   LIG A   1      -8.807  -3.360 127.179  0.00  0.00    +0.023 A 
ATOM     12  C   LIG A   1      -7.903  -3.009 128.192  0.00  0.00    +0.021 A 
ATOM     13  C   LIG A   1      -8.173  -3.387 129.571  0.00  0.00    +0.011 C 
ATOM     14  C   LIG A   1      -7.298  -3.009 130.506  0.00  0.00    +0.020 C 
ATOM     15  C   LIG A   1      -6.049  -2.213 130.203  0.00  0.00    +0.124 C 
ATOM     16  C   LIG A   1      -6.128  -0.859 130.918  0.00  0.00    +0.060 C 
ATOM     17  C   LIG A   1      -4.823  -2.988 130.698  0.00  0.00    +0.060 C 
ENDROOT
BRANCH   3  18
ATOM     18  O   LIG A   1      -5.300  -1.297 126.263  0.00  0.00    -0.488 OA
ATOM     19  C   LIG A   1      -5.455   0.120 126.238  0.00  0.00    +0.277 C 
ENDBRANCH   3  18
TORSDOF 1
ENDMDL
MODEL 4
REMARK VINA RESULT:      -6.3      1.873      1.996
REMARK  Name = NuBBE_2438
REMARK  4 active torsions:
REMARK  status: ('A' for Active; 'I' for Inactive)
REMARK    1  A    between atoms: C_3  and  O_4
REMARK    2  A    between atoms: O_4  and  C_5
REMARK    3  A    between atoms: C_17  and  C_18
REMARK    4  A    between atoms: C_17  and  C_19
REMARK                            x       y       z     vdW  Elec       q    Type
REMARK                         _______ _______ _______ _____ _____    ______ ____
ROOT
ATOM      1  O   LIG A   1      -9.656   6.419 128.364  0.00  0.00    -0.478 OA
ATOM      2  C   LIG A   1      -9.791   5.352 129.211  0.00  0.00    +0.174 A 
ATOM      3  C   LIG A   1      -8.682   4.506 129.351  0.00  0.00    +0.205 A 
ATOM      4  C   LIG A   1      -8.759   3.411 130.217  0.00  0.00    +0.184 A 
ATOM      5  O   LIG A   1      -7.619   2.594 130.385  0.00  0.00    -0.418 OA
ATOM      6  C   LIG A   1      -7.629   1.484 131.215  0.00  0.00    +0.337 A 
ATOM      7  O   LIG A   1      -6.656   0.752 131.347  0.00  0.00    -0.245 OA
ATOM      8  C   LIG A   1      -8.880   1.210 131.941  0.00  0.00    +0.092 A 
ATOM      9  C   LIG A   1      -9.966   1.978 131.810  0.00  0.00    +0.019 A 
ATOM     10  C   LIG A   1      -9.929   3.130 130.924  0.00  0.00    +0.022 A 
ATOM     11  C   LIG A   1     -11.036   3.969 130.768  0.00  0.00    +0.023 A 
ATOM     12  C   LIG A   1     -10.969   5.081 129.917  0.00  0.00    +0.021 A 
ATOM     13  C   LIG A   1     -12.120   5.959 129.776  0.00  0.00    +0.011 C 
ATOM     14  C   LIG A   1     -12.021   6.992 128.935  0.00  0.00    +0.020 C 
ATOM     15  C   LIG A   1     -10.778   7.290 128.128  0.00  0.00    +0.124 C 
ATOM     16  C   LIG A   1     -11.108   7.181 126.635  0.00  0.00    +0.060 C 
ATOM     17  C   LIG A   1     -10.295   8.709 128.448  0.00  0.00    +0.060 C 
ENDROOT
BRANCH   3  18
ATOM     18  O   LIG A   1      -7.527   4.831 128.684  0.00  0.00    -0.488 OA
ATOM     19  C   LIG A   1      -7.387   4.105 127.465  0.00  0.00    +0.277 C 
ENDBRANCH   3  18
TORSDOF 1
ENDMDL
MODEL 5
REMARK VINA RESULT:      -6.2      6.835      9.611
REMARK  Name = NuBBE_2438
REMARK  4 active torsions:
REMARK  status: ('A' for Active; 'I' for Inactive)
REMARK    1  A    between atoms: C_3  and  O_4
REMARK    2  A    between atoms: O_4  and  C_5
REMARK    3  A    between atoms: C_17  and  C_18
REMARK    4  A    between atoms: C_17  and  C_19
REMARK                            x       y       z     vdW  Elec       q    Type
REMARK                         _______ _______ _______ _____ _____    ______ ____
ROOT
ATOM      1  O   LIG A   1      -7.156  -2.595 127.766  0.00  0.00    -0.478 OA
ATOM      2  C   LIG A   1      -7.680  -1.489 127.153  0.00  0.00    +0.174 A 
ATOM      3  C   LIG A   1      -8.239  -1.671 125.881  0.00  0.00    +0.205 A 
ATOM      4  C   LIG A   1      -8.806  -0.579 125.217  0.00  0.00    +0.184 A 
ATOM      5  O   LIG A   1      -9.408  -0.786 123.956  0.00  0.00    -0.418 OA
ATOM      6  C   LIG A   1      -9.975   0.254 123.235  0.00  0.00    +0.337 A 
ATOM      7  O   LIG A   1     -10.475   0.092 122.128  0.00  0.00    -0.245 OA
ATOM      8  C   LIG A   1      -9.946   1.587 123.859  0.00  0.00    +0.092 A 
ATOM      9  C   LIG A   1      -9.395   1.803 125.057  0.00  0.00    +0.019 A 
ATOM     10  C   LIG A   1      -8.799   0.695 125.786  0.00  0.00    +0.022 A 
ATOM     11  C   LIG A   1      -8.227   0.873 127.048  0.00  0.00    +0.023 A 
ATOM     12  C   LIG A   1      -7.671  -0.216 127.735  0.00  0.00    +0.021 A 
ATOM     13  C   LIG A   1      -7.093  -0.024 129.056  0.00  0.00    +0.011 C 
ATOM     14  C   LIG A   1      -6.552  -1.083 129.663  0.00  0.00    +0.020 C 
ATOM     15  C   LIG A   1      -6.510  -2.463 129.046  0.00  0.00    +0.124 C 
ATOM     16  C   LIG A   1      -5.049  -2.881 128.843  0.00  0.00    +0.060 C 
ATOM     17  C   LIG A   1      -7.206  -3.457 129.983  0.00  0.00    +0.060 C 
ENDROOT
BRANCH   3  18
ATOM     18  O   LIG A   1      -8.279  -2.942 125.363  0.00  0.00    -0.488 OA
ATOM     19  C   LIG A   1      -7.186  -3.199 124.484  0.00  0.00    +0.277 C 
ENDBRANCH   3  18
TORSDOF 1
ENDMDL
MODEL 6
REMARK VINA RESULT:      -6.2      4.377      7.907
REMARK  Name = NuBBE_2438
REMARK  4 active torsions:
REMARK  status: ('A' for Active; 'I' for Inactive)
REMARK    1  A    between atoms: C_3  and  O_4
REMARK    2  A    between atoms: O_4  and  C_5
REMARK    3  A    between atoms: C_17  and  C_18
REMARK    4  A    between atoms: C_17  and  C_19
REMARK                            x       y       z     vdW  Elec       q    Type
REMARK                         _______ _______ _______ _____ _____    ______ ____
ROOT
ATOM      1  O   LIG A   1      -5.044   5.214 128.187  0.00  0.00    -0.478 OA
ATOM      2  C   LIG A   1      -5.375   4.207 127.322  0.00  0.00    +0.174 A 
ATOM      3  C   LIG A   1      -6.737   4.031 127.042  0.00  0.00    +0.205 A 
ATOM      4  C   LIG A   1      -7.131   3.029 126.149  0.00  0.00    +0.184 A 
ATOM      5  O   LIG A   1      -8.502   2.892 125.840  0.00  0.00    -0.418 OA
ATOM      6  C   LIG A   1      -8.965   1.912 124.977  0.00  0.00    +0.337 A 
ATOM      7  O   LIG A   1     -10.155   1.766 124.723  0.00  0.00    -0.245 OA
ATOM      8  C   LIG A   1      -7.953   1.031 124.370  0.00  0.00    +0.092 A 
ATOM      9  C   LIG A   1      -6.649   1.151 124.636  0.00  0.00    +0.019 A 
ATOM     10  C   LIG A   1      -6.195   2.183 125.554  0.00  0.00    +0.022 A 
ATOM     11  C   LIG A   1      -4.839   2.355 125.848  0.00  0.00    +0.023 A 
ATOM     12  C   LIG A   1      -4.426   3.367 126.727  0.00  0.00    +0.021 A 
ATOM     13  C   LIG A   1      -3.012   3.548 127.014  0.00  0.00    +0.011 C 
ATOM     14  C   LIG A   1      -2.666   4.508 127.876  0.00  0.00    +0.020 C 
ATOM     15  C   LIG A   1      -3.668   5.407 128.565  0.00  0.00    +0.124 C 
ATOM     16  C   LIG A   1      -3.594   5.177 130.079  0.00  0.00    +0.060 C 
ATOM     17  C   LIG A   1      -3.336   6.870 128.247  0.00  0.00    +0.060 C 
ENDROOT
BRANCH   3  18
ATOM     18  O   LIG A   1      -7.635   4.906 127.600  0.00  0.00    -0.488 OA
ATOM     19  C   LIG A   1      -8.206   4.397 128.804  0.00  0.00    +0.277 C 
ENDBRANCH   3  18
TORSDOF 1
ENDMDL
MODEL 7
REMARK VINA RESULT:      -6.1      7.352      9.636
REMARK  Name = NuBBE_2438
REMARK  4 active torsions:
REMARK  status: ('A' for Active; 'I' for Inactive)
REMARK    1  A    between atoms: C_3  and  O_4
REMARK    2  A    between atoms: O_4  and  C_5
REMARK    3  A    between atoms: C_17  and  C_18
REMARK    4  A    between atoms: C_17  and  C_19
REMARK                            x       y       z     vdW  Elec       q    Type
REMARK                         _______ _______ _______ _____ _____    ______ ____
ROOT
ATOM      1  O   LIG A   1      -5.778  -0.931 130.728  0.00  0.00    -0.478 OA
ATOM      2  C   LIG A   1      -6.562  -1.633 129.851  0.00  0.00    +0.174 A 
ATOM      3  C   LIG A   1      -7.051  -0.936 128.738  0.00  0.00    +0.205 A 
ATOM      4  C   LIG A   1      -7.841  -1.609 127.800  0.00  0.00    +0.184 A 
ATOM      5  O   LIG A   1      -8.290  -0.907 126.659  0.00  0.00    -0.418 OA
ATOM      6  C   LIG A   1      -9.088  -1.507 125.698  0.00  0.00    +0.337 A 
ATOM      7  O   LIG A   1      -9.506  -0.901 124.718  0.00  0.00    -0.245 OA
ATOM      8  C   LIG A   1      -9.427  -2.924 125.906  0.00  0.00    +0.092 A 
ATOM      9  C   LIG A   1      -9.002  -3.612 126.970  0.00  0.00    +0.019 A 
ATOM     10  C   LIG A   1      -8.173  -2.953 127.968  0.00  0.00    +0.022 A 
ATOM     11  C   LIG A   1      -7.694  -3.638 129.087  0.00  0.00    +0.023 A 
ATOM     12  C   LIG A   1      -6.885  -2.983 130.028  0.00  0.00    +0.021 A 
ATOM     13  C   LIG A   1      -6.377  -3.709 131.181  0.00  0.00    +0.011 C 
ATOM     14  C   LIG A   1      -5.632  -3.039 132.064  0.00  0.00    +0.020 C 
ATOM     15  C   LIG A   1      -5.296  -1.572 131.924  0.00  0.00    +0.124 C 
ATOM     16  C   LIG A   1      -5.898  -0.802 133.105  0.00  0.00    +0.060 C 
ATOM     17  C   LIG A   1      -3.772  -1.400 131.918  0.00  0.00    +0.060 C 
ENDROOT
BRANCH   3  18
ATOM     18  O   LIG A   1      -6.671   0.372 128.569  0.00  0.00    -0.488 OA
ATOM     19  C   LIG A   1      -5.509   0.493 127.751  0.00  0.00    +0.277 C 
ENDBRANCH   3  18
TORSDOF 1
ENDMDL
MODEL 8
REMARK VINA RESULT:      -6.1      4.807      7.860
REMARK  Name = NuBBE_2438
REMARK  4 active torsions:
REMARK  status: ('A' for Active; 'I' for Inactive)
REMARK    1  A    between atoms: C_3  and  O_4
REMARK    2  A    between atoms: O_4  and  C_5
REMARK    3  A    between atoms: C_17  and  C_18
REMARK    4  A    between atoms: C_17  and  C_19
REMARK                            x       y       z     vdW  Elec       q    Type
REMARK                         _______ _______ _______ _____ _____    ______ ____
ROOT
ATOM      1  O   LIG A   1      -7.436   2.003 126.033  0.00  0.00    -0.478 OA
ATOM      2  C   LIG A   1      -6.217   2.514 126.388  0.00  0.00    +0.174 A 
ATOM      3  C   LIG A   1      -6.189   3.844 126.831  0.00  0.00    +0.205 A 
ATOM      4  C   LIG A   1      -4.973   4.411 127.223  0.00  0.00    +0.184 A 
ATOM      5  O   LIG A   1      -4.965   5.736 127.712  0.00  0.00    -0.418 OA
ATOM      6  C   LIG A   1      -3.794   6.367 128.104  0.00  0.00    +0.337 A 
ATOM      7  O   LIG A   1      -3.772   7.525 128.503  0.00  0.00    -0.245 OA
ATOM      8  C   LIG A   1      -2.555   5.578 128.014  0.00  0.00    +0.092 A 
ATOM      9  C   LIG A   1      -2.540   4.318 127.570  0.00  0.00    +0.019 A 
ATOM     10  C   LIG A   1      -3.783   3.686 127.156  0.00  0.00    +0.022 A 
ATOM     11  C   LIG A   1      -3.815   2.366 126.700  0.00  0.00    +0.023 A 
ATOM     12  C   LIG A   1      -5.029   1.776 126.320  0.00  0.00    +0.021 A 
ATOM     13  C   LIG A   1      -5.056   0.396 125.863  0.00  0.00    +0.011 C 
ATOM     14  C   LIG A   1      -6.230  -0.117 125.486  0.00  0.00    +0.020 C 
ATOM     15  C   LIG A   1      -7.524   0.664 125.511  0.00  0.00    +0.124 C 
ATOM     16  C   LIG A   1      -8.066   0.788 124.082  0.00  0.00    +0.060 C 
ATOM     17  C   LIG A   1      -8.543  -0.073 126.388  0.00  0.00    +0.060 C 
ENDROOT
BRANCH   3  18
ATOM     18  O   LIG A   1      -7.379   4.520 126.936  0.00  0.00    -0.488 OA
ATOM     19  C   LIG A   1      -7.989   4.341 128.212  0.00  0.00    +0.277 C 
ENDBRANCH   3  18
TORSDOF 1
ENDMDL
MODEL 9
REMARK VINA RESULT:      -6.1      6.854      9.651
REMARK  Name = NuBBE_2438
REMARK  4 active torsions:
REMARK  status: ('A' for Active; 'I' for Inactive)
REMARK    1  A    between atoms: C_3  and  O_4
REMARK    2  A    between atoms: O_4  and  C_5
REMARK    3  A    between atoms: C_17  and  C_18
REMARK    4  A    between atoms: C_17  and  C_19
REMARK                            x       y       z     vdW  Elec       q    Type
REMARK                         _______ _______ _______ _____ _____    ______ ____
ROOT
ATOM      1  O   LIG A   1      -6.217  -1.566 125.315  0.00  0.00    -0.478 OA
ATOM      2  C   LIG A   1      -6.356  -0.254 124.951  0.00  0.00    +0.174 A 
ATOM      3  C   LIG A   1      -5.885   0.710 125.853  0.00  0.00    +0.205 A 
ATOM      4  C   LIG A   1      -5.985   2.065 125.523  0.00  0.00    +0.184 A 
ATOM      5  O   LIG A   1      -5.464   3.024 126.419  0.00  0.00    -0.418 OA
ATOM      6  C   LIG A   1      -5.542   4.385 126.164  0.00  0.00    +0.337 A 
ATOM      7  O   LIG A   1      -5.119   5.227 126.947  0.00  0.00    -0.245 OA
ATOM      8  C   LIG A   1      -6.172   4.786 124.896  0.00  0.00    +0.092 A 
ATOM      9  C   LIG A   1      -6.658   3.897 124.026  0.00  0.00    +0.019 A 
ATOM     10  C   LIG A   1      -6.570   2.476 124.325  0.00  0.00    +0.022 A 
ATOM     11  C   LIG A   1      -7.052   1.511 123.437  0.00  0.00    +0.023 A 
ATOM     12  C   LIG A   1      -6.942   0.147 123.744  0.00  0.00    +0.021 A 
ATOM     13  C   LIG A   1      -7.430  -0.852 122.806  0.00  0.00    +0.011 C 
ATOM     14  C   LIG A   1      -7.329  -2.138 123.151  0.00  0.00    +0.020 C 
ATOM     15  C   LIG A   1      -6.737  -2.603 124.462  0.00  0.00    +0.124 C 
ATOM     16  C   LIG A   1      -7.815  -3.334 125.271  0.00  0.00    +0.060 C 
ATOM     17  C   LIG A   1      -5.568  -3.554 124.180  0.00  0.00    +0.060 C 
ENDROOT
BRANCH   3  18
ATOM     18  O   LIG A   1      -5.268   0.281 127.001  0.00  0.00    -0.488 OA
ATOM     19  C   LIG A   1      -6.165   0.236 128.109  0.00  0.00    +0.277 C 
ENDBRANCH   3  18
TORSDOF 1
ENDMDL
