MODEL 1
REMARK VINA RESULT:      -8.0      0.000      0.000
REMARK  Name = NuBBE_2353
REMARK  3 active torsions:
REMARK  status: ('A' for Active; 'I' for Inactive)
REMARK    1  A    between atoms: C_1  and  C_2
REMARK    2  A    between atoms: C_17  and  C_18
REMARK    3  A    between atoms: C_17  and  C_19
REMARK                            x       y       z     vdW  Elec       q    Type
REMARK                         _______ _______ _______ _____ _____    ______ ____
ROOT
ATOM      1  C   LIG A   1      -6.862  -1.158 127.437  0.00  0.00    +0.012 C 
ATOM      2  C   LIG A   1      -6.748  -1.283 125.885  0.00  0.00    -0.025 C 
ATOM      3  C   LIG A   1      -8.155  -1.770 125.339  0.00  0.00    +0.001 C 
ATOM      4  C   LIG A   1      -9.170  -0.625 125.410  0.00  0.00    +0.005 C 
ATOM      5  C   LIG A   1      -8.817   0.562 124.549  0.00  0.00    +0.008 C 
ATOM      6  C   LIG A   1      -7.410   1.134 124.762  0.00  0.00    -0.022 C 
ATOM      7  C   LIG A   1      -6.912   1.781 123.461  0.00  0.00    +0.037 C 
ATOM      8  C   LIG A   1      -6.221   3.034 123.954  0.00  0.00    -0.073 C 
ATOM      9  C   LIG A   1      -5.999   4.027 123.178  0.00  0.00    +0.008 C 
ATOM     10  C   LIG A   1      -6.286   0.115 125.269  0.00  0.00    +0.002 C 
ATOM     11  C   LIG A   1      -5.112   0.814 126.040  0.00  0.00    +0.005 C 
ATOM     12  C   LIG A   1      -5.384   2.197 126.558  0.00  0.00    +0.008 C 
ATOM     13  C   LIG A   1      -6.150   3.051 125.540  0.00  0.00    +0.015 C 
ATOM     14  C   LIG A   1      -7.516   2.429 125.631  0.00  0.00    +0.015 C 
ATOM     15  C   LIG A   1      -8.126  -2.600 123.994  0.00  0.00    -0.032 C 
ATOM     16  C   LIG A   1      -9.493  -3.215 123.596  0.00  0.00    +0.011 C 
ATOM     17  C   LIG A   1      -7.652  -1.820 122.752  0.00  0.00    +0.011 C 
ATOM     18  C   LIG A   1      -7.180  -3.788 124.274  0.00  0.00    +0.007 C 
ATOM     19  C   LIG A   1      -5.755  -3.313 124.466  0.00  0.00    +0.001 C 
ATOM     20  C   LIG A   1      -5.624  -2.370 125.661  0.00  0.00    +0.007 C 
ENDROOT
TORSDOF 0
ENDMDL
MODEL 2
REMARK VINA RESULT:      -7.7      2.199      4.713
REMARK  Name = NuBBE_2353
REMARK  3 active torsions:
REMARK  status: ('A' for Active; 'I' for Inactive)
REMARK    1  A    between atoms: C_1  and  C_2
REMARK    2  A    between atoms: C_17  and  C_18
REMARK    3  A    between atoms: C_17  and  C_19
REMARK                            x       y       z     vdW  Elec       q    Type
REMARK                         _______ _______ _______ _____ _____    ______ ____
ROOT
ATOM      1  C   LIG A   1      -9.091  -0.455 126.494  0.00  0.00    +0.012 C 
ATOM      2  C   LIG A   1      -8.264  -1.680 125.993  0.00  0.00    -0.025 C 
ATOM      3  C   LIG A   1      -7.411  -1.203 124.744  0.00  0.00    +0.001 C 
ATOM      4  C   LIG A   1      -6.256  -0.311 125.208  0.00  0.00    +0.005 C 
ATOM      5  C   LIG A   1      -5.262  -1.012 126.102  0.00  0.00    +0.008 C 
ATOM      6  C   LIG A   1      -5.863  -1.720 127.323  0.00  0.00    -0.022 C 
ATOM      7  C   LIG A   1      -4.977  -2.912 127.716  0.00  0.00    +0.037 C 
ATOM      8  C   LIG A   1      -4.974  -2.842 129.227  0.00  0.00    -0.073 C 
ATOM      9  C   LIG A   1      -4.068  -3.419 129.924  0.00  0.00    +0.008 C 
ATOM     10  C   LIG A   1      -7.367  -2.245 127.186  0.00  0.00    +0.002 C 
ATOM     11  C   LIG A   1      -8.112  -2.373 128.560  0.00  0.00    +0.005 C 
ATOM     12  C   LIG A   1      -7.515  -1.621 129.715  0.00  0.00    +0.008 C 
ATOM     13  C   LIG A   1      -5.984  -1.732 129.742  0.00  0.00    +0.015 C 
ATOM     14  C   LIG A   1      -5.623  -0.835 128.590  0.00  0.00    +0.015 C 
ATOM     15  C   LIG A   1      -7.055  -2.317 123.681  0.00  0.00    -0.032 C 
ATOM     16  C   LIG A   1      -6.387  -1.777 122.390  0.00  0.00    +0.011 C 
ATOM     17  C   LIG A   1      -6.119  -3.433 124.189  0.00  0.00    +0.011 C 
ATOM     18  C   LIG A   1      -8.414  -2.913 123.251  0.00  0.00    +0.007 C 
ATOM     19  C   LIG A   1      -9.065  -3.663 124.394  0.00  0.00    +0.001 C 
ATOM     20  C   LIG A   1      -9.354  -2.749 125.584  0.00  0.00    +0.007 C 
ENDROOT
TORSDOF 0
ENDMDL
MODEL 3
REMARK VINA RESULT:      -7.4      2.387      4.892
REMARK  Name = NuBBE_2353
REMARK  3 active torsions:
REMARK  status: ('A' for Active; 'I' for Inactive)
REMARK    1  A    between atoms: C_1  and  C_2
REMARK    2  A    between atoms: C_17  and  C_18
REMARK    3  A    between atoms: C_17  and  C_19
REMARK                            x       y       z     vdW  Elec       q    Type
REMARK                         _______ _______ _______ _____ _____    ______ ____
ROOT
ATOM      1  C   LIG A   1      -4.992  -0.336 126.717  0.00  0.00    +0.012 C 
ATOM      2  C   LIG A   1      -5.948  -1.417 127.313  0.00  0.00    -0.025 C 
ATOM      3  C   LIG A   1      -6.899  -0.693 128.355  0.00  0.00    +0.001 C 
ATOM      4  C   LIG A   1      -7.935   0.159 127.616  0.00  0.00    +0.005 C 
ATOM      5  C   LIG A   1      -8.869  -0.637 126.738  0.00  0.00    +0.008 C 
ATOM      6  C   LIG A   1      -8.187  -1.571 125.731  0.00  0.00    -0.022 C 
ATOM      7  C   LIG A   1      -9.101  -2.771 125.438  0.00  0.00    +0.037 C 
ATOM      8  C   LIG A   1      -8.935  -2.962 123.946  0.00  0.00    -0.073 C 
ATOM      9  C   LIG A   1      -9.796  -3.606 123.252  0.00  0.00    +0.008 C 
ATOM     10  C   LIG A   1      -6.745  -2.135 126.131  0.00  0.00    +0.002 C 
ATOM     11  C   LIG A   1      -5.865  -2.533 124.896  0.00  0.00    +0.005 C 
ATOM     12  C   LIG A   1      -6.281  -1.963 123.569  0.00  0.00    +0.008 C 
ATOM     13  C   LIG A   1      -7.803  -2.005 123.379  0.00  0.00    +0.015 C 
ATOM     14  C   LIG A   1      -8.228  -0.908 124.316  0.00  0.00    +0.015 C 
ATOM     15  C   LIG A   1      -7.442  -1.590 129.537  0.00  0.00    -0.032 C 
ATOM     16  C   LIG A   1      -8.210  -0.804 130.632  0.00  0.00    +0.011 C 
ATOM     17  C   LIG A   1      -8.389  -2.731 129.113  0.00  0.00    +0.011 C 
ATOM     18  C   LIG A   1      -6.182  -2.165 130.219  0.00  0.00    +0.007 C 
ATOM     19  C   LIG A   1      -5.461  -3.130 129.300  0.00  0.00    +0.001 C 
ATOM     20  C   LIG A   1      -4.983  -2.449 128.019  0.00  0.00    +0.007 C 
ENDROOT
TORSDOF 0
ENDMDL
MODEL 4
REMARK VINA RESULT:      -7.4      0.965      5.380
REMARK  Name = NuBBE_2353
REMARK  3 active torsions:
REMARK  status: ('A' for Active; 'I' for Inactive)
REMARK    1  A    between atoms: C_1  and  C_2
REMARK    2  A    between atoms: C_17  and  C_18
REMARK    3  A    between atoms: C_17  and  C_19
REMARK                            x       y       z     vdW  Elec       q    Type
REMARK                         _______ _______ _______ _____ _____    ______ ____
ROOT
ATOM      1  C   LIG A   1      -9.457   0.656 124.930  0.00  0.00    +0.012 C 
ATOM      2  C   LIG A   1      -7.908   0.844 124.972  0.00  0.00    -0.025 C 
ATOM      3  C   LIG A   1      -7.507   1.189 126.467  0.00  0.00    +0.001 C 
ATOM      4  C   LIG A   1      -7.617  -0.064 127.342  0.00  0.00    +0.005 C 
ATOM      5  C   LIG A   1      -6.676  -1.174 126.941  0.00  0.00    +0.008 C 
ATOM      6  C   LIG A   1      -6.742  -1.592 125.467  0.00  0.00    -0.022 C 
ATOM      7  C   LIG A   1      -5.375  -2.135 125.022  0.00  0.00    +0.037 C 
ATOM      8  C   LIG A   1      -5.752  -3.318 124.158  0.00  0.00    -0.073 C 
ATOM      9  C   LIG A   1      -4.916  -4.254 123.901  0.00  0.00    +0.008 C 
ATOM     10  C   LIG A   1      -7.193  -0.472 124.419  0.00  0.00    +0.002 C 
ATOM     11  C   LIG A   1      -7.828  -1.060 123.111  0.00  0.00    +0.005 C 
ATOM     12  C   LIG A   1      -8.307  -2.482 123.183  0.00  0.00    +0.008 C 
ATOM     13  C   LIG A   1      -7.323  -3.381 123.941  0.00  0.00    +0.015 C 
ATOM     14  C   LIG A   1      -7.559  -2.920 125.353  0.00  0.00    +0.015 C 
ATOM     15  C   LIG A   1      -6.203   2.062 126.652  0.00  0.00    -0.032 C 
ATOM     16  C   LIG A   1      -5.952   2.533 128.108  0.00  0.00    +0.011 C 
ATOM     17  C   LIG A   1      -4.891   1.382 126.211  0.00  0.00    +0.011 C 
ATOM     18  C   LIG A   1      -6.451   3.338 125.819  0.00  0.00    +0.007 C 
ATOM     19  C   LIG A   1      -6.498   3.020 124.339  0.00  0.00    +0.001 C 
ATOM     20  C   LIG A   1      -7.634   2.058 123.998  0.00  0.00    +0.007 C 
ENDROOT
TORSDOF 0
ENDMDL
MODEL 5
REMARK VINA RESULT:      -7.2      1.284      5.242
REMARK  Name = NuBBE_2353
REMARK  3 active torsions:
REMARK  status: ('A' for Active; 'I' for Inactive)
REMARK    1  A    between atoms: C_1  and  C_2
REMARK    2  A    between atoms: C_17  and  C_18
REMARK    3  A    between atoms: C_17  and  C_19
REMARK                            x       y       z     vdW  Elec       q    Type
REMARK                         _______ _______ _______ _____ _____    ______ ____
ROOT
ATOM      1  C   LIG A   1      -9.931   0.134 125.671  0.00  0.00    +0.012 C 
ATOM      2  C   LIG A   1      -8.922   0.421 124.515  0.00  0.00    -0.025 C 
ATOM      3  C   LIG A   1      -7.994   1.622 124.976  0.00  0.00    +0.001 C 
ATOM      4  C   LIG A   1      -7.003   1.140 126.040  0.00  0.00    +0.005 C 
ATOM      5  C   LIG A   1      -6.044   0.083 125.550  0.00  0.00    +0.008 C 
ATOM      6  C   LIG A   1      -6.694  -1.139 124.889  0.00  0.00    -0.022 C 
ATOM      7  C   LIG A   1      -5.731  -1.740 123.854  0.00  0.00    +0.037 C 
ATOM      8  C   LIG A   1      -5.904  -3.229 124.062  0.00  0.00    -0.073 C 
ATOM      9  C   LIG A   1      -5.022  -4.068 123.666  0.00  0.00    +0.008 C 
ATOM     10  C   LIG A   1      -8.106  -0.908 124.175  0.00  0.00    +0.002 C 
ATOM     11  C   LIG A   1      -8.980  -2.207 124.083  0.00  0.00    +0.005 C 
ATOM     12  C   LIG A   1      -8.602  -3.331 125.005  0.00  0.00    +0.008 C 
ATOM     13  C   LIG A   1      -7.082  -3.522 125.084  0.00  0.00    +0.015 C 
ATOM     14  C   LIG A   1      -6.697  -2.325 125.908  0.00  0.00    +0.015 C 
ATOM     15  C   LIG A   1      -7.401   2.522 123.820  0.00  0.00    -0.032 C 
ATOM     16  C   LIG A   1      -6.658   3.789 124.318  0.00  0.00    +0.011 C 
ATOM     17  C   LIG A   1      -6.409   1.810 122.878  0.00  0.00    +0.011 C 
ATOM     18  C   LIG A   1      -8.628   3.021 123.027  0.00  0.00    +0.007 C 
ATOM     19  C   LIG A   1      -9.315   1.877 122.312  0.00  0.00    +0.001 C 
ATOM     20  C   LIG A   1      -9.835   0.823 123.289  0.00  0.00    +0.007 C 
ENDROOT
TORSDOF 0
ENDMDL
MODEL 6
REMARK VINA RESULT:      -7.2      1.941      3.286
REMARK  Name = NuBBE_2353
REMARK  3 active torsions:
REMARK  status: ('A' for Active; 'I' for Inactive)
REMARK    1  A    between atoms: C_1  and  C_2
REMARK    2  A    between atoms: C_17  and  C_18
REMARK    3  A    between atoms: C_17  and  C_19
REMARK                            x       y       z     vdW  Elec       q    Type
REMARK                         _______ _______ _______ _____ _____    ______ ____
ROOT
ATOM      1  C   LIG A   1      -9.552  -2.436 126.040  0.00  0.00    +0.012 C 
ATOM      2  C   LIG A   1      -8.156  -1.778 125.809  0.00  0.00    -0.025 C 
ATOM      3  C   LIG A   1      -7.291  -2.783 124.939  0.00  0.00    +0.001 C 
ATOM      4  C   LIG A   1      -7.793  -2.788 123.491  0.00  0.00    +0.005 C 
ATOM      5  C   LIG A   1      -7.654  -1.459 122.790  0.00  0.00    +0.008 C 
ATOM      6  C   LIG A   1      -8.270  -0.262 123.523  0.00  0.00    -0.022 C 
ATOM      7  C   LIG A   1      -7.505   1.019 123.154  0.00  0.00    +0.037 C 
ATOM      8  C   LIG A   1      -8.613   2.038 123.004  0.00  0.00    -0.073 C 
ATOM      9  C   LIG A   1      -8.441   3.124 122.348  0.00  0.00    +0.008 C 
ATOM     10  C   LIG A   1      -8.344  -0.351 125.117  0.00  0.00    +0.002 C 
ATOM     11  C   LIG A   1      -9.480   0.532 125.741  0.00  0.00    +0.005 C 
ATOM     12  C   LIG A   1     -10.567   0.979 124.805  0.00  0.00    +0.008 C 
ATOM     13  C   LIG A   1     -10.008   1.424 123.447  0.00  0.00    +0.015 C 
ATOM     14  C   LIG A   1      -9.637   0.093 122.853  0.00  0.00    +0.015 C 
ATOM     15  C   LIG A   1      -5.726  -2.702 125.139  0.00  0.00    -0.032 C 
ATOM     16  C   LIG A   1      -4.933  -3.822 124.415  0.00  0.00    +0.011 C 
ATOM     17  C   LIG A   1      -5.073  -1.381 124.685  0.00  0.00    +0.011 C 
ATOM     18  C   LIG A   1      -5.501  -2.918 126.651  0.00  0.00    +0.007 C 
ATOM     19  C   LIG A   1      -6.053  -1.759 127.453  0.00  0.00    +0.001 C 
ATOM     20  C   LIG A   1      -7.561  -1.600 127.262  0.00  0.00    +0.007 C 
ENDROOT
TORSDOF 0
ENDMDL
MODEL 7
REMARK VINA RESULT:      -7.1      1.770      4.268
REMARK  Name = NuBBE_2353
REMARK  3 active torsions:
REMARK  status: ('A' for Active; 'I' for Inactive)
REMARK    1  A    between atoms: C_1  and  C_2
REMARK    2  A    between atoms: C_17  and  C_18
REMARK    3  A    between atoms: C_17  and  C_19
REMARK                            x       y       z     vdW  Elec       q    Type
REMARK                         _______ _______ _______ _____ _____    ______ ____
ROOT
ATOM      1  C   LIG A   1      -6.946   1.509 124.579  0.00  0.00    +0.012 C 
ATOM      2  C   LIG A   1      -7.438   0.058 124.879  0.00  0.00    -0.025 C 
ATOM      3  C   LIG A   1      -6.265  -0.936 124.487  0.00  0.00    +0.001 C 
ATOM      4  C   LIG A   1      -5.138  -0.850 125.520  0.00  0.00    +0.005 C 
ATOM      5  C   LIG A   1      -5.546  -1.272 126.910  0.00  0.00    +0.008 C 
ATOM      6  C   LIG A   1      -6.787  -0.568 127.472  0.00  0.00    -0.022 C 
ATOM      7  C   LIG A   1      -7.502  -1.496 128.467  0.00  0.00    +0.037 C 
ATOM      8  C   LIG A   1      -7.908  -0.549 129.574  0.00  0.00    -0.073 C 
ATOM      9  C   LIG A   1      -8.191  -0.973 130.749  0.00  0.00    +0.008 C 
ATOM     10  C   LIG A   1      -7.869  -0.055 126.412  0.00  0.00    +0.002 C 
ATOM     11  C   LIG A   1      -8.739   1.140 126.936  0.00  0.00    +0.005 C 
ATOM     12  C   LIG A   1      -8.195   1.894 128.116  0.00  0.00    +0.008 C 
ATOM     13  C   LIG A   1      -7.599   0.954 129.172  0.00  0.00    +0.015 C 
ATOM     14  C   LIG A   1      -6.331   0.534 128.482  0.00  0.00    +0.015 C 
ATOM     15  C   LIG A   1      -6.706  -2.388 124.048  0.00  0.00    -0.032 C 
ATOM     16  C   LIG A   1      -5.552  -3.264 123.495  0.00  0.00    +0.011 C 
ATOM     17  C   LIG A   1      -7.368  -3.235 125.154  0.00  0.00    +0.011 C 
ATOM     18  C   LIG A   1      -7.689  -2.175 122.876  0.00  0.00    +0.007 C 
ATOM     19  C   LIG A   1      -8.964  -1.511 123.352  0.00  0.00    +0.001 C 
ATOM     20  C   LIG A   1      -8.700  -0.129 123.947  0.00  0.00    +0.007 C 
ENDROOT
TORSDOF 0
ENDMDL
MODEL 8
REMARK VINA RESULT:      -7.1      1.745      4.113
REMARK  Name = NuBBE_2353
REMARK  3 active torsions:
REMARK  status: ('A' for Active; 'I' for Inactive)
REMARK    1  A    between atoms: C_1  and  C_2
REMARK    2  A    between atoms: C_17  and  C_18
REMARK    3  A    between atoms: C_17  and  C_19
REMARK                            x       y       z     vdW  Elec       q    Type
REMARK                         _______ _______ _______ _____ _____    ______ ____
ROOT
ATOM      1  C   LIG A   1      -7.342  -3.704 124.806  0.00  0.00    +0.012 C 
ATOM      2  C   LIG A   1      -7.699  -2.805 126.031  0.00  0.00    -0.025 C 
ATOM      3  C   LIG A   1      -6.395  -2.672 126.924  0.00  0.00    +0.001 C 
ATOM      4  C   LIG A   1      -5.382  -1.750 126.240  0.00  0.00    +0.005 C 
ATOM      5  C   LIG A   1      -5.867  -0.332 126.062  0.00  0.00    +0.008 C 
ATOM      6  C   LIG A   1      -7.223  -0.185 125.361  0.00  0.00    -0.022 C 
ATOM      7  C   LIG A   1      -7.921   1.095 125.847  0.00  0.00    +0.037 C 
ATOM      8  C   LIG A   1      -8.526   1.649 124.576  0.00  0.00    -0.073 C 
ATOM      9  C   LIG A   1      -8.867   2.879 124.476  0.00  0.00    +0.008 C 
ATOM     10  C   LIG A   1      -8.253  -1.398 125.518  0.00  0.00    +0.002 C 
ATOM     11  C   LIG A   1      -9.291  -1.492 124.346  0.00  0.00    +0.005 C 
ATOM     12  C   LIG A   1      -8.942  -0.756 123.085  0.00  0.00    +0.008 C 
ATOM     13  C   LIG A   1      -8.346   0.628 123.374  0.00  0.00    +0.015 C 
ATOM     14  C   LIG A   1      -6.982   0.241 123.876  0.00  0.00    +0.015 C 
ATOM     15  C   LIG A   1      -6.635  -2.431 128.467  0.00  0.00    -0.032 C 
ATOM     16  C   LIG A   1      -5.347  -2.495 129.329  0.00  0.00    +0.011 C 
ATOM     17  C   LIG A   1      -7.299  -1.086 128.826  0.00  0.00    +0.011 C 
ATOM     18  C   LIG A   1      -7.524  -3.607 128.927  0.00  0.00    +0.007 C 
ATOM     19  C   LIG A   1      -8.902  -3.521 128.303  0.00  0.00    +0.001 C 
ATOM     20  C   LIG A   1      -8.844  -3.597 126.779  0.00  0.00    +0.007 C 
ENDROOT
TORSDOF 0
ENDMDL
MODEL 9
REMARK VINA RESULT:      -7.0      2.071      5.465
REMARK  Name = NuBBE_2353
REMARK  3 active torsions:
REMARK  status: ('A' for Active; 'I' for Inactive)
REMARK    1  A    between atoms: C_1  and  C_2
REMARK    2  A    between atoms: C_17  and  C_18
REMARK    3  A    between atoms: C_17  and  C_19
REMARK                            x       y       z     vdW  Elec       q    Type
REMARK                         _______ _______ _______ _____ _____    ______ ____
ROOT
ATOM      1  C   LIG A   1      -9.817  -1.145 125.795  0.00  0.00    +0.012 C 
ATOM      2  C   LIG A   1      -8.258  -1.098 125.725  0.00  0.00    -0.025 C 
ATOM      3  C   LIG A   1      -7.813   0.407 125.955  0.00  0.00    +0.001 C 
ATOM      4  C   LIG A   1      -7.996   0.789 127.427  0.00  0.00    +0.005 C 
ATOM      5  C   LIG A   1      -7.140  -0.010 128.378  0.00  0.00    +0.008 C 
ATOM      6  C   LIG A   1      -7.256  -1.534 128.244  0.00  0.00    -0.022 C 
ATOM      7  C   LIG A   1      -5.937  -2.192 128.675  0.00  0.00    +0.037 C 
ATOM      8  C   LIG A   1      -6.406  -3.402 129.453  0.00  0.00    -0.073 C 
ATOM      9  C   LIG A   1      -5.641  -4.002 130.286  0.00  0.00    +0.008 C 
ATOM     10  C   LIG A   1      -7.644  -2.104 126.802  0.00  0.00    +0.002 C 
ATOM     11  C   LIG A   1      -8.337  -3.510 126.852  0.00  0.00    +0.005 C 
ATOM     12  C   LIG A   1      -8.912  -3.924 128.176  0.00  0.00    +0.008 C 
ATOM     13  C   LIG A   1      -7.980  -3.568 129.343  0.00  0.00    +0.015 C 
ATOM     14  C   LIG A   1      -8.164  -2.076 129.395  0.00  0.00    +0.015 C 
ATOM     15  C   LIG A   1      -6.450   0.836 125.282  0.00  0.00    -0.032 C 
ATOM     16  C   LIG A   1      -6.146   2.354 125.371  0.00  0.00    +0.011 C 
ATOM     17  C   LIG A   1      -5.194   0.136 125.839  0.00  0.00    +0.011 C 
ATOM     18  C   LIG A   1      -6.621   0.514 123.782  0.00  0.00    +0.007 C 
ATOM     19  C   LIG A   1      -6.711  -0.980 123.554  0.00  0.00    +0.001 C 
ATOM     20  C   LIG A   1      -7.916  -1.594 124.265  0.00  0.00    +0.007 C 
ENDROOT
TORSDOF 0
ENDMDL
