MODEL 1
REMARK VINA RESULT:      -6.9      0.000      0.000
REMARK  Name = NuBBE_2185
REMARK  13 active torsions:
REMARK  status: ('A' for Active; 'I' for Inactive)
REMARK    1  A    between atoms: C_1  and  C_3
REMARK    2  A    between atoms: C_1  and  C_14
REMARK    3  A    between atoms: C_1  and  C_15
REMARK    4  A    between atoms: C_3  and  C_4
REMARK    5  A    between atoms: C_6  and  O_7
REMARK    6  A    between atoms: O_7  and  C_8
REMARK    7  A    between atoms: C_9  and  O_12
REMARK    8  A    between atoms: O_12  and  C_13
REMARK    9  A    between atoms: C_16  and  O_17
REMARK   10  A    between atoms: O_17  and  C_18
REMARK   11  A    between atoms: C_20  and  O_26
REMARK   12  A    between atoms: C_21  and  C_23
REMARK   13  A    between atoms: C_23  and  C_24
REMARK                            x       y       z     vdW  Elec       q    Type
REMARK                         _______ _______ _______ _____ _____    ______ ____
ROOT
ATOM      1  C   LIG A   1      -7.875  -2.930 127.736  0.00  0.00    +0.024 C 
ATOM      2  C   LIG A   1      -9.017  -3.982 127.756  0.00  0.00    +0.013 C 
ENDROOT
BRANCH   1   3
ATOM      3  C   LIG A   1      -7.701  -1.944 126.518  0.00  0.00    -0.002 A 
ATOM      4  C   LIG A   1      -8.127  -0.609 126.299  0.00  0.00    +0.127 A 
ATOM      5  C   LIG A   1      -7.819   0.039 125.076  0.00  0.00    +0.091 A 
ATOM      6  C   LIG A   1      -7.076  -0.566 124.066  0.00  0.00    +0.124 A 
ATOM      7  C   LIG A   1      -6.670  -1.892 124.188  0.00  0.00    -0.002 A 
ATOM      8  C   LIG A   1      -6.986  -2.541 125.414  0.00  0.00    +0.015 A 
BRANCH   4   9
ATOM      9  O   LIG A   1      -8.806   0.297 127.079  0.00  0.00    -0.495 OA
ATOM     10  C   LIG A   1      -8.273   1.583 127.197  0.00  0.00    +0.277 C 
ENDBRANCH   4   9
BRANCH   6  11
ATOM     11  O   LIG A   1      -6.691   0.201 123.005  0.00  0.00    -0.506 OA
ATOM     12  H   LIG A   1      -6.974   1.119 123.115  0.00  0.00    +0.292 HD
ENDBRANCH   6  11
BRANCH   7  13
ATOM     13  C   LIG A   1      -5.828  -2.648 123.154  0.00  0.00    +0.065 C 
BRANCH  13  14
ATOM     14  C   LIG A   1      -4.580  -3.287 123.672  0.00  0.00    -0.030 C 
ATOM     15  C   LIG A   1      -4.428  -4.677 123.642  0.00  0.00    +0.004 C 
ENDBRANCH  13  14
ENDBRANCH   7  13
ENDBRANCH   1   3
BRANCH   1  16
ATOM     16  C   LIG A   1      -7.797  -2.328 129.190  0.00  0.00    +0.043 C 
BRANCH  16  17
ATOM     17  C   LIG A   1      -7.016  -3.081 130.238  0.00  0.00    -0.043 A 
ATOM     18  C   LIG A   1      -7.337  -2.878 131.581  0.00  0.00    +0.053 A 
ATOM     19  C   LIG A   1      -6.628  -3.453 132.648  0.00  0.00    +0.162 A 
ATOM     20  C   LIG A   1      -5.732  -4.483 132.335  0.00  0.00    +0.162 A 
ATOM     21  C   LIG A   1      -5.425  -4.725 130.978  0.00  0.00    +0.050 A 
ATOM     22  C   LIG A   1      -6.022  -4.003 129.938  0.00  0.00    +0.007 A 
BRANCH  19  23
ATOM     23  O   LIG A   1      -6.911  -3.051 133.933  0.00  0.00    -0.491 OA
ATOM     24  C   LIG A   1      -8.261  -3.278 134.369  0.00  0.00    +0.277 C 
ENDBRANCH  19  23
BRANCH  20  25
ATOM     25  O   LIG A   1      -5.173  -5.433 133.142  0.00  0.00    -0.491 OA
ATOM     26  C   LIG A   1      -3.884  -5.271 133.697  0.00  0.00    +0.277 C 
ENDBRANCH  20  25
ENDBRANCH  16  17
ENDBRANCH   1  16
TORSDOF 9
ENDMDL
MODEL 2
REMARK VINA RESULT:      -6.9      1.409      2.256
REMARK  Name = NuBBE_2185
REMARK  13 active torsions:
REMARK  status: ('A' for Active; 'I' for Inactive)
REMARK    1  A    between atoms: C_1  and  C_3
REMARK    2  A    between atoms: C_1  and  C_14
REMARK    3  A    between atoms: C_1  and  C_15
REMARK    4  A    between atoms: C_3  and  C_4
REMARK    5  A    between atoms: C_6  and  O_7
REMARK    6  A    between atoms: O_7  and  C_8
REMARK    7  A    between atoms: C_9  and  O_12
REMARK    8  A    between atoms: O_12  and  C_13
REMARK    9  A    between atoms: C_16  and  O_17
REMARK   10  A    between atoms: O_17  and  C_18
REMARK   11  A    between atoms: C_20  and  O_26
REMARK   12  A    between atoms: C_21  and  C_23
REMARK   13  A    between atoms: C_23  and  C_24
REMARK                            x       y       z     vdW  Elec       q    Type
REMARK                         _______ _______ _______ _____ _____    ______ ____
ROOT
ATOM      1  C   LIG A   1      -7.925  -2.989 127.626  0.00  0.00    +0.024 C 
ATOM      2  C   LIG A   1      -9.123  -3.930 127.928  0.00  0.00    +0.013 C 
ENDROOT
BRANCH   1   3
ATOM      3  C   LIG A   1      -7.769  -2.303 126.215  0.00  0.00    -0.002 A 
ATOM      4  C   LIG A   1      -8.566  -1.360 125.516  0.00  0.00    +0.127 A 
ATOM      5  C   LIG A   1      -8.167  -0.913 124.230  0.00  0.00    +0.091 A 
ATOM      6  C   LIG A   1      -6.991  -1.334 123.615  0.00  0.00    +0.124 A 
ATOM      7  C   LIG A   1      -6.186  -2.298 124.217  0.00  0.00    -0.002 A 
ATOM      8  C   LIG A   1      -6.594  -2.749 125.504  0.00  0.00    +0.015 A 
BRANCH   4   9
ATOM      9  O   LIG A   1      -9.726  -0.695 125.835  0.00  0.00    -0.495 OA
ATOM     10  C   LIG A   1      -9.738   0.696 125.698  0.00  0.00    +0.277 C 
ENDBRANCH   4   9
BRANCH   6  11
ATOM     11  O   LIG A   1      -6.615  -0.716 122.458  0.00  0.00    -0.506 OA
ATOM     12  H   LIG A   1      -7.339  -0.703 121.816  0.00  0.00    +0.292 HD
ENDBRANCH   6  11
BRANCH   7  13
ATOM     13  C   LIG A   1      -4.862  -2.814 123.644  0.00  0.00    +0.065 C 
BRANCH  13  14
ATOM     14  C   LIG A   1      -4.419  -4.155 124.135  0.00  0.00    -0.030 C 
ATOM     15  C   LIG A   1      -4.200  -5.204 123.236  0.00  0.00    +0.004 C 
ENDBRANCH  13  14
ENDBRANCH   7  13
ENDBRANCH   1   3
BRANCH   1  16
ATOM     16  C   LIG A   1      -7.723  -2.096 128.908  0.00  0.00    +0.043 C 
BRANCH  16  17
ATOM     17  C   LIG A   1      -6.919  -2.656 130.053  0.00  0.00    -0.043 A 
ATOM     18  C   LIG A   1      -5.541  -2.811 129.886  0.00  0.00    +0.053 A 
ATOM     19  C   LIG A   1      -4.701  -3.400 130.844  0.00  0.00    +0.162 A 
ATOM     20  C   LIG A   1      -5.232  -3.591 132.126  0.00  0.00    +0.162 A 
ATOM     21  C   LIG A   1      -6.619  -3.402 132.320  0.00  0.00    +0.050 A 
ATOM     22  C   LIG A   1      -7.465  -2.985 131.286  0.00  0.00    +0.007 A 
BRANCH  19  23
ATOM     23  O   LIG A   1      -3.392  -3.666 130.513  0.00  0.00    -0.491 OA
ATOM     24  C   LIG A   1      -3.084  -3.610 129.110  0.00  0.00    +0.277 C 
ENDBRANCH  19  23
BRANCH  20  25
ATOM     25  O   LIG A   1      -4.596  -3.811 133.315  0.00  0.00    -0.491 OA
ATOM     26  C   LIG A   1      -5.296  -4.246 134.462  0.00  0.00    +0.277 C 
ENDBRANCH  20  25
ENDBRANCH  16  17
ENDBRANCH   1  16
TORSDOF 9
ENDMDL
MODEL 3
REMARK VINA RESULT:      -6.7      2.459      3.829
REMARK  Name = NuBBE_2185
REMARK  13 active torsions:
REMARK  status: ('A' for Active; 'I' for Inactive)
REMARK    1  A    between atoms: C_1  and  C_3
REMARK    2  A    between atoms: C_1  and  C_14
REMARK    3  A    between atoms: C_1  and  C_15
REMARK    4  A    between atoms: C_3  and  C_4
REMARK    5  A    between atoms: C_6  and  O_7
REMARK    6  A    between atoms: O_7  and  C_8
REMARK    7  A    between atoms: C_9  and  O_12
REMARK    8  A    between atoms: O_12  and  C_13
REMARK    9  A    between atoms: C_16  and  O_17
REMARK   10  A    between atoms: O_17  and  C_18
REMARK   11  A    between atoms: C_20  and  O_26
REMARK   12  A    between atoms: C_21  and  C_23
REMARK   13  A    between atoms: C_23  and  C_24
REMARK                            x       y       z     vdW  Elec       q    Type
REMARK                         _______ _______ _______ _____ _____    ______ ____
ROOT
ATOM      1  C   LIG A   1      -6.307   0.563 126.212  0.00  0.00    +0.024 C 
ATOM      2  C   LIG A   1      -5.180   1.631 126.177  0.00  0.00    +0.013 C 
ENDROOT
BRANCH   1   3
ATOM      3  C   LIG A   1      -7.575   0.693 125.285  0.00  0.00    -0.002 A 
ATOM      4  C   LIG A   1      -8.516   1.737 125.090  0.00  0.00    +0.127 A 
ATOM      5  C   LIG A   1      -9.581   1.566 124.168  0.00  0.00    +0.091 A 
ATOM      6  C   LIG A   1      -9.740   0.414 123.404  0.00  0.00    +0.124 A 
ATOM      7  C   LIG A   1      -8.889  -0.674 123.580  0.00  0.00    -0.002 A 
ATOM      8  C   LIG A   1      -7.825  -0.500 124.510  0.00  0.00    +0.015 A 
BRANCH   4   9
ATOM      9  O   LIG A   1      -8.629   3.004 125.610  0.00  0.00    -0.495 OA
ATOM     10  C   LIG A   1      -7.879   4.023 125.015  0.00  0.00    +0.277 C 
ENDBRANCH   4   9
BRANCH   6  11
ATOM     11  O   LIG A   1     -10.695   0.418 122.428  0.00  0.00    -0.506 OA
ATOM     12  H   LIG A   1     -11.370   1.088 122.601  0.00  0.00    +0.292 HD
ENDBRANCH   6  11
BRANCH   7  13
ATOM     13  C   LIG A   1      -8.955  -1.977 122.777  0.00  0.00    +0.065 C 
BRANCH  13  14
ATOM     14  C   LIG A   1      -9.373  -3.192 123.541  0.00  0.00    -0.030 C 
ATOM     15  C   LIG A   1      -8.502  -3.788 124.459  0.00  0.00    +0.004 C 
ENDBRANCH  13  14
ENDBRANCH   7  13
ENDBRANCH   1   3
BRANCH   1  16
ATOM     16  C   LIG A   1      -5.592  -0.839 126.292  0.00  0.00    +0.043 C 
BRANCH  16  17
ATOM     17  C   LIG A   1      -5.883  -1.726 127.477  0.00  0.00    -0.043 A 
ATOM     18  C   LIG A   1      -4.858  -1.969 128.393  0.00  0.00    +0.053 A 
ATOM     19  C   LIG A   1      -4.981  -2.844 129.485  0.00  0.00    +0.162 A 
ATOM     20  C   LIG A   1      -6.272  -3.276 129.813  0.00  0.00    +0.162 A 
ATOM     21  C   LIG A   1      -7.326  -3.005 128.913  0.00  0.00    +0.050 A 
ATOM     22  C   LIG A   1      -7.130  -2.278 127.733  0.00  0.00    +0.007 A 
BRANCH  19  23
ATOM     23  O   LIG A   1      -3.862  -3.151 130.224  0.00  0.00    -0.491 OA
ATOM     24  C   LIG A   1      -3.543  -2.228 131.279  0.00  0.00    +0.277 C 
ENDBRANCH  19  23
BRANCH  20  25
ATOM     25  O   LIG A   1      -6.743  -3.827 130.971  0.00  0.00    -0.491 OA
ATOM     26  C   LIG A   1      -7.311  -3.033 131.993  0.00  0.00    +0.277 C 
ENDBRANCH  20  25
ENDBRANCH  16  17
ENDBRANCH   1  16
TORSDOF 9
ENDMDL
MODEL 4
REMARK VINA RESULT:      -6.7      2.405      7.579
REMARK  Name = NuBBE_2185
REMARK  13 active torsions:
REMARK  status: ('A' for Active; 'I' for Inactive)
REMARK    1  A    between atoms: C_1  and  C_3
REMARK    2  A    between atoms: C_1  and  C_14
REMARK    3  A    between atoms: C_1  and  C_15
REMARK    4  A    between atoms: C_3  and  C_4
REMARK    5  A    between atoms: C_6  and  O_7
REMARK    6  A    between atoms: O_7  and  C_8
REMARK    7  A    between atoms: C_9  and  O_12
REMARK    8  A    between atoms: O_12  and  C_13
REMARK    9  A    between atoms: C_16  and  O_17
REMARK   10  A    between atoms: O_17  and  C_18
REMARK   11  A    between atoms: C_20  and  O_26
REMARK   12  A    between atoms: C_21  and  C_23
REMARK   13  A    between atoms: C_23  and  C_24
REMARK                            x       y       z     vdW  Elec       q    Type
REMARK                         _______ _______ _______ _____ _____    ______ ____
ROOT
ATOM      1  C   LIG A   1      -8.244  -3.195 127.901  0.00  0.00    +0.024 C 
ATOM      2  C   LIG A   1      -9.355  -4.056 128.561  0.00  0.00    +0.013 C 
ENDROOT
BRANCH   1   3
ATOM      3  C   LIG A   1      -6.792  -3.138 128.511  0.00  0.00    -0.002 A 
ATOM      4  C   LIG A   1      -5.631  -2.405 128.153  0.00  0.00    +0.127 A 
ATOM      5  C   LIG A   1      -4.437  -2.562 128.903  0.00  0.00    +0.091 A 
ATOM      6  C   LIG A   1      -4.348  -3.394 130.016  0.00  0.00    +0.124 A 
ATOM      7  C   LIG A   1      -5.429  -4.185 130.394  0.00  0.00    -0.002 A 
ATOM      8  C   LIG A   1      -6.623  -4.029 129.636  0.00  0.00    +0.015 A 
BRANCH   4   9
ATOM      9  O   LIG A   1      -5.378  -1.468 127.180  0.00  0.00    -0.495 OA
ATOM     10  C   LIG A   1      -5.426  -0.120 127.544  0.00  0.00    +0.277 C 
ENDBRANCH   4   9
BRANCH   6  11
ATOM     11  O   LIG A   1      -3.208  -3.344 130.765  0.00  0.00    -0.506 OA
ATOM     12  H   LIG A   1      -2.620  -2.638 130.462  0.00  0.00    +0.292 HD
ENDBRANCH   6  11
BRANCH   7  13
ATOM     13  C   LIG A   1      -5.451  -5.113 131.613  0.00  0.00    +0.065 C 
BRANCH  13  14
ATOM     14  C   LIG A   1      -5.831  -4.476 132.910  0.00  0.00    -0.030 C 
ATOM     15  C   LIG A   1      -6.065  -5.260 134.045  0.00  0.00    +0.004 C 
ENDBRANCH  13  14
ENDBRANCH   7  13
ENDBRANCH   1   3
BRANCH   1  16
ATOM     16  C   LIG A   1      -8.383  -3.401 126.345  0.00  0.00    +0.043 C 
BRANCH  16  17
ATOM     17  C   LIG A   1      -8.686  -2.199 125.486  0.00  0.00    -0.043 A 
ATOM     18  C   LIG A   1      -8.803  -0.952 126.103  0.00  0.00    +0.053 A 
ATOM     19  C   LIG A   1      -9.167   0.222 125.426  0.00  0.00    +0.162 A 
ATOM     20  C   LIG A   1      -9.144   0.183 124.026  0.00  0.00    +0.162 A 
ATOM     21  C   LIG A   1      -8.988  -1.067 123.386  0.00  0.00    +0.050 A 
ATOM     22  C   LIG A   1      -8.808  -2.255 124.104  0.00  0.00    +0.007 A 
BRANCH  19  23
ATOM     23  O   LIG A   1      -9.428   1.361 126.153  0.00  0.00    -0.491 OA
ATOM     24  C   LIG A   1      -8.646   1.526 127.347  0.00  0.00    +0.277 C 
ENDBRANCH  19  23
BRANCH  20  25
ATOM     25  O   LIG A   1      -9.112   1.205 123.121  0.00  0.00    -0.491 OA
ATOM     26  C   LIG A   1      -8.027   2.108 123.059  0.00  0.00    +0.277 C 
ENDBRANCH  20  25
ENDBRANCH  16  17
ENDBRANCH   1  16
TORSDOF 9
ENDMDL
MODEL 5
REMARK VINA RESULT:      -6.6      3.062      5.041
REMARK  Name = NuBBE_2185
REMARK  13 active torsions:
REMARK  status: ('A' for Active; 'I' for Inactive)
REMARK    1  A    between atoms: C_1  and  C_3
REMARK    2  A    between atoms: C_1  and  C_14
REMARK    3  A    between atoms: C_1  and  C_15
REMARK    4  A    between atoms: C_3  and  C_4
REMARK    5  A    between atoms: C_6  and  O_7
REMARK    6  A    between atoms: O_7  and  C_8
REMARK    7  A    between atoms: C_9  and  O_12
REMARK    8  A    between atoms: O_12  and  C_13
REMARK    9  A    between atoms: C_16  and  O_17
REMARK   10  A    between atoms: O_17  and  C_18
REMARK   11  A    between atoms: C_20  and  O_26
REMARK   12  A    between atoms: C_21  and  C_23
REMARK   13  A    between atoms: C_23  and  C_24
REMARK                            x       y       z     vdW  Elec       q    Type
REMARK                         _______ _______ _______ _____ _____    ______ ____
ROOT
ATOM      1  C   LIG A   1      -7.140  -0.105 124.782  0.00  0.00    +0.024 C 
ATOM      2  C   LIG A   1      -6.819  -0.715 123.391  0.00  0.00    +0.013 C 
ENDROOT
BRANCH   1   3
ATOM      3  C   LIG A   1      -7.264   1.455 124.974  0.00  0.00    -0.002 A 
ATOM      4  C   LIG A   1      -7.987   2.251 125.900  0.00  0.00    +0.127 A 
ATOM      5  C   LIG A   1      -7.906   3.666 125.830  0.00  0.00    +0.091 A 
ATOM      6  C   LIG A   1      -7.113   4.331 124.899  0.00  0.00    +0.124 A 
ATOM      7  C   LIG A   1      -6.418   3.619 123.926  0.00  0.00    -0.002 A 
ATOM      8  C   LIG A   1      -6.507   2.200 123.996  0.00  0.00    +0.015 A 
BRANCH   4   9
ATOM      9  O   LIG A   1      -8.798   1.943 126.967  0.00  0.00    -0.495 OA
ATOM     10  C   LIG A   1      -8.192   1.745 128.210  0.00  0.00    +0.277 C 
ENDBRANCH   4   9
BRANCH   6  11
ATOM     11  O   LIG A   1      -6.974   5.683 125.026  0.00  0.00    -0.506 OA
ATOM     12  H   LIG A   1      -6.339   5.907 125.720  0.00  0.00    +0.292 HD
ENDBRANCH   6  11
BRANCH   7  13
ATOM     13  C   LIG A   1      -5.498   4.245 122.873  0.00  0.00    +0.065 C 
BRANCH  13  14
ATOM     14  C   LIG A   1      -5.606   3.679 121.494  0.00  0.00    -0.030 C 
ATOM     15  C   LIG A   1      -5.552   4.517 120.375  0.00  0.00    +0.004 C 
ENDBRANCH  13  14
ENDBRANCH   7  13
ENDBRANCH   1   3
BRANCH   1  16
ATOM     16  C   LIG A   1      -8.251  -1.018 125.426  0.00  0.00    +0.043 C 
BRANCH  16  17
ATOM     17  C   LIG A   1      -7.899  -1.816 126.657  0.00  0.00    -0.043 A 
ATOM     18  C   LIG A   1      -6.750  -1.468 127.370  0.00  0.00    +0.053 A 
ATOM     19  C   LIG A   1      -6.273  -2.186 128.478  0.00  0.00    +0.162 A 
ATOM     20  C   LIG A   1      -7.138  -3.128 129.047  0.00  0.00    +0.162 A 
ATOM     21  C   LIG A   1      -8.324  -3.464 128.356  0.00  0.00    +0.050 A 
ATOM     22  C   LIG A   1      -8.681  -2.851 127.149  0.00  0.00    +0.007 A 
BRANCH  19  23
ATOM     23  O   LIG A   1      -5.040  -1.868 129.000  0.00  0.00    -0.491 OA
ATOM     24  C   LIG A   1      -4.076  -2.933 129.004  0.00  0.00    +0.277 C 
ENDBRANCH  19  23
BRANCH  20  25
ATOM     25  O   LIG A   1      -7.106  -3.715 130.280  0.00  0.00    -0.491 OA
ATOM     26  C   LIG A   1      -7.323  -2.972 131.462  0.00  0.00    +0.277 C 
ENDBRANCH  20  25
ENDBRANCH  16  17
ENDBRANCH   1  16
TORSDOF 9
ENDMDL
MODEL 6
REMARK VINA RESULT:      -6.6      3.013      5.878
REMARK  Name = NuBBE_2185
REMARK  13 active torsions:
REMARK  status: ('A' for Active; 'I' for Inactive)
REMARK    1  A    between atoms: C_1  and  C_3
REMARK    2  A    between atoms: C_1  and  C_14
REMARK    3  A    between atoms: C_1  and  C_15
REMARK    4  A    between atoms: C_3  and  C_4
REMARK    5  A    between atoms: C_6  and  O_7
REMARK    6  A    between atoms: O_7  and  C_8
REMARK    7  A    between atoms: C_9  and  O_12
REMARK    8  A    between atoms: O_12  and  C_13
REMARK    9  A    between atoms: C_16  and  O_17
REMARK   10  A    between atoms: O_17  and  C_18
REMARK   11  A    between atoms: C_20  and  O_26
REMARK   12  A    between atoms: C_21  and  C_23
REMARK   13  A    between atoms: C_23  and  C_24
REMARK                            x       y       z     vdW  Elec       q    Type
REMARK                         _______ _______ _______ _____ _____    ______ ____
ROOT
ATOM      1  C   LIG A   1      -5.082  -1.628 128.264  0.00  0.00    +0.024 C 
ATOM      2  C   LIG A   1      -4.262  -2.611 129.143  0.00  0.00    +0.013 C 
ENDROOT
BRANCH   1   3
ATOM      3  C   LIG A   1      -6.155  -2.158 127.239  0.00  0.00    -0.002 A 
ATOM      4  C   LIG A   1      -7.516  -2.532 127.386  0.00  0.00    +0.127 A 
ATOM      5  C   LIG A   1      -8.250  -2.985 126.259  0.00  0.00    +0.091 A 
ATOM      6  C   LIG A   1      -7.705  -3.055 124.981  0.00  0.00    +0.124 A 
ATOM      7  C   LIG A   1      -6.361  -2.756 124.769  0.00  0.00    -0.002 A 
ATOM      8  C   LIG A   1      -5.627  -2.308 125.903  0.00  0.00    +0.015 A 
BRANCH   4   9
ATOM      9  O   LIG A   1      -8.378  -2.529 128.457  0.00  0.00    -0.495 OA
ATOM     10  C   LIG A   1      -8.015  -3.267 129.587  0.00  0.00    +0.277 C 
ENDBRANCH   4   9
BRANCH   6  11
ATOM     11  O   LIG A   1      -8.541  -3.339 123.940  0.00  0.00    -0.506 OA
ATOM     12  H   LIG A   1      -8.044  -3.571 123.144  0.00  0.00    +0.292 HD
ENDBRANCH   6  11
BRANCH   7  13
ATOM     13  C   LIG A   1      -5.664  -2.773 123.405  0.00  0.00    +0.065 C 
BRANCH  13  14
ATOM     14  C   LIG A   1      -4.355  -3.492 123.352  0.00  0.00    -0.030 C 
ATOM     15  C   LIG A   1      -4.302  -4.883 123.480  0.00  0.00    +0.004 C 
ENDBRANCH  13  14
ENDBRANCH   7  13
ENDBRANCH   1   3
BRANCH   1  16
ATOM     16  C   LIG A   1      -5.484  -0.423 129.196  0.00  0.00    +0.043 C 
BRANCH  16  17
ATOM     17  C   LIG A   1      -6.075   0.810 128.561  0.00  0.00    -0.043 A 
ATOM     18  C   LIG A   1      -7.306   1.275 129.027  0.00  0.00    +0.053 A 
ATOM     19  C   LIG A   1      -7.997   2.357 128.460  0.00  0.00    +0.162 A 
ATOM     20  C   LIG A   1      -7.288   3.165 127.563  0.00  0.00    +0.162 A 
ATOM     21  C   LIG A   1      -6.024   2.727 127.109  0.00  0.00    +0.050 A 
ATOM     22  C   LIG A   1      -5.440   1.539 127.564  0.00  0.00    +0.007 A 
BRANCH  19  23
ATOM     23  O   LIG A   1      -9.281   2.624 128.877  0.00  0.00    -0.491 OA
ATOM     24  C   LIG A   1      -9.393   3.421 130.067  0.00  0.00    +0.277 C 
ENDBRANCH  19  23
BRANCH  20  25
ATOM     25  O   LIG A   1      -7.554   4.432 127.125  0.00  0.00    -0.491 OA
ATOM     26  C   LIG A   1      -7.951   4.689 125.794  0.00  0.00    +0.277 C 
ENDBRANCH  20  25
ENDBRANCH  16  17
ENDBRANCH   1  16
TORSDOF 9
ENDMDL
MODEL 7
REMARK VINA RESULT:      -6.5      2.090      7.901
REMARK  Name = NuBBE_2185
REMARK  13 active torsions:
REMARK  status: ('A' for Active; 'I' for Inactive)
REMARK    1  A    between atoms: C_1  and  C_3
REMARK    2  A    between atoms: C_1  and  C_14
REMARK    3  A    between atoms: C_1  and  C_15
REMARK    4  A    between atoms: C_3  and  C_4
REMARK    5  A    between atoms: C_6  and  O_7
REMARK    6  A    between atoms: O_7  and  C_8
REMARK    7  A    between atoms: C_9  and  O_12
REMARK    8  A    between atoms: O_12  and  C_13
REMARK    9  A    between atoms: C_16  and  O_17
REMARK   10  A    between atoms: O_17  and  C_18
REMARK   11  A    between atoms: C_20  and  O_26
REMARK   12  A    between atoms: C_21  and  C_23
REMARK   13  A    between atoms: C_23  and  C_24
REMARK                            x       y       z     vdW  Elec       q    Type
REMARK                         _______ _______ _______ _____ _____    ______ ____
ROOT
ATOM      1  C   LIG A   1      -8.369  -3.285 128.168  0.00  0.00    +0.024 C 
ATOM      2  C   LIG A   1      -9.438  -4.132 128.909  0.00  0.00    +0.013 C 
ENDROOT
BRANCH   1   3
ATOM      3  C   LIG A   1      -6.886  -3.206 128.699  0.00  0.00    -0.002 A 
ATOM      4  C   LIG A   1      -5.758  -2.454 128.280  0.00  0.00    +0.127 A 
ATOM      5  C   LIG A   1      -4.523  -2.593 128.965  0.00  0.00    +0.091 A 
ATOM      6  C   LIG A   1      -4.361  -3.422 130.070  0.00  0.00    +0.124 A 
ATOM      7  C   LIG A   1      -5.408  -4.230 130.506  0.00  0.00    -0.002 A 
ATOM      8  C   LIG A   1      -6.644  -4.093 129.813  0.00  0.00    +0.015 A 
BRANCH   4   9
ATOM      9  O   LIG A   1      -5.573  -1.514 127.295  0.00  0.00    -0.495 OA
ATOM     10  C   LIG A   1      -5.749  -0.169 127.635  0.00  0.00    +0.277 C 
ENDBRANCH   4   9
BRANCH   6  11
ATOM     11  O   LIG A   1      -3.184  -3.354 130.757  0.00  0.00    -0.506 OA
ATOM     12  H   LIG A   1      -2.900  -4.230 131.053  0.00  0.00    +0.292 HD
ENDBRANCH   6  11
BRANCH   7  13
ATOM     13  C   LIG A   1      -5.350  -5.159 131.723  0.00  0.00    +0.065 C 
BRANCH  13  14
ATOM     14  C   LIG A   1      -5.555  -4.505 133.051  0.00  0.00    -0.030 C 
ATOM     15  C   LIG A   1      -6.676  -3.701 133.283  0.00  0.00    +0.004 C 
ENDBRANCH  13  14
ENDBRANCH   7  13
ENDBRANCH   1   3
BRANCH   1  16
ATOM     16  C   LIG A   1      -8.588  -3.535 126.628  0.00  0.00    +0.043 C 
BRANCH  16  17
ATOM     17  C   LIG A   1      -8.557  -2.349 125.697  0.00  0.00    -0.043 A 
ATOM     18  C   LIG A   1      -8.086  -2.535 124.396  0.00  0.00    +0.053 A 
ATOM     19  C   LIG A   1      -7.928  -1.495 123.467  0.00  0.00    +0.162 A 
ATOM     20  C   LIG A   1      -8.525  -0.267 123.780  0.00  0.00    +0.162 A 
ATOM     21  C   LIG A   1      -9.040  -0.075 125.081  0.00  0.00    +0.050 A 
ATOM     22  C   LIG A   1      -9.016  -1.086 126.048  0.00  0.00    +0.007 A 
BRANCH  19  23
ATOM     23  O   LIG A   1      -7.292  -1.753 122.275  0.00  0.00    -0.491 OA
ATOM     24  C   LIG A   1      -5.911  -2.136 122.380  0.00  0.00    +0.277 C 
ENDBRANCH  19  23
BRANCH  20  25
ATOM     25  O   LIG A   1      -8.833   0.789 122.969  0.00  0.00    -0.491 OA
ATOM     26  C   LIG A   1      -9.522   1.922 123.456  0.00  0.00    +0.277 C 
ENDBRANCH  20  25
ENDBRANCH  16  17
ENDBRANCH   1  16
TORSDOF 9
ENDMDL
MODEL 8
REMARK VINA RESULT:      -6.4      3.473      4.250
REMARK  Name = NuBBE_2185
REMARK  13 active torsions:
REMARK  status: ('A' for Active; 'I' for Inactive)
REMARK    1  A    between atoms: C_1  and  C_3
REMARK    2  A    between atoms: C_1  and  C_14
REMARK    3  A    between atoms: C_1  and  C_15
REMARK    4  A    between atoms: C_3  and  C_4
REMARK    5  A    between atoms: C_6  and  O_7
REMARK    6  A    between atoms: O_7  and  C_8
REMARK    7  A    between atoms: C_9  and  O_12
REMARK    8  A    between atoms: O_12  and  C_13
REMARK    9  A    between atoms: C_16  and  O_17
REMARK   10  A    between atoms: O_17  and  C_18
REMARK   11  A    between atoms: C_20  and  O_26
REMARK   12  A    between atoms: C_21  and  C_23
REMARK   13  A    between atoms: C_23  and  C_24
REMARK                            x       y       z     vdW  Elec       q    Type
REMARK                         _______ _______ _______ _____ _____    ______ ____
ROOT
ATOM      1  C   LIG A   1      -8.083  -3.215 127.431  0.00  0.00    +0.024 C 
ATOM      2  C   LIG A   1      -9.428  -3.920 127.756  0.00  0.00    +0.013 C 
ENDROOT
BRANCH   1   3
ATOM      3  C   LIG A   1      -7.893  -2.413 126.087  0.00  0.00    -0.002 A 
ATOM      4  C   LIG A   1      -8.645  -1.377 125.475  0.00  0.00    +0.127 A 
ATOM      5  C   LIG A   1      -8.223  -0.836 124.234  0.00  0.00    +0.091 A 
ATOM      6  C   LIG A   1      -7.066  -1.253 123.582  0.00  0.00    +0.124 A 
ATOM      7  C   LIG A   1      -6.306  -2.302 124.094  0.00  0.00    -0.002 A 
ATOM      8  C   LIG A   1      -6.737  -2.847 125.337  0.00  0.00    +0.015 A 
BRANCH   4   9
ATOM      9  O   LIG A   1      -9.775  -0.691 125.854  0.00  0.00    -0.495 OA
ATOM     10  C   LIG A   1      -9.771   0.699 125.713  0.00  0.00    +0.277 C 
ENDBRANCH   4   9
BRANCH   6  11
ATOM     11  O   LIG A   1      -6.659  -0.552 122.484  0.00  0.00    -0.506 OA
ATOM     12  H   LIG A   1      -6.115   0.207 122.734  0.00  0.00    +0.292 HD
ENDBRANCH   6  11
BRANCH   7  13
ATOM     13  C   LIG A   1      -5.006  -2.824 123.476  0.00  0.00    +0.065 C 
BRANCH  13  14
ATOM     14  C   LIG A   1      -4.445  -4.066 124.091  0.00  0.00    -0.030 C 
ATOM     15  C   LIG A   1      -4.197  -5.197 123.306  0.00  0.00    +0.004 C 
ENDBRANCH  13  14
ENDBRANCH   7  13
ENDBRANCH   1   3
BRANCH   1  16
ATOM     16  C   LIG A   1      -7.598  -2.539 128.768  0.00  0.00    +0.043 C 
BRANCH  16  17
ATOM     17  C   LIG A   1      -7.026  -1.145 128.701  0.00  0.00    -0.043 A 
ATOM     18  C   LIG A   1      -7.889  -0.063 128.887  0.00  0.00    +0.053 A 
ATOM     19  C   LIG A   1      -7.494   1.279 128.762  0.00  0.00    +0.162 A 
ATOM     20  C   LIG A   1      -6.118   1.536 128.715  0.00  0.00    +0.162 A 
ATOM     21  C   LIG A   1      -5.230   0.448 128.565  0.00  0.00    +0.050 A 
ATOM     22  C   LIG A   1      -5.678  -0.877 128.511  0.00  0.00    +0.007 A 
BRANCH  19  23
ATOM     23  O   LIG A   1      -8.454   2.264 128.788  0.00  0.00    -0.491 OA
ATOM     24  C   LIG A   1      -9.007   2.556 130.082  0.00  0.00    +0.277 C 
ENDBRANCH  19  23
BRANCH  20  25
ATOM     25  O   LIG A   1      -5.436   2.700 128.932  0.00  0.00    -0.491 OA
ATOM     26  C   LIG A   1      -4.024   2.741 128.948  0.00  0.00    +0.277 C 
ENDBRANCH  20  25
ENDBRANCH  16  17
ENDBRANCH   1  16
TORSDOF 9
ENDMDL
MODEL 9
REMARK VINA RESULT:      -6.4      1.889      8.557
REMARK  Name = NuBBE_2185
REMARK  13 active torsions:
REMARK  status: ('A' for Active; 'I' for Inactive)
REMARK    1  A    between atoms: C_1  and  C_3
REMARK    2  A    between atoms: C_1  and  C_14
REMARK    3  A    between atoms: C_1  and  C_15
REMARK    4  A    between atoms: C_3  and  C_4
REMARK    5  A    between atoms: C_6  and  O_7
REMARK    6  A    between atoms: O_7  and  C_8
REMARK    7  A    between atoms: C_9  and  O_12
REMARK    8  A    between atoms: O_12  and  C_13
REMARK    9  A    between atoms: C_16  and  O_17
REMARK   10  A    between atoms: O_17  and  C_18
REMARK   11  A    between atoms: C_20  and  O_26
REMARK   12  A    between atoms: C_21  and  C_23
REMARK   13  A    between atoms: C_23  and  C_24
REMARK                            x       y       z     vdW  Elec       q    Type
REMARK                         _______ _______ _______ _____ _____    ______ ____
ROOT
ATOM      1  C   LIG A   1      -7.280  -2.262 130.173  0.00  0.00    +0.024 C 
ATOM      2  C   LIG A   1      -8.089  -1.040 130.686  0.00  0.00    +0.013 C 
ENDROOT
BRANCH   1   3
ATOM      3  C   LIG A   1      -6.578  -3.251 131.181  0.00  0.00    -0.002 A 
ATOM      4  C   LIG A   1      -5.501  -4.163 131.034  0.00  0.00    +0.127 A 
ATOM      5  C   LIG A   1      -5.077  -4.941 132.142  0.00  0.00    +0.091 A 
ATOM      6  C   LIG A   1      -5.654  -4.833 133.404  0.00  0.00    +0.124 A 
ATOM      7  C   LIG A   1      -6.749  -4.000 133.611  0.00  0.00    -0.002 A 
ATOM      8  C   LIG A   1      -7.175  -3.226 132.495  0.00  0.00    +0.015 A 
BRANCH   4   9
ATOM      9  O   LIG A   1      -4.676  -4.476 129.979  0.00  0.00    -0.495 OA
ATOM     10  C   LIG A   1      -3.763  -3.506 129.556  0.00  0.00    +0.277 C 
ENDBRANCH   4   9
BRANCH   6  11
ATOM     11  O   LIG A   1      -5.062  -5.499 134.439  0.00  0.00    -0.506 OA
ATOM     12  H   LIG A   1      -4.631  -4.886 135.049  0.00  0.00    +0.292 HD
ENDBRANCH   6  11
BRANCH   7  13
ATOM     13  C   LIG A   1      -7.444  -3.785 134.960  0.00  0.00    +0.065 C 
BRANCH  13  14
ATOM     14  C   LIG A   1      -8.517  -4.767 135.304  0.00  0.00    -0.030 C 
ATOM     15  C   LIG A   1      -8.237  -5.869 136.118  0.00  0.00    +0.004 C 
ENDBRANCH  13  14
ENDBRANCH   7  13
ENDBRANCH   1   3
BRANCH   1  16
ATOM     16  C   LIG A   1      -8.112  -2.884 128.988  0.00  0.00    +0.043 C 
BRANCH  16  17
ATOM     17  C   LIG A   1      -7.727  -2.524 127.575  0.00  0.00    -0.043 A 
ATOM     18  C   LIG A   1      -8.738  -2.405 126.620  0.00  0.00    +0.053 A 
ATOM     19  C   LIG A   1      -8.500  -2.160 125.258  0.00  0.00    +0.162 A 
ATOM     20  C   LIG A   1      -7.208  -1.754 124.901  0.00  0.00    +0.162 A 
ATOM     21  C   LIG A   1      -6.181  -1.833 125.868  0.00  0.00    +0.050 A 
ATOM     22  C   LIG A   1      -6.423  -2.259 127.179  0.00  0.00    +0.007 A 
BRANCH  19  23
ATOM     23  O   LIG A   1      -9.549  -2.237 124.371  0.00  0.00    -0.491 OA
ATOM     24  C   LIG A   1      -9.552  -3.388 123.512  0.00  0.00    +0.277 C 
ENDBRANCH  19  23
BRANCH  20  25
ATOM     25  O   LIG A   1      -6.766  -1.137 123.765  0.00  0.00    -0.491 OA
ATOM     26  C   LIG A   1      -6.244  -1.871 122.677  0.00  0.00    +0.277 C 
ENDBRANCH  20  25
ENDBRANCH  16  17
ENDBRANCH   1  16
TORSDOF 9
ENDMDL
