MODEL 1
REMARK VINA RESULT:      -7.5      0.000      0.000
REMARK  Name = NuBBE_35
REMARK  10 active torsions:
REMARK  status: ('A' for Active; 'I' for Inactive)
REMARK    1  A    between atoms: C_1  and  O_2
REMARK    2  A    between atoms: O_2  and  C_3
REMARK    3  A    between atoms: C_10  and  C_11
REMARK    4  A    between atoms: C_17  and  C_19
REMARK    5  A    between atoms: C_21  and  O_22
REMARK    6  A    between atoms: O_22  and  C_23
REMARK    7  A    between atoms: C_24  and  O_25
REMARK    8  A    between atoms: O_25  and  C_26
REMARK    9  A    between atoms: C_27  and  O_28
REMARK   10  A    between atoms: O_28  and  C_29
REMARK                            x       y       z     vdW  Elec       q    Type
REMARK                         _______ _______ _______ _____ _____    ______ ____
ROOT
ATOM      1  C   LIG A   1      -7.704   5.108 131.036  0.00  0.00    +0.154 C 
ATOM      2  C   LIG A   1      -7.699   3.595 130.779  0.00  0.00    +0.056 C 
ATOM      3  C   LIG A   1      -9.000   2.846 130.612  0.00  0.00    +0.167 C 
ATOM      4  O   LIG A   1      -9.399   2.987 129.244  0.00  0.00    -0.371 OA
ATOM      5  C   LIG A   1      -8.267   3.439 128.474  0.00  0.00    +0.154 C 
ATOM      6  C   LIG A   1      -7.065   3.456 129.422  0.00  0.00    +0.056 C 
ATOM      7  C   LIG A   1      -6.172   4.666 129.299  0.00  0.00    +0.167 C 
ATOM      8  O   LIG A   1      -6.601   5.636 130.262  0.00  0.00    -0.371 OA
ENDROOT
BRANCH   1  16
ATOM      9  C   LIG A   1     -10.178   7.561 129.363  0.00  0.00    +0.166 A 
ATOM     10  C   LIG A   1     -11.263   7.402 130.222  0.00  0.00    +0.207 A 
ATOM     11  O   LIG A   1     -12.456   8.040 130.161  0.00  0.00    -0.449 OA
ATOM     12  C   LIG A   1     -13.140   7.491 131.313  0.00  0.00    +0.467 C 
ATOM     13  O   LIG A   1     -12.341   6.547 132.046  0.00  0.00    -0.453 OA
ATOM     14  C   LIG A   1     -11.188   6.547 131.296  0.00  0.00    +0.170 A 
ATOM     15  C   LIG A   1     -10.075   5.790 131.583  0.00  0.00    +0.056 A 
ATOM     16  C   LIG A   1      -8.951   5.922 130.747  0.00  0.00    -0.011 A 
ATOM     17  C   LIG A   1      -9.023   6.840 129.674  0.00  0.00    +0.056 A 
BRANCH   9  19
ATOM     18  C   LIG A   1     -10.814   7.924 127.119  0.00  0.00    +0.277 C 
ATOM     19  O   LIG A   1     -10.099   8.363 128.270  0.00  0.00    -0.491 OA
ENDBRANCH   9  19
ENDBRANCH   1  16
BRANCH   5  20
ATOM     20  C   LIG A   1      -8.155   2.600 127.220  0.00  0.00    -0.011 A 
ATOM     21  C   LIG A   1      -8.590   1.276 127.142  0.00  0.00    +0.056 A 
ATOM     22  C   LIG A   1      -8.482   0.534 125.953  0.00  0.00    +0.166 A 
ATOM     23  C   LIG A   1      -7.957   1.137 124.794  0.00  0.00    +0.203 A 
ATOM     24  C   LIG A   1      -7.551   2.487 124.844  0.00  0.00    +0.166 A 
ATOM     25  C   LIG A   1      -7.641   3.193 126.055  0.00  0.00    +0.056 A 
BRANCH  22  26
ATOM     26  O   LIG A   1      -8.942  -0.751 126.115  0.00  0.00    -0.491 OA
ATOM     27  C   LIG A   1      -8.088  -1.704 126.730  0.00  0.00    +0.277 C 
ENDBRANCH  22  26
BRANCH  23  28
ATOM     28  O   LIG A   1      -7.992   0.395 123.643  0.00  0.00    -0.488 OA
ATOM     29  C   LIG A   1      -6.907  -0.455 123.309  0.00  0.00    +0.277 C 
ENDBRANCH  23  28
BRANCH  24  30
ATOM     30  O   LIG A   1      -7.128   3.058 123.672  0.00  0.00    -0.491 OA
ATOM     31  C   LIG A   1      -5.930   3.819 123.685  0.00  0.00    +0.277 C 
ENDBRANCH  24  30
ENDBRANCH   5  20
TORSDOF 6
ENDMDL
MODEL 2
REMARK VINA RESULT:      -7.4      1.697      2.707
REMARK  Name = NuBBE_35
REMARK  10 active torsions:
REMARK  status: ('A' for Active; 'I' for Inactive)
REMARK    1  A    between atoms: C_1  and  O_2
REMARK    2  A    between atoms: O_2  and  C_3
REMARK    3  A    between atoms: C_10  and  C_11
REMARK    4  A    between atoms: C_17  and  C_19
REMARK    5  A    between atoms: C_21  and  O_22
REMARK    6  A    between atoms: O_22  and  C_23
REMARK    7  A    between atoms: C_24  and  O_25
REMARK    8  A    between atoms: O_25  and  C_26
REMARK    9  A    between atoms: C_27  and  O_28
REMARK   10  A    between atoms: O_28  and  C_29
REMARK                            x       y       z     vdW  Elec       q    Type
REMARK                         _______ _______ _______ _____ _____    ______ ____
ROOT
ATOM      1  C   LIG A   1      -7.426   5.052 130.607  0.00  0.00    +0.154 C 
ATOM      2  C   LIG A   1      -7.288   3.546 130.865  0.00  0.00    +0.056 C 
ATOM      3  C   LIG A   1      -8.490   2.730 131.277  0.00  0.00    +0.167 C 
ATOM      4  O   LIG A   1      -9.191   2.371 130.081  0.00  0.00    -0.371 OA
ATOM      5  C   LIG A   1      -8.318   2.577 128.952  0.00  0.00    +0.154 C 
ATOM      6  C   LIG A   1      -6.951   2.973 129.516  0.00  0.00    +0.056 C 
ATOM      7  C   LIG A   1      -6.263   4.103 128.789  0.00  0.00    +0.167 C 
ATOM      8  O   LIG A   1      -6.591   5.327 129.458  0.00  0.00    -0.371 OA
ENDROOT
BRANCH   1  16
ATOM      9  C   LIG A   1     -10.571   6.474 128.869  0.00  0.00    +0.166 A 
ATOM     10  C   LIG A   1     -11.334   6.769 129.996  0.00  0.00    +0.207 A 
ATOM     11  O   LIG A   1     -12.565   7.331 130.027  0.00  0.00    -0.449 OA
ATOM     12  C   LIG A   1     -12.812   7.413 131.452  0.00  0.00    +0.467 C 
ATOM     13  O   LIG A   1     -11.722   6.912 132.244  0.00  0.00    -0.453 OA
ATOM     14  C   LIG A   1     -10.844   6.527 131.258  0.00  0.00    +0.170 A 
ATOM     15  C   LIG A   1      -9.607   5.971 131.494  0.00  0.00    +0.056 A 
ATOM     16  C   LIG A   1      -8.797   5.661 130.385  0.00  0.00    -0.011 A 
ATOM     17  C   LIG A   1      -9.293   5.960 129.095  0.00  0.00    +0.056 A 
BRANCH   9  19
ATOM     18  C   LIG A   1     -10.861   7.998 127.089  0.00  0.00    +0.277 C 
ATOM     19  O   LIG A   1     -10.913   6.657 127.567  0.00  0.00    -0.491 OA
ENDBRANCH   9  19
ENDBRANCH   1  16
BRANCH   5  20
ATOM     20  C   LIG A   1      -8.376   1.361 128.053  0.00  0.00    -0.011 A 
ATOM     21  C   LIG A   1      -9.070   1.335 126.842  0.00  0.00    +0.056 A 
ATOM     22  C   LIG A   1      -9.087   0.191 126.027  0.00  0.00    +0.166 A 
ATOM     23  C   LIG A   1      -8.363  -0.955 126.410  0.00  0.00    +0.203 A 
ATOM     24  C   LIG A   1      -7.622  -0.931 127.609  0.00  0.00    +0.166 A 
ATOM     25  C   LIG A   1      -7.650   0.216 128.419  0.00  0.00    +0.056 A 
BRANCH  22  26
ATOM     26  O   LIG A   1      -9.856   0.381 124.904  0.00  0.00    -0.491 OA
ATOM     27  C   LIG A   1      -9.808   1.644 124.256  0.00  0.00    +0.277 C 
ENDBRANCH  22  26
BRANCH  23  28
ATOM     28  O   LIG A   1      -8.326  -1.989 125.512  0.00  0.00    -0.488 OA
ATOM     29  C   LIG A   1      -9.312  -3.008 125.558  0.00  0.00    +0.277 C 
ENDBRANCH  23  28
BRANCH  24  30
ATOM     30  O   LIG A   1      -6.863  -2.036 127.899  0.00  0.00    -0.491 OA
ATOM     31  C   LIG A   1      -7.326  -2.932 128.898  0.00  0.00    +0.277 C 
ENDBRANCH  24  30
ENDBRANCH   5  20
TORSDOF 6
ENDMDL
MODEL 3
REMARK VINA RESULT:      -7.3      0.485      2.289
REMARK  Name = NuBBE_35
REMARK  10 active torsions:
REMARK  status: ('A' for Active; 'I' for Inactive)
REMARK    1  A    between atoms: C_1  and  O_2
REMARK    2  A    between atoms: O_2  and  C_3
REMARK    3  A    between atoms: C_10  and  C_11
REMARK    4  A    between atoms: C_17  and  C_19
REMARK    5  A    between atoms: C_21  and  O_22
REMARK    6  A    between atoms: O_22  and  C_23
REMARK    7  A    between atoms: C_24  and  O_25
REMARK    8  A    between atoms: O_25  and  C_26
REMARK    9  A    between atoms: C_27  and  O_28
REMARK   10  A    between atoms: O_28  and  C_29
REMARK                            x       y       z     vdW  Elec       q    Type
REMARK                         _______ _______ _______ _____ _____    ______ ____
ROOT
ATOM      1  C   LIG A   1      -7.713   5.197 131.102  0.00  0.00    +0.154 C 
ATOM      2  C   LIG A   1      -7.697   3.673 130.921  0.00  0.00    +0.056 C 
ATOM      3  C   LIG A   1      -8.992   2.908 130.797  0.00  0.00    +0.167 C 
ATOM      4  O   LIG A   1      -9.399   2.977 129.426  0.00  0.00    -0.371 OA
ATOM      5  C   LIG A   1      -8.273   3.399 128.629  0.00  0.00    +0.154 C 
ATOM      6  C   LIG A   1      -7.068   3.472 129.569  0.00  0.00    +0.056 C 
ATOM      7  C   LIG A   1      -6.184   4.681 129.382  0.00  0.00    +0.167 C 
ATOM      8  O   LIG A   1      -6.617   5.694 130.298  0.00  0.00    -0.371 OA
ENDROOT
BRANCH   1  16
ATOM      9  C   LIG A   1     -10.205   7.564 129.335  0.00  0.00    +0.166 A 
ATOM     10  C   LIG A   1     -11.293   7.420 130.191  0.00  0.00    +0.207 A 
ATOM     11  O   LIG A   1     -12.493   8.042 130.103  0.00  0.00    -0.449 OA
ATOM     12  C   LIG A   1     -13.177   7.523 131.268  0.00  0.00    +0.467 C 
ATOM     13  O   LIG A   1     -12.372   6.613 132.037  0.00  0.00    -0.453 OA
ATOM     14  C   LIG A   1     -11.215   6.602 131.294  0.00  0.00    +0.170 A 
ATOM     15  C   LIG A   1     -10.095   5.868 131.612  0.00  0.00    +0.056 A 
ATOM     16  C   LIG A   1      -8.967   5.987 130.779  0.00  0.00    -0.011 A 
ATOM     17  C   LIG A   1      -9.043   6.868 129.676  0.00  0.00    +0.056 A 
BRANCH   9  19
ATOM     18  C   LIG A   1     -10.775   7.813 127.057  0.00  0.00    +0.277 C 
ATOM     19  O   LIG A   1     -10.128   8.330 128.216  0.00  0.00    -0.491 OA
ENDBRANCH   9  19
ENDBRANCH   1  16
BRANCH   5  20
ATOM     20  C   LIG A   1      -8.160   2.500 127.418  0.00  0.00    -0.011 A 
ATOM     21  C   LIG A   1      -7.755   2.953 126.161  0.00  0.00    +0.056 A 
ATOM     22  C   LIG A   1      -7.647   2.083 125.063  0.00  0.00    +0.166 A 
ATOM     23  C   LIG A   1      -7.915   0.710 125.226  0.00  0.00    +0.203 A 
ATOM     24  C   LIG A   1      -8.284   0.228 126.499  0.00  0.00    +0.166 A 
ATOM     25  C   LIG A   1      -8.416   1.127 127.570  0.00  0.00    +0.056 A 
BRANCH  22  26
ATOM     26  O   LIG A   1      -7.264   2.750 123.924  0.00  0.00    -0.491 OA
ATOM     27  C   LIG A   1      -6.046   3.482 123.945  0.00  0.00    +0.277 C 
ENDBRANCH  22  26
BRANCH  23  28
ATOM     28  O   LIG A   1      -7.674  -0.098 124.147  0.00  0.00    -0.488 OA
ATOM     29  C   LIG A   1      -8.723  -0.416 123.246  0.00  0.00    +0.277 C 
ENDBRANCH  23  28
BRANCH  24  30
ATOM     30  O   LIG A   1      -8.451  -1.126 126.632  0.00  0.00    -0.491 OA
ATOM     31  C   LIG A   1      -7.409  -1.881 127.231  0.00  0.00    +0.277 C 
ENDBRANCH  24  30
ENDBRANCH   5  20
TORSDOF 6
ENDMDL
MODEL 4
REMARK VINA RESULT:      -7.2      4.339      8.541
REMARK  Name = NuBBE_35
REMARK  10 active torsions:
REMARK  status: ('A' for Active; 'I' for Inactive)
REMARK    1  A    between atoms: C_1  and  O_2
REMARK    2  A    between atoms: O_2  and  C_3
REMARK    3  A    between atoms: C_10  and  C_11
REMARK    4  A    between atoms: C_17  and  C_19
REMARK    5  A    between atoms: C_21  and  O_22
REMARK    6  A    between atoms: O_22  and  C_23
REMARK    7  A    between atoms: C_24  and  O_25
REMARK    8  A    between atoms: O_25  and  C_26
REMARK    9  A    between atoms: C_27  and  O_28
REMARK   10  A    between atoms: O_28  and  C_29
REMARK                            x       y       z     vdW  Elec       q    Type
REMARK                         _______ _______ _______ _____ _____    ______ ____
ROOT
ATOM      1  C   LIG A   1      -8.478  -1.921 124.572  0.00  0.00    +0.154 C 
ATOM      2  C   LIG A   1      -7.400  -2.912 125.031  0.00  0.00    +0.056 C 
ATOM      3  C   LIG A   1      -5.958  -2.476 125.133  0.00  0.00    +0.167 C 
ATOM      4  O   LIG A   1      -5.794  -1.844 126.408  0.00  0.00    -0.371 OA
ATOM      5  C   LIG A   1      -6.915  -2.190 127.246  0.00  0.00    +0.154 C 
ATOM      6  C   LIG A   1      -7.756  -3.202 126.464  0.00  0.00    +0.056 C 
ATOM      7  C   LIG A   1      -9.248  -2.982 126.532  0.00  0.00    +0.167 C 
ATOM      8  O   LIG A   1      -9.633  -2.194 125.399  0.00  0.00    -0.371 OA
ENDROOT
BRANCH   1  16
ATOM      9  C   LIG A   1      -8.318   1.772 125.700  0.00  0.00    +0.166 A 
ATOM     10  C   LIG A   1      -7.648   2.310 124.604  0.00  0.00    +0.207 A 
ATOM     11  O   LIG A   1      -7.315   3.607 124.404  0.00  0.00    -0.449 OA
ATOM     12  C   LIG A   1      -6.680   3.548 123.104  0.00  0.00    +0.467 C 
ATOM     13  O   LIG A   1      -6.657   2.223 122.546  0.00  0.00    -0.453 OA
ATOM     14  C   LIG A   1      -7.276   1.512 123.547  0.00  0.00    +0.170 A 
ATOM     15  C   LIG A   1      -7.513   0.156 123.505  0.00  0.00    +0.056 A 
ATOM     16  C   LIG A   1      -8.194  -0.431 124.587  0.00  0.00    -0.011 A 
ATOM     17  C   LIG A   1      -8.613   0.408 125.645  0.00  0.00    +0.056 A 
BRANCH   9  19
ATOM     18  C   LIG A   1      -8.408   1.833 128.058  0.00  0.00    +0.277 C 
ATOM     19  O   LIG A   1      -8.749   2.426 126.809  0.00  0.00    -0.491 OA
ENDBRANCH   9  19
ENDBRANCH   1  16
BRANCH   5  20
ATOM     20  C   LIG A   1      -6.405  -2.611 128.606  0.00  0.00    -0.011 A 
ATOM     21  C   LIG A   1      -5.064  -2.904 128.866  0.00  0.00    +0.056 A 
ATOM     22  C   LIG A   1      -4.627  -3.277 130.148  0.00  0.00    +0.166 A 
ATOM     23  C   LIG A   1      -5.544  -3.326 131.216  0.00  0.00    +0.203 A 
ATOM     24  C   LIG A   1      -6.893  -2.992 130.980  0.00  0.00    +0.166 A 
ATOM     25  C   LIG A   1      -7.307  -2.655 129.681  0.00  0.00    +0.056 A 
BRANCH  22  26
ATOM     26  O   LIG A   1      -3.280  -3.549 130.164  0.00  0.00    -0.491 OA
ATOM     27  C   LIG A   1      -2.646  -3.904 128.944  0.00  0.00    +0.277 C 
ENDBRANCH  22  26
BRANCH  23  28
ATOM     28  O   LIG A   1      -5.028  -3.579 132.460  0.00  0.00    -0.488 OA
ATOM     29  C   LIG A   1      -4.903  -4.915 132.922  0.00  0.00    +0.277 C 
ENDBRANCH  23  28
BRANCH  24  30
ATOM     30  O   LIG A   1      -7.731  -2.969 132.065  0.00  0.00    -0.491 OA
ATOM     31  C   LIG A   1      -7.847  -1.762 132.805  0.00  0.00    +0.277 C 
ENDBRANCH  24  30
ENDBRANCH   5  20
TORSDOF 6
ENDMDL
MODEL 5
REMARK VINA RESULT:      -7.2      2.098      3.083
REMARK  Name = NuBBE_35
REMARK  10 active torsions:
REMARK  status: ('A' for Active; 'I' for Inactive)
REMARK    1  A    between atoms: C_1  and  O_2
REMARK    2  A    between atoms: O_2  and  C_3
REMARK    3  A    between atoms: C_10  and  C_11
REMARK    4  A    between atoms: C_17  and  C_19
REMARK    5  A    between atoms: C_21  and  O_22
REMARK    6  A    between atoms: O_22  and  C_23
REMARK    7  A    between atoms: C_24  and  O_25
REMARK    8  A    between atoms: O_25  and  C_26
REMARK    9  A    between atoms: C_27  and  O_28
REMARK   10  A    between atoms: O_28  and  C_29
REMARK                            x       y       z     vdW  Elec       q    Type
REMARK                         _______ _______ _______ _____ _____    ______ ____
ROOT
ATOM      1  C   LIG A   1      -6.238   4.537 129.744  0.00  0.00    +0.154 C 
ATOM      2  C   LIG A   1      -5.921   3.035 129.745  0.00  0.00    +0.056 C 
ATOM      3  C   LIG A   1      -6.737   2.084 130.586  0.00  0.00    +0.167 C 
ATOM      4  O   LIG A   1      -7.907   1.746 129.832  0.00  0.00    -0.371 OA
ATOM      5  C   LIG A   1      -7.693   2.111 128.454  0.00  0.00    +0.154 C 
ATOM      6  C   LIG A   1      -6.244   2.592 128.344  0.00  0.00    +0.056 C 
ATOM      7  C   LIG A   1      -6.044   3.830 127.503  0.00  0.00    +0.167 C 
ATOM      8  O   LIG A   1      -6.070   4.968 128.373  0.00  0.00    -0.371 OA
ENDROOT
BRANCH   1  16
ATOM      9  C   LIG A   1      -8.993   5.875 132.100  0.00  0.00    +0.166 A 
ATOM     10  C   LIG A   1     -10.046   5.950 131.192  0.00  0.00    +0.207 A 
ATOM     11  O   LIG A   1     -11.318   6.339 131.443  0.00  0.00    -0.449 OA
ATOM     12  C   LIG A   1     -11.935   6.177 130.142  0.00  0.00    +0.467 C 
ATOM     13  O   LIG A   1     -11.026   5.684 129.144  0.00  0.00    -0.453 OA
ATOM     14  C   LIG A   1      -9.869   5.574 129.881  0.00  0.00    +0.170 A 
ATOM     15  C   LIG A   1      -8.668   5.127 129.378  0.00  0.00    +0.056 A 
ATOM     16  C   LIG A   1      -7.576   5.029 130.261  0.00  0.00    -0.011 A 
ATOM     17  C   LIG A   1      -7.783   5.373 131.617  0.00  0.00    +0.056 A 
BRANCH   9  19
ATOM     18  C   LIG A   1      -7.997   5.618 134.225  0.00  0.00    +0.277 C 
ATOM     19  O   LIG A   1      -9.012   6.206 133.418  0.00  0.00    -0.491 OA
ENDBRANCH   9  19
ENDBRANCH   1  16
BRANCH   5  20
ATOM     20  C   LIG A   1      -8.115   0.961 127.566  0.00  0.00    -0.011 A 
ATOM     21  C   LIG A   1      -7.761  -0.368 127.812  0.00  0.00    +0.056 A 
ATOM     22  C   LIG A   1      -8.186  -1.410 126.971  0.00  0.00    +0.166 A 
ATOM     23  C   LIG A   1      -9.018  -1.130 125.870  0.00  0.00    +0.203 A 
ATOM     24  C   LIG A   1      -9.420   0.200 125.633  0.00  0.00    +0.166 A 
ATOM     25  C   LIG A   1      -8.953   1.226 126.471  0.00  0.00    +0.056 A 
BRANCH  22  26
ATOM     26  O   LIG A   1      -7.695  -2.626 127.385  0.00  0.00    -0.491 OA
ATOM     27  C   LIG A   1      -7.414  -2.809 128.765  0.00  0.00    +0.277 C 
ENDBRANCH  22  26
BRANCH  23  28
ATOM     28  O   LIG A   1      -9.492  -2.206 125.166  0.00  0.00    -0.488 OA
ATOM     29  C   LIG A   1      -8.787  -2.680 124.030  0.00  0.00    +0.277 C 
ENDBRANCH  23  28
BRANCH  24  30
ATOM     30  O   LIG A   1     -10.300   0.415 124.603  0.00  0.00    -0.491 OA
ATOM     31  C   LIG A   1     -10.043   1.485 123.705  0.00  0.00    +0.277 C 
ENDBRANCH  24  30
ENDBRANCH   5  20
TORSDOF 6
ENDMDL
MODEL 6
REMARK VINA RESULT:      -7.1      1.570      1.986
REMARK  Name = NuBBE_35
REMARK  10 active torsions:
REMARK  status: ('A' for Active; 'I' for Inactive)
REMARK    1  A    between atoms: C_1  and  O_2
REMARK    2  A    between atoms: O_2  and  C_3
REMARK    3  A    between atoms: C_10  and  C_11
REMARK    4  A    between atoms: C_17  and  C_19
REMARK    5  A    between atoms: C_21  and  O_22
REMARK    6  A    between atoms: O_22  and  C_23
REMARK    7  A    between atoms: C_24  and  O_25
REMARK    8  A    between atoms: O_25  and  C_26
REMARK    9  A    between atoms: C_27  and  O_28
REMARK   10  A    between atoms: O_28  and  C_29
REMARK                            x       y       z     vdW  Elec       q    Type
REMARK                         _______ _______ _______ _____ _____    ______ ____
ROOT
ATOM      1  C   LIG A   1      -7.827   5.431 131.017  0.00  0.00    +0.154 C 
ATOM      2  C   LIG A   1      -7.624   3.948 131.356  0.00  0.00    +0.056 C 
ATOM      3  C   LIG A   1      -8.814   3.058 131.625  0.00  0.00    +0.167 C 
ATOM      4  O   LIG A   1      -9.305   2.609 130.356  0.00  0.00    -0.371 OA
ATOM      5  C   LIG A   1      -8.292   2.844 129.357  0.00  0.00    +0.154 C 
ATOM      6  C   LIG A   1      -7.054   3.359 130.094  0.00  0.00    +0.056 C 
ATOM      7  C   LIG A   1      -6.347   4.514 129.427  0.00  0.00    +0.167 C 
ATOM      8  O   LIG A   1      -6.854   5.730 129.989  0.00  0.00    -0.371 OA
ENDROOT
BRANCH   1  16
ATOM      9  C   LIG A   1     -10.778   6.548 128.785  0.00  0.00    +0.166 A 
ATOM     10  C   LIG A   1     -11.713   6.830 129.778  0.00  0.00    +0.207 A 
ATOM     11  O   LIG A   1     -12.971   7.300 129.608  0.00  0.00    -0.449 OA
ATOM     12  C   LIG A   1     -13.426   7.419 130.977  0.00  0.00    +0.467 C 
ATOM     13  O   LIG A   1     -12.429   7.031 131.939  0.00  0.00    -0.453 OA
ATOM     14  C   LIG A   1     -11.394   6.673 131.107  0.00  0.00    +0.170 A 
ATOM     15  C   LIG A   1     -10.170   6.220 131.542  0.00  0.00    +0.056 A 
ATOM     16  C   LIG A   1      -9.190   5.928 130.574  0.00  0.00    -0.011 A 
ATOM     17  C   LIG A   1      -9.513   6.138 129.215  0.00  0.00    +0.056 A 
BRANCH   9  19
ATOM     18  C   LIG A   1     -11.082   7.976 126.930  0.00  0.00    +0.277 C 
ATOM     19  O   LIG A   1     -10.940   6.654 127.441  0.00  0.00    -0.491 OA
ENDBRANCH   9  19
ENDBRANCH   1  16
BRANCH   5  20
ATOM     20  C   LIG A   1      -8.133   1.600 128.512  0.00  0.00    -0.011 A 
ATOM     21  C   LIG A   1      -7.723   0.369 129.028  0.00  0.00    +0.056 A 
ATOM     22  C   LIG A   1      -7.602  -0.769 128.213  0.00  0.00    +0.166 A 
ATOM     23  C   LIG A   1      -7.932  -0.692 126.846  0.00  0.00    +0.203 A 
ATOM     24  C   LIG A   1      -8.389   0.533 126.317  0.00  0.00    +0.166 A 
ATOM     25  C   LIG A   1      -8.469   1.661 127.150  0.00  0.00    +0.056 A 
BRANCH  22  26
ATOM     26  O   LIG A   1      -7.155  -1.857 128.924  0.00  0.00    -0.491 OA
ATOM     27  C   LIG A   1      -8.107  -2.644 129.627  0.00  0.00    +0.277 C 
ENDBRANCH  22  26
BRANCH  23  28
ATOM     28  O   LIG A   1      -7.907  -1.865 126.138  0.00  0.00    -0.488 OA
ATOM     29  C   LIG A   1      -6.734  -2.250 125.440  0.00  0.00    +0.277 C 
ENDBRANCH  23  28
BRANCH  24  30
ATOM     30  O   LIG A   1      -8.782   0.541 125.003  0.00  0.00    -0.491 OA
ATOM     31  C   LIG A   1      -9.858   1.385 124.624  0.00  0.00    +0.277 C 
ENDBRANCH  24  30
ENDBRANCH   5  20
TORSDOF 6
ENDMDL
MODEL 7
REMARK VINA RESULT:      -7.0      1.991      7.887
REMARK  Name = NuBBE_35
REMARK  10 active torsions:
REMARK  status: ('A' for Active; 'I' for Inactive)
REMARK    1  A    between atoms: C_1  and  O_2
REMARK    2  A    between atoms: O_2  and  C_3
REMARK    3  A    between atoms: C_10  and  C_11
REMARK    4  A    between atoms: C_17  and  C_19
REMARK    5  A    between atoms: C_21  and  O_22
REMARK    6  A    between atoms: O_22  and  C_23
REMARK    7  A    between atoms: C_24  and  O_25
REMARK    8  A    between atoms: O_25  and  C_26
REMARK    9  A    between atoms: C_27  and  O_28
REMARK   10  A    between atoms: O_28  and  C_29
REMARK                            x       y       z     vdW  Elec       q    Type
REMARK                         _______ _______ _______ _____ _____    ______ ____
ROOT
ATOM      1  C   LIG A   1      -5.965   1.571 125.434  0.00  0.00    +0.154 C 
ATOM      2  C   LIG A   1      -6.447   3.003 125.706  0.00  0.00    +0.056 C 
ATOM      3  C   LIG A   1      -7.877   3.393 125.419  0.00  0.00    +0.167 C 
ATOM      4  O   LIG A   1      -8.660   3.008 126.556  0.00  0.00    -0.371 OA
ATOM      5  C   LIG A   1      -7.774   2.759 127.666  0.00  0.00    +0.154 C 
ATOM      6  C   LIG A   1      -6.366   3.137 127.203  0.00  0.00    +0.056 C 
ATOM      7  C   LIG A   1      -5.278   2.172 127.608  0.00  0.00    +0.167 C 
ATOM      8  O   LIG A   1      -5.087   1.241 126.536  0.00  0.00    -0.371 OA
ENDROOT
BRANCH   1  16
ATOM      9  C   LIG A   1      -8.706  -0.679 123.898  0.00  0.00    +0.166 A 
ATOM     10  C   LIG A   1      -8.816  -1.622 124.916  0.00  0.00    +0.207 A 
ATOM     11  O   LIG A   1      -9.660  -2.680 124.965  0.00  0.00    -0.449 OA
ATOM     12  C   LIG A   1      -9.334  -3.253 126.255  0.00  0.00    +0.467 C 
ATOM     13  O   LIG A   1      -8.315  -2.522 126.956  0.00  0.00    -0.453 OA
ATOM     14  C   LIG A   1      -8.044  -1.523 126.050  0.00  0.00    +0.170 A 
ATOM     15  C   LIG A   1      -7.116  -0.526 126.248  0.00  0.00    +0.056 A 
ATOM     16  C   LIG A   1      -6.974   0.454 125.248  0.00  0.00    -0.011 A 
ATOM     17  C   LIG A   1      -7.808   0.369 124.109  0.00  0.00    +0.056 A 
BRANCH   9  19
ATOM     18  C   LIG A   1     -10.187   0.524 122.507  0.00  0.00    +0.277 C 
ATOM     19  O   LIG A   1      -9.396  -0.640 122.728  0.00  0.00    -0.491 OA
ENDBRANCH   9  19
ENDBRANCH   1  16
BRANCH   5  20
ATOM     20  C   LIG A   1      -8.315   3.454 128.895  0.00  0.00    -0.011 A 
ATOM     21  C   LIG A   1      -8.672   2.779 130.065  0.00  0.00    +0.056 A 
ATOM     22  C   LIG A   1      -9.156   3.463 131.192  0.00  0.00    +0.166 A 
ATOM     23  C   LIG A   1      -9.256   4.868 131.172  0.00  0.00    +0.203 A 
ATOM     24  C   LIG A   1      -8.859   5.569 130.014  0.00  0.00    +0.166 A 
ATOM     25  C   LIG A   1      -8.410   4.856 128.891  0.00  0.00    +0.056 A 
BRANCH  22  26
ATOM     26  O   LIG A   1      -9.473   2.598 132.212  0.00  0.00    -0.491 OA
ATOM     27  C   LIG A   1      -9.508   1.206 131.932  0.00  0.00    +0.277 C 
ENDBRANCH  22  26
BRANCH  23  28
ATOM     28  O   LIG A   1      -9.620   5.477 132.344  0.00  0.00    -0.488 OA
ATOM     29  C   LIG A   1      -8.648   5.733 133.345  0.00  0.00    +0.277 C 
ENDBRANCH  23  28
BRANCH  24  30
ATOM     30  O   LIG A   1      -8.891   6.939 130.070  0.00  0.00    -0.491 OA
ATOM     31  C   LIG A   1     -10.030   7.610 129.550  0.00  0.00    +0.277 C 
ENDBRANCH  24  30
ENDBRANCH   5  20
TORSDOF 6
ENDMDL
MODEL 8
REMARK VINA RESULT:      -7.0      1.719      3.495
REMARK  Name = NuBBE_35
REMARK  10 active torsions:
REMARK  status: ('A' for Active; 'I' for Inactive)
REMARK    1  A    between atoms: C_1  and  O_2
REMARK    2  A    between atoms: O_2  and  C_3
REMARK    3  A    between atoms: C_10  and  C_11
REMARK    4  A    between atoms: C_17  and  C_19
REMARK    5  A    between atoms: C_21  and  O_22
REMARK    6  A    between atoms: O_22  and  C_23
REMARK    7  A    between atoms: C_24  and  O_25
REMARK    8  A    between atoms: O_25  and  C_26
REMARK    9  A    between atoms: C_27  and  O_28
REMARK   10  A    between atoms: O_28  and  C_29
REMARK                            x       y       z     vdW  Elec       q    Type
REMARK                         _______ _______ _______ _____ _____    ______ ____
ROOT
ATOM      1  C   LIG A   1      -8.473   5.510 131.048  0.00  0.00    +0.154 C 
ATOM      2  C   LIG A   1      -8.674   4.031 131.406  0.00  0.00    +0.056 C 
ATOM      3  C   LIG A   1     -10.007   3.363 131.165  0.00  0.00    +0.167 C 
ATOM      4  O   LIG A   1     -10.030   2.942 129.796  0.00  0.00    -0.371 OA
ATOM      5  C   LIG A   1      -8.683   2.960 129.282  0.00  0.00    +0.154 C 
ATOM      6  C   LIG A   1      -7.764   3.297 130.459  0.00  0.00    +0.056 C 
ATOM      7  C   LIG A   1      -6.667   4.287 130.149  0.00  0.00    +0.167 C 
ATOM      8  O   LIG A   1      -7.139   5.596 130.493  0.00  0.00    -0.371 OA
ENDROOT
BRANCH   1  16
ATOM      9  C   LIG A   1     -11.447   7.607 129.747  0.00  0.00    +0.166 A 
ATOM     10  C   LIG A   1     -11.221   7.488 128.378  0.00  0.00    +0.207 A 
ATOM     11  O   LIG A   1     -11.972   8.004 127.377  0.00  0.00    -0.449 OA
ATOM     12  C   LIG A   1     -11.267   7.524 126.206  0.00  0.00    +0.467 C 
ATOM     13  O   LIG A   1     -10.119   6.721 126.529  0.00  0.00    -0.453 OA
ATOM     14  C   LIG A   1     -10.161   6.753 127.903  0.00  0.00    +0.170 A 
ATOM     15  C   LIG A   1      -9.256   6.115 128.723  0.00  0.00    +0.056 A 
ATOM     16  C   LIG A   1      -9.447   6.203 130.114  0.00  0.00    -0.011 A 
ATOM     17  C   LIG A   1     -10.568   6.922 130.589  0.00  0.00    +0.056 A 
BRANCH   9  19
ATOM     18  C   LIG A   1     -13.061   7.637 131.469  0.00  0.00    +0.277 C 
ATOM     19  O   LIG A   1     -12.444   8.291 130.365  0.00  0.00    -0.491 OA
ENDBRANCH   9  19
ENDBRANCH   1  16
BRANCH   5  20
ATOM     20  C   LIG A   1      -8.419   1.668 128.541  0.00  0.00    -0.011 A 
ATOM     21  C   LIG A   1      -8.632   1.513 127.169  0.00  0.00    +0.056 A 
ATOM     22  C   LIG A   1      -8.360   0.300 126.514  0.00  0.00    +0.166 A 
ATOM     23  C   LIG A   1      -7.827  -0.785 127.236  0.00  0.00    +0.203 A 
ATOM     24  C   LIG A   1      -7.567  -0.632 128.614  0.00  0.00    +0.166 A 
ATOM     25  C   LIG A   1      -7.879   0.581 129.248  0.00  0.00    +0.056 A 
BRANCH  22  26
ATOM     26  O   LIG A   1      -8.673   0.366 125.177  0.00  0.00    -0.491 OA
ATOM     27  C   LIG A   1      -9.706   1.249 124.766  0.00  0.00    +0.277 C 
ENDBRANCH  22  26
BRANCH  23  28
ATOM     28  O   LIG A   1      -7.474  -1.894 126.513  0.00  0.00    -0.488 OA
ATOM     29  C   LIG A   1      -6.188  -1.978 125.921  0.00  0.00    +0.277 C 
ENDBRANCH  23  28
BRANCH  24  30
ATOM     30  O   LIG A   1      -6.967  -1.683 129.258  0.00  0.00    -0.491 OA
ATOM     31  C   LIG A   1      -7.792  -2.627 129.925  0.00  0.00    +0.277 C 
ENDBRANCH  24  30
ENDBRANCH   5  20
TORSDOF 6
ENDMDL
MODEL 9
REMARK VINA RESULT:      -6.8      3.729      5.407
REMARK  Name = NuBBE_35
REMARK  10 active torsions:
REMARK  status: ('A' for Active; 'I' for Inactive)
REMARK    1  A    between atoms: C_1  and  O_2
REMARK    2  A    between atoms: O_2  and  C_3
REMARK    3  A    between atoms: C_10  and  C_11
REMARK    4  A    between atoms: C_17  and  C_19
REMARK    5  A    between atoms: C_21  and  O_22
REMARK    6  A    between atoms: O_22  and  C_23
REMARK    7  A    between atoms: C_24  and  O_25
REMARK    8  A    between atoms: O_25  and  C_26
REMARK    9  A    between atoms: C_27  and  O_28
REMARK   10  A    between atoms: O_28  and  C_29
REMARK                            x       y       z     vdW  Elec       q    Type
REMARK                         _______ _______ _______ _____ _____    ______ ____
ROOT
ATOM      1  C   LIG A   1      -6.652   2.598 131.017  0.00  0.00    +0.154 C 
ATOM      2  C   LIG A   1      -8.043   2.284 130.452  0.00  0.00    +0.056 C 
ATOM      3  C   LIG A   1      -8.575   3.052 129.266  0.00  0.00    +0.167 C 
ATOM      4  O   LIG A   1      -8.053   2.430 128.086  0.00  0.00    -0.371 OA
ATOM      5  C   LIG A   1      -7.553   1.123 128.434  0.00  0.00    +0.154 C 
ATOM      6  C   LIG A   1      -7.909   0.889 129.904  0.00  0.00    +0.056 C 
ATOM      7  C   LIG A   1      -6.815   0.263 130.735  0.00  0.00    +0.167 C 
ATOM      8  O   LIG A   1      -6.075   1.317 131.363  0.00  0.00    -0.371 OA
ENDROOT
BRANCH   1  16
ATOM      9  C   LIG A   1      -4.725   5.542 129.419  0.00  0.00    +0.166 A 
ATOM     10  C   LIG A   1      -3.802   4.821 128.665  0.00  0.00    +0.207 A 
ATOM     11  O   LIG A   1      -2.847   5.318 127.845  0.00  0.00    -0.449 OA
ATOM     12  C   LIG A   1      -2.243   4.106 127.331  0.00  0.00    +0.467 C 
ATOM     13  O   LIG A   1      -2.856   2.910 127.842  0.00  0.00    -0.453 OA
ATOM     14  C   LIG A   1      -3.815   3.445 128.670  0.00  0.00    +0.170 A 
ATOM     15  C   LIG A   1      -4.701   2.700 129.415  0.00  0.00    +0.056 A 
ATOM     16  C   LIG A   1      -5.656   3.386 130.188  0.00  0.00    -0.011 A 
ATOM     17  C   LIG A   1      -5.664   4.799 130.137  0.00  0.00    +0.056 A 
BRANCH   9  19
ATOM     18  C   LIG A   1      -4.018   7.522 130.494  0.00  0.00    +0.277 C 
ATOM     19  O   LIG A   1      -4.839   6.892 129.515  0.00  0.00    -0.491 OA
ENDBRANCH   9  19
ENDBRANCH   1  16
BRANCH   5  20
ATOM     20  C   LIG A   1      -8.059   0.115 127.425  0.00  0.00    -0.011 A 
ATOM     21  C   LIG A   1      -8.037  -1.264 127.642  0.00  0.00    +0.056 A 
ATOM     22  C   LIG A   1      -8.531  -2.168 126.686  0.00  0.00    +0.166 A 
ATOM     23  C   LIG A   1      -9.097  -1.685 125.490  0.00  0.00    +0.203 A 
ATOM     24  C   LIG A   1      -9.166  -0.293 125.274  0.00  0.00    +0.166 A 
ATOM     25  C   LIG A   1      -8.634   0.584 126.233  0.00  0.00    +0.056 A 
BRANCH  22  26
ATOM     26  O   LIG A   1      -8.380  -3.471 127.096  0.00  0.00    -0.491 OA
ATOM     27  C   LIG A   1      -8.427  -3.753 128.487  0.00  0.00    +0.277 C 
ENDBRANCH  22  26
BRANCH  23  28
ATOM     28  O   LIG A   1      -9.667  -2.614 124.659  0.00  0.00    -0.488 OA
ATOM     29  C   LIG A   1      -8.900  -3.209 123.624  0.00  0.00    +0.277 C 
ENDBRANCH  23  28
BRANCH  24  30
ATOM     30  O   LIG A   1      -9.803   0.133 124.137  0.00  0.00    -0.491 OA
ATOM     31  C   LIG A   1     -10.165   1.503 124.039  0.00  0.00    +0.277 C 
ENDBRANCH  24  30
ENDBRANCH   5  20
TORSDOF 6
ENDMDL
