MODEL 1
REMARK VINA RESULT:      -7.4      0.000      0.000
REMARK  Name = NuBBE_910
REMARK  9 active torsions:
REMARK  status: ('A' for Active; 'I' for Inactive)
REMARK    1  A    between atoms: C_1  and  C_2
REMARK    2  A    between atoms: C_1  and  C_12
REMARK    3  A    between atoms: C_2  and  O_3
REMARK    4  A    between atoms: N_6  and  C_7
REMARK    5  A    between atoms: C_15  and  O_18
REMARK    6  A    between atoms: O_18  and  C_19
REMARK    7  A    between atoms: C_19  and  C_20
REMARK    8  A    between atoms: C_21  and  C_22
REMARK    9  A    between atoms: C_21  and  C_23
REMARK                            x       y       z     vdW  Elec       q    Type
REMARK                         _______ _______ _______ _____ _____    ______ ____
ROOT
ATOM      1  C   LIG A   1     -10.857   4.058 130.461  0.00  0.00    +0.100 C 
ENDROOT
BRANCH   1   2
ATOM      2  C   LIG A   1     -10.270   5.445 130.843  0.00  0.00    +0.215 C 
ATOM      3  C   LIG A   1      -9.863   6.163 129.511  0.00  0.00    +0.267 C 
ATOM      4  O   LIG A   1      -8.773   5.937 128.987  0.00  0.00    -0.271 OA
ATOM      5  N   LIG A   1     -10.846   6.969 128.935  0.00  0.00    -0.292 N 
ATOM      6  C   LIG A   1     -10.648   7.489 127.596  0.00  0.00    +0.133 C 
ATOM      7  C   LIG A   1     -12.210   6.966 129.467  0.00  0.00    +0.203 C 
ATOM      8  C   LIG A   1     -12.272   6.836 130.995  0.00  0.00    +0.233 C 
ATOM      9  O   LIG A   1     -13.267   7.122 131.644  0.00  0.00    -0.274 OA
ATOM     10  N   LIG A   1     -11.165   6.287 131.587  0.00  0.00    -0.279 N 
ATOM     11  H   LIG A   1     -11.212   6.134 132.584  0.00  0.00    +0.152 HD
BRANCH   2  12
ATOM     12  O   LIG A   1      -9.125   5.305 131.670  0.00  0.00    -0.364 OA
ATOM     13  H   LIG A   1      -8.648   6.156 131.612  0.00  0.00    +0.212 HD
ENDBRANCH   2  12
ENDBRANCH   1   2
BRANCH   1  14
ATOM     14  C   LIG A   1      -9.953   2.852 130.624  0.00  0.00    -0.042 A 
ATOM     15  C   LIG A   1     -10.066   2.018 131.748  0.00  0.00    +0.007 A 
ATOM     16  C   LIG A   1      -9.282   0.863 131.870  0.00  0.00    +0.046 A 
ATOM     17  C   LIG A   1      -8.400   0.509 130.851  0.00  0.00    +0.121 A 
ATOM     18  C   LIG A   1      -8.264   1.343 129.744  0.00  0.00    +0.046 A 
ATOM     19  C   LIG A   1      -9.036   2.501 129.626  0.00  0.00    +0.007 A 
BRANCH  17  20
ATOM     20  O   LIG A   1      -7.607  -0.602 130.833  0.00  0.00    -0.488 OA
BRANCH  20  21
ATOM     21  C   LIG A   1      -7.162  -1.040 129.549  0.00  0.00    +0.256 C 
BRANCH  21  22
ATOM     22  C   LIG A   1      -7.876  -2.329 129.258  0.00  0.00    +0.012 C 
ATOM     23  C   LIG A   1      -8.318  -2.805 128.077  0.00  0.00    -0.076 C 
ATOM     24  C   LIG A   1      -8.192  -2.098 126.757  0.00  0.00    +0.038 C 
ATOM     25  C   LIG A   1      -9.003  -4.145 128.002  0.00  0.00    +0.038 C 
ENDBRANCH  21  22
ENDBRANCH  20  21
ENDBRANCH  17  20
ENDBRANCH   1  14
TORSDOF 6
ENDMDL
MODEL 2
REMARK VINA RESULT:      -7.2      5.609      8.272
REMARK  Name = NuBBE_910
REMARK  9 active torsions:
REMARK  status: ('A' for Active; 'I' for Inactive)
REMARK    1  A    between atoms: C_1  and  C_2
REMARK    2  A    between atoms: C_1  and  C_12
REMARK    3  A    between atoms: C_2  and  O_3
REMARK    4  A    between atoms: N_6  and  C_7
REMARK    5  A    between atoms: C_15  and  O_18
REMARK    6  A    between atoms: O_18  and  C_19
REMARK    7  A    between atoms: C_19  and  C_20
REMARK    8  A    between atoms: C_21  and  C_22
REMARK    9  A    between atoms: C_21  and  C_23
REMARK                            x       y       z     vdW  Elec       q    Type
REMARK                         _______ _______ _______ _____ _____    ______ ____
ROOT
ATOM      1  C   LIG A   1      -5.273   6.197 131.748  0.00  0.00    +0.100 C 
ENDROOT
BRANCH   1   2
ATOM      2  C   LIG A   1      -4.620   5.022 130.971  0.00  0.00    +0.215 C 
ATOM      3  C   LIG A   1      -4.187   5.574 129.568  0.00  0.00    +0.267 C 
ATOM      4  O   LIG A   1      -4.995   5.631 128.643  0.00  0.00    -0.271 OA
ATOM      5  N   LIG A   1      -2.886   6.074 129.492  0.00  0.00    -0.292 N 
ATOM      6  C   LIG A   1      -2.472   6.808 128.313  0.00  0.00    +0.133 C 
ATOM      7  C   LIG A   1      -2.082   6.229 130.706  0.00  0.00    +0.203 C 
ATOM      8  C   LIG A   1      -2.302   5.112 131.736  0.00  0.00    +0.233 C 
ATOM      9  O   LIG A   1      -1.521   4.890 132.648  0.00  0.00    -0.274 OA
ATOM     10  N   LIG A   1      -3.486   4.431 131.623  0.00  0.00    -0.279 N 
ATOM     11  H   LIG A   1      -3.678   3.736 132.330  0.00  0.00    +0.152 HD
BRANCH   2  12
ATOM     12  O   LIG A   1      -5.539   3.956 130.791  0.00  0.00    -0.364 OA
ATOM     13  H   LIG A   1      -5.553   3.774 129.831  0.00  0.00    +0.212 HD
ENDBRANCH   2  12
ENDBRANCH   1   2
BRANCH   1  14
ATOM     14  C   LIG A   1      -6.785   6.197 131.869  0.00  0.00    -0.042 A 
ATOM     15  C   LIG A   1      -7.411   5.716 133.030  0.00  0.00    +0.007 A 
ATOM     16  C   LIG A   1      -8.803   5.777 133.177  0.00  0.00    +0.046 A 
ATOM     17  C   LIG A   1      -9.583   6.354 132.177  0.00  0.00    +0.121 A 
ATOM     18  C   LIG A   1      -8.973   6.812 131.011  0.00  0.00    +0.046 A 
ATOM     19  C   LIG A   1      -7.587   6.741 130.859  0.00  0.00    +0.007 A 
BRANCH  17  20
ATOM     20  O   LIG A   1     -10.940   6.504 132.210  0.00  0.00    -0.488 OA
BRANCH  20  21
ATOM     21  C   LIG A   1     -11.627   6.311 130.975  0.00  0.00    +0.256 C 
BRANCH  21  22
ATOM     22  C   LIG A   1     -12.354   7.591 130.677  0.00  0.00    +0.012 C 
ATOM     23  C   LIG A   1     -12.181   8.445 129.649  0.00  0.00    -0.076 C 
ATOM     24  C   LIG A   1     -11.167   8.284 128.552  0.00  0.00    +0.038 C 
ATOM     25  C   LIG A   1     -13.038   9.679 129.527  0.00  0.00    +0.038 C 
ENDBRANCH  21  22
ENDBRANCH  20  21
ENDBRANCH  17  20
ENDBRANCH   1  14
TORSDOF 6
ENDMDL
MODEL 3
REMARK VINA RESULT:      -7.2      4.381      5.577
REMARK  Name = NuBBE_910
REMARK  9 active torsions:
REMARK  status: ('A' for Active; 'I' for Inactive)
REMARK    1  A    between atoms: C_1  and  C_2
REMARK    2  A    between atoms: C_1  and  C_12
REMARK    3  A    between atoms: C_2  and  O_3
REMARK    4  A    between atoms: N_6  and  C_7
REMARK    5  A    between atoms: C_15  and  O_18
REMARK    6  A    between atoms: O_18  and  C_19
REMARK    7  A    between atoms: C_19  and  C_20
REMARK    8  A    between atoms: C_21  and  C_22
REMARK    9  A    between atoms: C_21  and  C_23
REMARK                            x       y       z     vdW  Elec       q    Type
REMARK                         _______ _______ _______ _____ _____    ______ ____
ROOT
ATOM      1  C   LIG A   1      -9.857   6.764 131.604  0.00  0.00    +0.100 C 
ENDROOT
BRANCH   1   2
ATOM      2  C   LIG A   1     -11.002   6.164 130.743  0.00  0.00    +0.215 C 
ATOM      3  C   LIG A   1     -12.147   7.233 130.677  0.00  0.00    +0.267 C 
ATOM      4  O   LIG A   1     -12.978   7.314 131.580  0.00  0.00    -0.271 OA
ATOM      5  N   LIG A   1     -12.084   8.120 129.602  0.00  0.00    -0.292 N 
ATOM      6  C   LIG A   1     -12.956   9.278 129.579  0.00  0.00    +0.133 C 
ATOM      7  C   LIG A   1     -10.909   8.138 128.727  0.00  0.00    +0.203 C 
ATOM      8  C   LIG A   1     -10.311   6.748 128.474  0.00  0.00    +0.233 C 
ATOM      9  O   LIG A   1      -9.547   6.515 127.550  0.00  0.00    -0.274 OA
ATOM     10  N   LIG A   1     -10.616   5.794 129.410  0.00  0.00    -0.279 N 
ATOM     11  H   LIG A   1     -10.180   4.891 129.296  0.00  0.00    +0.152 HD
BRANCH   2  12
ATOM     12  O   LIG A   1     -11.507   4.971 131.323  0.00  0.00    -0.364 OA
ATOM     13  H   LIG A   1     -12.452   4.934 131.078  0.00  0.00    +0.212 HD
ENDBRANCH   2  12
ENDBRANCH   1   2
BRANCH   1  14
ATOM     14  C   LIG A   1      -8.483   6.136 131.469  0.00  0.00    -0.042 A 
ATOM     15  C   LIG A   1      -7.382   6.904 131.057  0.00  0.00    +0.007 A 
ATOM     16  C   LIG A   1      -6.097   6.348 130.998  0.00  0.00    +0.046 A 
ATOM     17  C   LIG A   1      -5.893   5.025 131.384  0.00  0.00    +0.121 A 
ATOM     18  C   LIG A   1      -6.983   4.249 131.770  0.00  0.00    +0.046 A 
ATOM     19  C   LIG A   1      -8.266   4.799 131.819  0.00  0.00    +0.007 A 
BRANCH  17  20
ATOM     20  O   LIG A   1      -4.692   4.376 131.403  0.00  0.00    -0.488 OA
BRANCH  20  21
ATOM     21  C   LIG A   1      -3.583   5.083 130.847  0.00  0.00    +0.256 C 
BRANCH  21  22
ATOM     22  C   LIG A   1      -3.213   4.377 129.575  0.00  0.00    +0.012 C 
ATOM     23  C   LIG A   1      -2.699   4.890 128.439  0.00  0.00    -0.076 C 
ATOM     24  C   LIG A   1      -2.397   6.343 128.206  0.00  0.00    +0.038 C 
ATOM     25  C   LIG A   1      -2.380   3.993 127.271  0.00  0.00    +0.038 C 
ENDBRANCH  21  22
ENDBRANCH  20  21
ENDBRANCH  17  20
ENDBRANCH   1  14
TORSDOF 6
ENDMDL
MODEL 4
REMARK VINA RESULT:      -6.9      6.961      8.733
REMARK  Name = NuBBE_910
REMARK  9 active torsions:
REMARK  status: ('A' for Active; 'I' for Inactive)
REMARK    1  A    between atoms: C_1  and  C_2
REMARK    2  A    between atoms: C_1  and  C_12
REMARK    3  A    between atoms: C_2  and  O_3
REMARK    4  A    between atoms: N_6  and  C_7
REMARK    5  A    between atoms: C_15  and  O_18
REMARK    6  A    between atoms: O_18  and  C_19
REMARK    7  A    between atoms: C_19  and  C_20
REMARK    8  A    between atoms: C_21  and  C_22
REMARK    9  A    between atoms: C_21  and  C_23
REMARK                            x       y       z     vdW  Elec       q    Type
REMARK                         _______ _______ _______ _____ _____    ______ ____
ROOT
ATOM      1  C   LIG A   1      -7.376  -3.019 130.660  0.00  0.00    +0.100 C 
ENDROOT
BRANCH   1   2
ATOM      2  C   LIG A   1      -5.883  -3.404 130.847  0.00  0.00    +0.215 C 
ATOM      3  C   LIG A   1      -5.139  -2.137 131.395  0.00  0.00    +0.267 C 
ATOM      4  O   LIG A   1      -4.733  -1.270 130.623  0.00  0.00    -0.271 OA
ATOM      5  N   LIG A   1      -5.070  -2.031 132.784  0.00  0.00    -0.292 N 
ATOM      6  C   LIG A   1      -4.608  -0.794 133.383  0.00  0.00    +0.133 C 
ATOM      7  C   LIG A   1      -5.819  -2.959 133.634  0.00  0.00    +0.203 C 
ATOM      8  C   LIG A   1      -5.873  -4.390 133.082  0.00  0.00    +0.233 C 
ATOM      9  O   LIG A   1      -6.168  -5.354 133.771  0.00  0.00    -0.274 OA
ATOM     10  N   LIG A   1      -5.659  -4.511 131.734  0.00  0.00    -0.279 N 
ATOM     11  H   LIG A   1      -5.754  -5.436 131.341  0.00  0.00    +0.152 HD
BRANCH   2  12
ATOM     12  O   LIG A   1      -5.298  -3.796 129.615  0.00  0.00    -0.364 OA
ATOM     13  H   LIG A   1      -6.010  -4.235 129.109  0.00  0.00    +0.212 HD
ENDBRANCH   2  12
ENDBRANCH   1   2
BRANCH   1  14
ATOM     14  C   LIG A   1      -7.866  -2.804 129.241  0.00  0.00    -0.042 A 
ATOM     15  C   LIG A   1      -7.509  -1.649 128.527  0.00  0.00    +0.007 A 
ATOM     16  C   LIG A   1      -7.900  -1.476 127.192  0.00  0.00    +0.046 A 
ATOM     17  C   LIG A   1      -8.624  -2.475 126.545  0.00  0.00    +0.121 A 
ATOM     18  C   LIG A   1      -9.003  -3.613 127.253  0.00  0.00    +0.046 A 
ATOM     19  C   LIG A   1      -8.624  -3.781 128.586  0.00  0.00    +0.007 A 
BRANCH  17  20
ATOM     20  O   LIG A   1      -9.037  -2.445 125.244  0.00  0.00    -0.488 OA
BRANCH  20  21
ATOM     21  C   LIG A   1      -8.696  -3.579 124.447  0.00  0.00    +0.256 C 
BRANCH  21  22
ATOM     22  C   LIG A   1      -7.196  -3.623 124.374  0.00  0.00    +0.012 C 
ATOM     23  C   LIG A   1      -6.361  -2.861 123.639  0.00  0.00    -0.076 C 
ATOM     24  C   LIG A   1      -6.787  -1.777 122.691  0.00  0.00    +0.038 C 
ATOM     25  C   LIG A   1      -4.870  -3.060 123.727  0.00  0.00    +0.038 C 
ENDBRANCH  21  22
ENDBRANCH  20  21
ENDBRANCH  17  20
ENDBRANCH   1  14
TORSDOF 6
ENDMDL
MODEL 5
REMARK VINA RESULT:      -6.8      3.226      7.485
REMARK  Name = NuBBE_910
REMARK  9 active torsions:
REMARK  status: ('A' for Active; 'I' for Inactive)
REMARK    1  A    between atoms: C_1  and  C_2
REMARK    2  A    between atoms: C_1  and  C_12
REMARK    3  A    between atoms: C_2  and  O_3
REMARK    4  A    between atoms: N_6  and  C_7
REMARK    5  A    between atoms: C_15  and  O_18
REMARK    6  A    between atoms: O_18  and  C_19
REMARK    7  A    between atoms: C_19  and  C_20
REMARK    8  A    between atoms: C_21  and  C_22
REMARK    9  A    between atoms: C_21  and  C_23
REMARK                            x       y       z     vdW  Elec       q    Type
REMARK                         _______ _______ _______ _____ _____    ______ ____
ROOT
ATOM      1  C   LIG A   1      -7.401   4.134 129.375  0.00  0.00    +0.100 C 
ENDROOT
BRANCH   1   2
ATOM      2  C   LIG A   1      -7.472   3.903 127.841  0.00  0.00    +0.215 C 
ATOM      3  C   LIG A   1      -6.011   4.019 127.284  0.00  0.00    +0.267 C 
ATOM      4  O   LIG A   1      -5.531   5.119 127.014  0.00  0.00    -0.271 OA
ATOM      5  N   LIG A   1      -5.292   2.825 127.222  0.00  0.00    -0.292 N 
ATOM      6  C   LIG A   1      -3.870   2.861 126.939  0.00  0.00    +0.133 C 
ATOM      7  C   LIG A   1      -5.833   1.604 127.823  0.00  0.00    +0.203 C 
ATOM      8  C   LIG A   1      -7.354   1.468 127.674  0.00  0.00    +0.233 C 
ATOM      9  O   LIG A   1      -7.942   0.408 127.821  0.00  0.00    -0.274 OA
ATOM     10  N   LIG A   1      -8.033   2.639 127.453  0.00  0.00    -0.279 N 
ATOM     11  H   LIG A   1      -9.040   2.579 127.416  0.00  0.00    +0.152 HD
BRANCH   2  12
ATOM     12  O   LIG A   1      -8.292   4.877 127.215  0.00  0.00    -0.364 OA
ATOM     13  H   LIG A   1      -8.529   5.517 127.914  0.00  0.00    +0.212 HD
ENDBRANCH   2  12
ENDBRANCH   1   2
BRANCH   1  14
ATOM     14  C   LIG A   1      -8.634   4.704 130.050  0.00  0.00    -0.042 A 
ATOM     15  C   LIG A   1      -8.641   6.023 130.532  0.00  0.00    +0.007 A 
ATOM     16  C   LIG A   1      -9.799   6.580 131.093  0.00  0.00    +0.046 A 
ATOM     17  C   LIG A   1     -10.974   5.833 131.145  0.00  0.00    +0.121 A 
ATOM     18  C   LIG A   1     -10.969   4.516 130.692  0.00  0.00    +0.046 A 
ATOM     19  C   LIG A   1      -9.814   3.957 130.144  0.00  0.00    +0.007 A 
BRANCH  17  20
ATOM     20  O   LIG A   1     -12.173   6.267 131.635  0.00  0.00    -0.488 OA
BRANCH  20  21
ATOM     21  C   LIG A   1     -12.650   7.511 131.126  0.00  0.00    +0.256 C 
BRANCH  21  22
ATOM     22  C   LIG A   1     -13.149   7.248 129.733  0.00  0.00    +0.012 C 
ATOM     23  C   LIG A   1     -12.638   7.664 128.557  0.00  0.00    -0.076 C 
ATOM     24  C   LIG A   1     -11.419   8.529 128.401  0.00  0.00    +0.038 C 
ATOM     25  C   LIG A   1     -13.291   7.268 127.258  0.00  0.00    +0.038 C 
ENDBRANCH  21  22
ENDBRANCH  20  21
ENDBRANCH  17  20
ENDBRANCH   1  14
TORSDOF 6
ENDMDL
MODEL 6
REMARK VINA RESULT:      -6.7      4.280      6.289
REMARK  Name = NuBBE_910
REMARK  9 active torsions:
REMARK  status: ('A' for Active; 'I' for Inactive)
REMARK    1  A    between atoms: C_1  and  C_2
REMARK    2  A    between atoms: C_1  and  C_12
REMARK    3  A    between atoms: C_2  and  O_3
REMARK    4  A    between atoms: N_6  and  C_7
REMARK    5  A    between atoms: C_15  and  O_18
REMARK    6  A    between atoms: O_18  and  C_19
REMARK    7  A    between atoms: C_19  and  C_20
REMARK    8  A    between atoms: C_21  and  C_22
REMARK    9  A    between atoms: C_21  and  C_23
REMARK                            x       y       z     vdW  Elec       q    Type
REMARK                         _______ _______ _______ _____ _____    ______ ____
ROOT
ATOM      1  C   LIG A   1      -9.739   6.647 131.613  0.00  0.00    +0.100 C 
ENDROOT
BRANCH   1   2
ATOM      2  C   LIG A   1     -10.908   6.065 130.772  0.00  0.00    +0.215 C 
ATOM      3  C   LIG A   1     -12.056   7.134 130.766  0.00  0.00    +0.267 C 
ATOM      4  O   LIG A   1     -12.860   7.191 131.694  0.00  0.00    -0.271 OA
ATOM      5  N   LIG A   1     -12.026   8.046 129.710  0.00  0.00    -0.292 N 
ATOM      6  C   LIG A   1     -12.900   9.202 129.740  0.00  0.00    +0.133 C 
ATOM      7  C   LIG A   1     -10.878   8.087 128.802  0.00  0.00    +0.203 C 
ATOM      8  C   LIG A   1     -10.285   6.704 128.498  0.00  0.00    +0.233 C 
ATOM      9  O   LIG A   1      -9.549   6.494 127.547  0.00  0.00    -0.274 OA
ATOM     10  N   LIG A   1     -10.561   5.728 129.420  0.00  0.00    -0.279 N 
ATOM     11  H   LIG A   1     -10.128   4.828 129.272  0.00  0.00    +0.152 HD
BRANCH   2  12
ATOM     12  O   LIG A   1     -11.394   4.858 131.339  0.00  0.00    -0.364 OA
ATOM     13  H   LIG A   1     -12.364   4.963 131.399  0.00  0.00    +0.212 HD
ENDBRANCH   2  12
ENDBRANCH   1   2
BRANCH   1  14
ATOM     14  C   LIG A   1      -8.364   6.043 131.403  0.00  0.00    -0.042 A 
ATOM     15  C   LIG A   1      -7.269   6.855 131.066  0.00  0.00    +0.007 A 
ATOM     16  C   LIG A   1      -5.982   6.314 130.939  0.00  0.00    +0.046 A 
ATOM     17  C   LIG A   1      -5.770   4.959 131.183  0.00  0.00    +0.121 A 
ATOM     18  C   LIG A   1      -6.855   4.142 131.493  0.00  0.00    +0.046 A 
ATOM     19  C   LIG A   1      -8.139   4.677 131.609  0.00  0.00    +0.007 A 
BRANCH  17  20
ATOM     20  O   LIG A   1      -4.567   4.317 131.125  0.00  0.00    -0.488 OA
BRANCH  20  21
ATOM     21  C   LIG A   1      -3.795   4.312 132.326  0.00  0.00    +0.256 C 
BRANCH  21  22
ATOM     22  C   LIG A   1      -2.468   4.931 131.991  0.00  0.00    +0.012 C 
ATOM     23  C   LIG A   1      -2.057   6.202 132.167  0.00  0.00    -0.076 C 
ATOM     24  C   LIG A   1      -2.892   7.309 132.746  0.00  0.00    +0.038 C 
ATOM     25  C   LIG A   1      -0.662   6.616 131.774  0.00  0.00    +0.038 C 
ENDBRANCH  21  22
ENDBRANCH  20  21
ENDBRANCH  17  20
ENDBRANCH   1  14
TORSDOF 6
ENDMDL
MODEL 7
REMARK VINA RESULT:      -6.6      1.411      1.719
REMARK  Name = NuBBE_910
REMARK  9 active torsions:
REMARK  status: ('A' for Active; 'I' for Inactive)
REMARK    1  A    between atoms: C_1  and  C_2
REMARK    2  A    between atoms: C_1  and  C_12
REMARK    3  A    between atoms: C_2  and  O_3
REMARK    4  A    between atoms: N_6  and  C_7
REMARK    5  A    between atoms: C_15  and  O_18
REMARK    6  A    between atoms: O_18  and  C_19
REMARK    7  A    between atoms: C_19  and  C_20
REMARK    8  A    between atoms: C_21  and  C_22
REMARK    9  A    between atoms: C_21  and  C_23
REMARK                            x       y       z     vdW  Elec       q    Type
REMARK                         _______ _______ _______ _____ _____    ______ ____
ROOT
ATOM      1  C   LIG A   1     -10.085   3.915 129.829  0.00  0.00    +0.100 C 
ENDROOT
BRANCH   1   2
ATOM      2  C   LIG A   1      -9.184   5.180 129.861  0.00  0.00    +0.215 C 
ATOM      3  C   LIG A   1     -10.006   6.354 129.225  0.00  0.00    +0.267 C 
ATOM      4  O   LIG A   1     -10.035   6.506 128.005  0.00  0.00    -0.271 OA
ATOM      5  N   LIG A   1     -10.756   7.119 130.118  0.00  0.00    -0.292 N 
ATOM      6  C   LIG A   1     -11.719   8.075 129.606  0.00  0.00    +0.133 C 
ATOM      7  C   LIG A   1     -10.890   6.704 131.516  0.00  0.00    +0.203 C 
ATOM      8  C   LIG A   1      -9.617   6.072 132.094  0.00  0.00    +0.233 C 
ATOM      9  O   LIG A   1      -9.423   5.952 133.294  0.00  0.00    -0.274 OA
ATOM     10  N   LIG A   1      -8.740   5.563 131.172  0.00  0.00    -0.279 N 
ATOM     11  H   LIG A   1      -7.927   5.086 131.534  0.00  0.00    +0.152 HD
BRANCH   2  12
ATOM     12  O   LIG A   1      -7.995   4.980 129.113  0.00  0.00    -0.364 OA
ATOM     13  H   LIG A   1      -7.552   5.851 129.078  0.00  0.00    +0.212 HD
ENDBRANCH   2  12
ENDBRANCH   1   2
BRANCH   1  14
ATOM     14  C   LIG A   1      -9.493   2.626 130.366  0.00  0.00    -0.042 A 
ATOM     15  C   LIG A   1      -9.986   2.050 131.548  0.00  0.00    +0.007 A 
ATOM     16  C   LIG A   1      -9.492   0.823 132.012  0.00  0.00    +0.046 A 
ATOM     17  C   LIG A   1      -8.522   0.142 131.280  0.00  0.00    +0.121 A 
ATOM     18  C   LIG A   1      -8.010   0.718 130.120  0.00  0.00    +0.046 A 
ATOM     19  C   LIG A   1      -8.493   1.945 129.662  0.00  0.00    +0.007 A 
BRANCH  17  20
ATOM     20  O   LIG A   1      -7.983  -1.070 131.604  0.00  0.00    -0.488 OA
BRANCH  20  21
ATOM     21  C   LIG A   1      -7.072  -1.630 130.659  0.00  0.00    +0.256 C 
BRANCH  21  22
ATOM     22  C   LIG A   1      -7.797  -2.748 129.967  0.00  0.00    +0.012 C 
ATOM     23  C   LIG A   1      -8.115  -2.873 128.663  0.00  0.00    -0.076 C 
ATOM     24  C   LIG A   1      -7.805  -1.862 127.596  0.00  0.00    +0.038 C 
ATOM     25  C   LIG A   1      -8.839  -4.098 128.167  0.00  0.00    +0.038 C 
ENDBRANCH  21  22
ENDBRANCH  20  21
ENDBRANCH  17  20
ENDBRANCH   1  14
TORSDOF 6
ENDMDL
MODEL 8
REMARK VINA RESULT:      -6.5      1.803      2.658
REMARK  Name = NuBBE_910
REMARK  9 active torsions:
REMARK  status: ('A' for Active; 'I' for Inactive)
REMARK    1  A    between atoms: C_1  and  C_2
REMARK    2  A    between atoms: C_1  and  C_12
REMARK    3  A    between atoms: C_2  and  O_3
REMARK    4  A    between atoms: N_6  and  C_7
REMARK    5  A    between atoms: C_15  and  O_18
REMARK    6  A    between atoms: O_18  and  C_19
REMARK    7  A    between atoms: C_19  and  C_20
REMARK    8  A    between atoms: C_21  and  C_22
REMARK    9  A    between atoms: C_21  and  C_23
REMARK                            x       y       z     vdW  Elec       q    Type
REMARK                         _______ _______ _______ _____ _____    ______ ____
ROOT
ATOM      1  C   LIG A   1     -10.627   3.683 130.428  0.00  0.00    +0.100 C 
ENDROOT
BRANCH   1   2
ATOM      2  C   LIG A   1     -10.074   5.084 130.053  0.00  0.00    +0.215 C 
ATOM      3  C   LIG A   1     -11.305   6.039 129.871  0.00  0.00    +0.267 C 
ATOM      4  O   LIG A   1     -11.909   6.081 128.801  0.00  0.00    -0.271 OA
ATOM      5  N   LIG A   1     -11.705   6.732 131.014  0.00  0.00    -0.292 N 
ATOM      6  C   LIG A   1     -12.961   7.457 131.006  0.00  0.00    +0.133 C 
ATOM      7  C   LIG A   1     -11.112   6.417 132.315  0.00  0.00    +0.203 C 
ATOM      8  C   LIG A   1      -9.618   6.070 132.241  0.00  0.00    +0.233 C 
ATOM      9  O   LIG A   1      -8.886   6.086 133.218  0.00  0.00    -0.274 OA
ATOM     10  N   LIG A   1      -9.170   5.648 131.017  0.00  0.00    -0.279 N 
ATOM     11  H   LIG A   1      -8.206   5.353 130.963  0.00  0.00    +0.152 HD
BRANCH   2  12
ATOM     12  O   LIG A   1      -9.336   5.035 128.842  0.00  0.00    -0.364 OA
ATOM     13  H   LIG A   1      -9.773   5.666 128.237  0.00  0.00    +0.212 HD
ENDBRANCH   2  12
ENDBRANCH   1   2
BRANCH   1  14
ATOM     14  C   LIG A   1      -9.616   2.581 130.683  0.00  0.00    -0.042 A 
ATOM     15  C   LIG A   1      -9.482   2.013 131.960  0.00  0.00    +0.007 A 
ATOM     16  C   LIG A   1      -8.599   0.948 132.186  0.00  0.00    +0.046 A 
ATOM     17  C   LIG A   1      -7.867   0.415 131.127  0.00  0.00    +0.121 A 
ATOM     18  C   LIG A   1      -7.975   0.989 129.863  0.00  0.00    +0.046 A 
ATOM     19  C   LIG A   1      -8.845   2.057 129.638  0.00  0.00    +0.007 A 
BRANCH  17  20
ATOM     20  O   LIG A   1      -7.001  -0.638 131.207  0.00  0.00    -0.488 OA
BRANCH  20  21
ATOM     21  C   LIG A   1      -7.244  -1.724 130.314  0.00  0.00    +0.256 C 
BRANCH  21  22
ATOM     22  C   LIG A   1      -5.917  -2.105 129.722  0.00  0.00    +0.012 C 
ATOM     23  C   LIG A   1      -5.272  -3.288 129.778  0.00  0.00    -0.076 C 
ATOM     24  C   LIG A   1      -5.771  -4.512 130.492  0.00  0.00    +0.038 C 
ATOM     25  C   LIG A   1      -3.941  -3.465 129.095  0.00  0.00    +0.038 C 
ENDBRANCH  21  22
ENDBRANCH  20  21
ENDBRANCH  17  20
ENDBRANCH   1  14
TORSDOF 6
ENDMDL
MODEL 9
REMARK VINA RESULT:      -6.4      2.025      2.456
REMARK  Name = NuBBE_910
REMARK  9 active torsions:
REMARK  status: ('A' for Active; 'I' for Inactive)
REMARK    1  A    between atoms: C_1  and  C_2
REMARK    2  A    between atoms: C_1  and  C_12
REMARK    3  A    between atoms: C_2  and  O_3
REMARK    4  A    between atoms: N_6  and  C_7
REMARK    5  A    between atoms: C_15  and  O_18
REMARK    6  A    between atoms: O_18  and  C_19
REMARK    7  A    between atoms: C_19  and  C_20
REMARK    8  A    between atoms: C_21  and  C_22
REMARK    9  A    between atoms: C_21  and  C_23
REMARK                            x       y       z     vdW  Elec       q    Type
REMARK                         _______ _______ _______ _____ _____    ______ ____
ROOT
ATOM      1  C   LIG A   1     -11.013   4.172 130.433  0.00  0.00    +0.100 C 
ENDROOT
BRANCH   1   2
ATOM      2  C   LIG A   1     -10.425   5.597 130.616  0.00  0.00    +0.215 C 
ATOM      3  C   LIG A   1     -10.255   6.220 129.187  0.00  0.00    +0.267 C 
ATOM      4  O   LIG A   1      -9.251   5.981 128.518  0.00  0.00    -0.271 OA
ATOM      5  N   LIG A   1     -11.343   6.954 128.715  0.00  0.00    -0.292 N 
ATOM      6  C   LIG A   1     -11.373   7.373 127.327  0.00  0.00    +0.133 C 
ATOM      7  C   LIG A   1     -12.608   6.959 129.453  0.00  0.00    +0.203 C 
ATOM      8  C   LIG A   1     -12.429   6.947 130.977  0.00  0.00    +0.233 C 
ATOM      9  O   LIG A   1     -13.321   7.258 131.751  0.00  0.00    -0.274 OA
ATOM     10  N   LIG A   1     -11.224   6.473 131.427  0.00  0.00    -0.279 N 
ATOM     11  H   LIG A   1     -11.111   6.397 132.427  0.00  0.00    +0.152 HD
BRANCH   2  12
ATOM     12  O   LIG A   1      -9.162   5.550 131.261  0.00  0.00    -0.364 OA
ATOM     13  H   LIG A   1      -8.938   4.602 131.341  0.00  0.00    +0.212 HD
ENDBRANCH   2  12
ENDBRANCH   1   2
BRANCH   1  14
ATOM     14  C   LIG A   1     -10.063   3.001 130.601  0.00  0.00    -0.042 A 
ATOM     15  C   LIG A   1     -10.093   2.217 131.765  0.00  0.00    +0.007 A 
ATOM     16  C   LIG A   1      -9.268   1.091 131.897  0.00  0.00    +0.046 A 
ATOM     17  C   LIG A   1      -8.427   0.718 130.850  0.00  0.00    +0.121 A 
ATOM     18  C   LIG A   1      -8.374   1.505 129.702  0.00  0.00    +0.046 A 
ATOM     19  C   LIG A   1      -9.187   2.632 129.573  0.00  0.00    +0.007 A 
BRANCH  17  20
ATOM     20  O   LIG A   1      -7.601  -0.369 130.840  0.00  0.00    -0.488 OA
BRANCH  20  21
ATOM     21  C   LIG A   1      -6.976  -0.699 132.079  0.00  0.00    +0.256 C 
BRANCH  21  22
ATOM     22  C   LIG A   1      -5.682  -1.384 131.744  0.00  0.00    +0.012 C 
ATOM     23  C   LIG A   1      -4.520  -0.843 131.325  0.00  0.00    -0.076 C 
ATOM     24  C   LIG A   1      -4.285   0.621 131.084  0.00  0.00    +0.038 C 
ATOM     25  C   LIG A   1      -3.323  -1.718 131.057  0.00  0.00    +0.038 C 
ENDBRANCH  21  22
ENDBRANCH  20  21
ENDBRANCH  17  20
ENDBRANCH   1  14
TORSDOF 6
ENDMDL
