MODEL 1
REMARK VINA RESULT:      -8.8      0.000      0.000
REMARK  Name = NuBBE_829
REMARK  5 active torsions:
REMARK  status: ('A' for Active; 'I' for Inactive)
REMARK    1  A    between atoms: C_13  and  C_14
REMARK    2  A    between atoms: C_13  and  C_15
REMARK    3  A    between atoms: C_15  and  O_16
REMARK    4  A    between atoms: O_16  and  C_17
REMARK    5  A    between atoms: C_26  and  C_28
REMARK                            x       y       z     vdW  Elec       q    Type
REMARK                         _______ _______ _______ _____ _____    ______ ____
ROOT
ATOM      1  O   LIG A   1      -9.013   3.780 125.471  0.00  0.00    -0.250 OA
ATOM      2  C   LIG A   1      -8.434   3.120 124.620  0.00  0.00    +0.315 C 
ATOM      3  C   LIG A   1      -8.905   1.779 124.176  0.00  0.00    +0.155 C 
ATOM      4  C   LIG A   1      -9.734   0.935 125.097  0.00  0.00    +0.192 C 
ATOM      5  O   LIG A   1      -9.762  -0.308 124.365  0.00  0.00    -0.460 OA
ATOM      6  C   LIG A   1      -8.613  -0.391 123.605  0.00  0.00    +0.315 C 
ATOM      7  O   LIG A   1      -8.340  -1.298 122.846  0.00  0.00    -0.250 OA
ATOM      8  C   LIG A   1      -9.109   0.705 126.473  0.00  0.00    +0.050 C 
ATOM      9  C   LIG A   1      -7.674   0.110 126.454  0.00  0.00    +0.013 C 
ATOM     10  C   LIG A   1      -7.591  -1.409 126.908  0.00  0.00    +0.068 C 
ATOM     11  C   LIG A   1      -8.640  -2.345 126.281  0.00  0.00    +0.023 C 
ATOM     12  C   LIG A   1      -6.184  -1.980 126.615  0.00  0.00    +0.018 C 
ATOM     13  C   LIG A   1      -5.719  -1.728 125.192  0.00  0.00    +0.001 C 
ATOM     14  C   LIG A   1      -5.590  -0.241 124.942  0.00  0.00    +0.005 C 
ATOM     15  C   LIG A   1      -6.881   0.559 125.177  0.00  0.00    +0.011 C 
ATOM     16  C   LIG A   1      -7.763   0.816 123.905  0.00  0.00    +0.091 C 
ATOM     17  C   LIG A   1      -7.050   1.414 122.703  0.00  0.00    +0.069 C 
ATOM     18  C   LIG A   1      -6.532   2.826 123.034  0.00  0.00    +0.211 C 
ATOM     19  O   LIG A   1      -7.378   3.607 123.927  0.00  0.00    -0.456 OA
ENDROOT
BRANCH  18  20
ATOM     20  C   LIG A   1      -6.250   3.604 121.789  0.00  0.00    +0.030 A 
ATOM     21  C   LIG A   1      -7.117   3.836 120.739  0.00  0.00    +0.202 A 
ATOM     22  O   LIG A   1      -6.525   4.589 119.779  0.00  0.00    -0.471 OA
ATOM     23  C   LIG A   1      -5.262   4.846 120.201  0.00  0.00    +0.195 A 
ATOM     24  C   LIG A   1      -5.040   4.266 121.427  0.00  0.00    +0.048 A 
ENDBRANCH  18  20
BRANCH  10  25
ATOM     25  C   LIG A   1      -7.831  -1.472 128.440  0.00  0.00    +0.313 C 
ATOM     26  O   LIG A   1      -7.686  -0.525 129.203  0.00  0.00    -0.250 OA
BRANCH  25  27
ATOM     27  O   LIG A   1      -8.266  -2.702 128.833  0.00  0.00    -0.468 OA
ATOM     28  C   LIG A   1      -7.528  -3.284 129.909  0.00  0.00    +0.280 C 
ENDBRANCH  25  27
ENDBRANCH  10  25
TORSDOF 3
ENDMDL
MODEL 2
REMARK VINA RESULT:      -8.6      1.446      2.098
REMARK  Name = NuBBE_829
REMARK  5 active torsions:
REMARK  status: ('A' for Active; 'I' for Inactive)
REMARK    1  A    between atoms: C_13  and  C_14
REMARK    2  A    between atoms: C_13  and  C_15
REMARK    3  A    between atoms: C_15  and  O_16
REMARK    4  A    between atoms: O_16  and  C_17
REMARK    5  A    between atoms: C_26  and  C_28
REMARK                            x       y       z     vdW  Elec       q    Type
REMARK                         _______ _______ _______ _____ _____    ______ ____
ROOT
ATOM      1  O   LIG A   1      -5.505   4.439 125.111  0.00  0.00    -0.250 OA
ATOM      2  C   LIG A   1      -6.119   3.965 124.165  0.00  0.00    +0.315 C 
ATOM      3  C   LIG A   1      -7.510   3.445 124.282  0.00  0.00    +0.155 C 
ATOM      4  C   LIG A   1      -8.016   2.953 125.605  0.00  0.00    +0.192 C 
ATOM      5  O   LIG A   1      -9.270   2.363 125.206  0.00  0.00    -0.460 OA
ATOM      6  C   LIG A   1      -9.156   1.942 123.897  0.00  0.00    +0.315 C 
ATOM      7  O   LIG A   1     -10.044   1.430 123.247  0.00  0.00    -0.250 OA
ATOM      8  C   LIG A   1      -7.133   1.889 126.259  0.00  0.00    +0.050 C 
ATOM      9  C   LIG A   1      -6.836   0.646 125.376  0.00  0.00    +0.013 C 
ATOM     10  C   LIG A   1      -7.597  -0.672 125.827  0.00  0.00    +0.068 C 
ATOM     11  C   LIG A   1      -9.095  -0.498 126.139  0.00  0.00    +0.023 C 
ATOM     12  C   LIG A   1      -7.442  -1.775 124.755  0.00  0.00    +0.018 C 
ATOM     13  C   LIG A   1      -7.791  -1.303 123.355  0.00  0.00    +0.001 C 
ATOM     14  C   LIG A   1      -6.838  -0.209 122.922  0.00  0.00    +0.005 C 
ATOM     15  C   LIG A   1      -6.808   1.015 123.851  0.00  0.00    +0.011 C 
ATOM     16  C   LIG A   1      -7.745   2.204 123.440  0.00  0.00    +0.091 C 
ATOM     17  C   LIG A   1      -7.615   2.697 122.008  0.00  0.00    +0.069 C 
ATOM     18  C   LIG A   1      -6.213   3.286 121.768  0.00  0.00    +0.211 C 
ATOM     19  O   LIG A   1      -5.625   3.982 122.906  0.00  0.00    -0.456 OA
ENDROOT
BRANCH  18  20
ATOM     20  C   LIG A   1      -6.196   4.172 120.564  0.00  0.00    +0.030 A 
ATOM     21  C   LIG A   1      -7.132   4.213 119.549  0.00  0.00    +0.202 A 
ATOM     22  O   LIG A   1      -6.800   5.145 118.621  0.00  0.00    -0.471 OA
ATOM     23  C   LIG A   1      -5.638   5.712 119.030  0.00  0.00    +0.195 A 
ATOM     24  C   LIG A   1      -5.223   5.154 120.215  0.00  0.00    +0.048 A 
ENDBRANCH  18  20
BRANCH  10  25
ATOM     25  C   LIG A   1      -6.949  -1.181 127.143  0.00  0.00    +0.313 C 
ATOM     26  O   LIG A   1      -5.746  -1.176 127.370  0.00  0.00    -0.250 OA
BRANCH  25  27
ATOM     27  O   LIG A   1      -7.887  -1.598 128.039  0.00  0.00    -0.468 OA
ATOM     28  C   LIG A   1      -7.612  -2.860 128.652  0.00  0.00    +0.280 C 
ENDBRANCH  25  27
ENDBRANCH  10  25
TORSDOF 3
ENDMDL
MODEL 3
REMARK VINA RESULT:      -8.1      1.903      7.184
REMARK  Name = NuBBE_829
REMARK  5 active torsions:
REMARK  status: ('A' for Active; 'I' for Inactive)
REMARK    1  A    between atoms: C_13  and  C_14
REMARK    2  A    between atoms: C_13  and  C_15
REMARK    3  A    between atoms: C_15  and  O_16
REMARK    4  A    between atoms: O_16  and  C_17
REMARK    5  A    between atoms: C_26  and  C_28
REMARK                            x       y       z     vdW  Elec       q    Type
REMARK                         _______ _______ _______ _____ _____    ______ ____
ROOT
ATOM      1  O   LIG A   1      -8.086  -2.697 124.535  0.00  0.00    -0.250 OA
ATOM      2  C   LIG A   1      -7.722  -2.098 125.537  0.00  0.00    +0.315 C 
ATOM      3  C   LIG A   1      -8.441  -0.911 126.078  0.00  0.00    +0.155 C 
ATOM      4  C   LIG A   1      -9.271  -0.060 125.164  0.00  0.00    +0.192 C 
ATOM      5  O   LIG A   1      -9.576   1.047 126.037  0.00  0.00    -0.460 OA
ATOM      6  C   LIG A   1      -8.554   1.170 126.956  0.00  0.00    +0.315 C 
ATOM      7  O   LIG A   1      -8.517   1.984 127.855  0.00  0.00    -0.250 OA
ATOM      8  C   LIG A   1      -8.524   0.451 123.931  0.00  0.00    +0.050 C 
ATOM      9  C   LIG A   1      -7.210   1.223 124.229  0.00  0.00    +0.013 C 
ATOM     10  C   LIG A   1      -7.303   2.789 123.989  0.00  0.00    +0.068 C 
ATOM     11  C   LIG A   1      -8.551   3.475 124.575  0.00  0.00    +0.023 C 
ATOM     12  C   LIG A   1      -6.046   3.493 124.549  0.00  0.00    +0.018 C 
ATOM     13  C   LIG A   1      -5.726   3.100 125.979  0.00  0.00    +0.001 C 
ATOM     14  C   LIG A   1      -5.404   1.623 126.054  0.00  0.00    +0.005 C 
ATOM     15  C   LIG A   1      -6.520   0.701 125.538  0.00  0.00    +0.011 C 
ATOM     16  C   LIG A   1      -7.501   0.145 126.628  0.00  0.00    +0.091 C 
ATOM     17  C   LIG A   1      -6.857  -0.522 127.833  0.00  0.00    +0.069 C 
ATOM     18  C   LIG A   1      -6.095  -1.789 127.401  0.00  0.00    +0.211 C 
ATOM     19  O   LIG A   1      -6.697  -2.536 126.305  0.00  0.00    -0.456 OA
ENDROOT
BRANCH  18  20
ATOM     20  C   LIG A   1      -5.852  -2.697 128.564  0.00  0.00    +0.030 A 
ATOM     21  C   LIG A   1      -4.629  -3.109 129.055  0.00  0.00    +0.202 A 
ATOM     22  O   LIG A   1      -4.788  -3.926 130.126  0.00  0.00    -0.471 OA
ATOM     23  C   LIG A   1      -6.122  -4.054 130.332  0.00  0.00    +0.195 A 
ATOM     24  C   LIG A   1      -6.822  -3.321 129.403  0.00  0.00    +0.048 A 
ENDBRANCH  18  20
BRANCH  10  25
ATOM     25  C   LIG A   1      -7.362   3.044 122.459  0.00  0.00    +0.313 C 
ATOM     26  O   LIG A   1      -6.403   2.946 121.703  0.00  0.00    -0.250 OA
BRANCH  25  27
ATOM     27  O   LIG A   1      -8.624   3.351 122.046  0.00  0.00    -0.468 OA
ATOM     28  C   LIG A   1      -8.722   3.780 120.687  0.00  0.00    +0.280 C 
ENDBRANCH  25  27
ENDBRANCH  10  25
TORSDOF 3
ENDMDL
MODEL 4
REMARK VINA RESULT:      -8.0      2.591      7.483
REMARK  Name = NuBBE_829
REMARK  5 active torsions:
REMARK  status: ('A' for Active; 'I' for Inactive)
REMARK    1  A    between atoms: C_13  and  C_14
REMARK    2  A    between atoms: C_13  and  C_15
REMARK    3  A    between atoms: C_15  and  O_16
REMARK    4  A    between atoms: O_16  and  C_17
REMARK    5  A    between atoms: C_26  and  C_28
REMARK                            x       y       z     vdW  Elec       q    Type
REMARK                         _______ _______ _______ _____ _____    ______ ____
ROOT
ATOM      1  O   LIG A   1      -7.707   1.030 128.894  0.00  0.00    -0.250 OA
ATOM      2  C   LIG A   1      -7.354  -0.133 128.752  0.00  0.00    +0.315 C 
ATOM      3  C   LIG A   1      -6.401  -0.565 127.692  0.00  0.00    +0.155 C 
ATOM      4  C   LIG A   1      -6.269   0.237 126.432  0.00  0.00    +0.192 C 
ATOM      5  O   LIG A   1      -5.443  -0.642 125.642  0.00  0.00    -0.460 OA
ATOM      6  C   LIG A   1      -5.680  -1.940 126.047  0.00  0.00    +0.315 C 
ATOM      7  O   LIG A   1      -5.122  -2.923 125.605  0.00  0.00    -0.250 OA
ATOM      8  C   LIG A   1      -7.591   0.490 125.706  0.00  0.00    +0.050 C 
ATOM      9  C   LIG A   1      -8.410  -0.786 125.367  0.00  0.00    +0.013 C 
ATOM     10  C   LIG A   1      -8.413  -1.170 123.827  0.00  0.00    +0.068 C 
ATOM     11  C   LIG A   1      -7.039  -1.135 123.133  0.00  0.00    +0.023 C 
ATOM     12  C   LIG A   1      -9.030  -2.573 123.626  0.00  0.00    +0.018 C 
ATOM     13  C   LIG A   1      -8.424  -3.630 124.530  0.00  0.00    +0.001 C 
ATOM     14  C   LIG A   1      -8.698  -3.294 125.980  0.00  0.00    +0.005 C 
ATOM     15  C   LIG A   1      -8.176  -1.919 126.426  0.00  0.00    +0.011 C 
ATOM     16  C   LIG A   1      -6.758  -1.916 127.098  0.00  0.00    +0.091 C 
ATOM     17  C   LIG A   1      -6.557  -2.892 128.247  0.00  0.00    +0.069 C 
ATOM     18  C   LIG A   1      -7.480  -2.530 129.425  0.00  0.00    +0.211 C 
ATOM     19  O   LIG A   1      -7.711  -1.105 129.623  0.00  0.00    -0.456 OA
ENDROOT
BRANCH  18  20
ATOM     20  C   LIG A   1      -7.000  -3.150 130.698  0.00  0.00    +0.030 A 
ATOM     21  C   LIG A   1      -7.444  -2.874 131.977  0.00  0.00    +0.202 A 
ATOM     22  O   LIG A   1      -6.789  -3.630 132.892  0.00  0.00    -0.471 OA
ATOM     23  C   LIG A   1      -5.906  -4.400 132.208  0.00  0.00    +0.195 A 
ATOM     24  C   LIG A   1      -5.993  -4.146 130.860  0.00  0.00    +0.048 A 
ENDBRANCH  18  20
BRANCH  10  25
ATOM     25  C   LIG A   1      -9.293  -0.140 123.071  0.00  0.00    +0.313 C 
ATOM     26  O   LIG A   1     -10.470  -0.315 122.781  0.00  0.00    -0.250 OA
BRANCH  25  27
ATOM     27  O   LIG A   1      -8.609   1.008 122.801  0.00  0.00    -0.468 OA
ATOM     28  C   LIG A   1      -9.354   2.211 123.000  0.00  0.00    +0.280 C 
ENDBRANCH  25  27
ENDBRANCH  10  25
TORSDOF 3
ENDMDL
MODEL 5
REMARK VINA RESULT:      -7.6      3.403      5.971
REMARK  Name = NuBBE_829
REMARK  5 active torsions:
REMARK  status: ('A' for Active; 'I' for Inactive)
REMARK    1  A    between atoms: C_13  and  C_14
REMARK    2  A    between atoms: C_13  and  C_15
REMARK    3  A    between atoms: C_15  and  O_16
REMARK    4  A    between atoms: O_16  and  C_17
REMARK    5  A    between atoms: C_26  and  C_28
REMARK                            x       y       z     vdW  Elec       q    Type
REMARK                         _______ _______ _______ _____ _____    ______ ____
ROOT
ATOM      1  O   LIG A   1      -6.376   2.602 122.458  0.00  0.00    -0.250 OA
ATOM      2  C   LIG A   1      -6.865   1.938 123.361  0.00  0.00    +0.315 C 
ATOM      3  C   LIG A   1      -7.480   2.547 124.573  0.00  0.00    +0.155 C 
ATOM      4  C   LIG A   1      -7.050   3.910 125.025  0.00  0.00    +0.192 C 
ATOM      5  O   LIG A   1      -7.715   3.989 126.302  0.00  0.00    -0.460 OA
ATOM      6  C   LIG A   1      -7.858   2.708 126.797  0.00  0.00    +0.315 C 
ATOM      7  O   LIG A   1      -8.407   2.419 127.840  0.00  0.00    -0.250 OA
ATOM      8  C   LIG A   1      -5.541   4.060 125.223  0.00  0.00    +0.050 C 
ATOM      9  C   LIG A   1      -4.896   3.021 126.181  0.00  0.00    +0.013 C 
ATOM     10  C   LIG A   1      -4.459   3.612 127.587  0.00  0.00    +0.068 C 
ATOM     11  C   LIG A   1      -5.503   4.507 128.282  0.00  0.00    +0.023 C 
ATOM     12  C   LIG A   1      -4.070   2.470 128.552  0.00  0.00    +0.018 C 
ATOM     13  C   LIG A   1      -5.116   1.373 128.636  0.00  0.00    +0.001 C 
ATOM     14  C   LIG A   1      -5.274   0.701 127.289  0.00  0.00    +0.005 C 
ATOM     15  C   LIG A   1      -5.660   1.651 126.144  0.00  0.00    +0.011 C 
ATOM     16  C   LIG A   1      -7.195   1.756 125.837  0.00  0.00    +0.091 C 
ATOM     17  C   LIG A   1      -7.929   0.442 125.626  0.00  0.00    +0.069 C 
ATOM     18  C   LIG A   1      -7.393  -0.278 124.376  0.00  0.00    +0.211 C 
ATOM     19  O   LIG A   1      -6.989   0.592 123.279  0.00  0.00    -0.456 OA
ENDROOT
BRANCH  18  20
ATOM     20  C   LIG A   1      -8.364  -1.303 123.882  0.00  0.00    +0.030 A 
ATOM     21  C   LIG A   1      -9.408  -1.102 123.001  0.00  0.00    +0.202 A 
ATOM     22  O   LIG A   1     -10.078  -2.258 122.772  0.00  0.00    -0.471 OA
ATOM     23  C   LIG A   1      -9.472  -3.220 123.513  0.00  0.00    +0.195 A 
ATOM     24  C   LIG A   1      -8.415  -2.689 124.214  0.00  0.00    +0.048 A 
ENDBRANCH  18  20
BRANCH  10  25
ATOM     25  C   LIG A   1      -3.213   4.511 127.371  0.00  0.00    +0.313 C 
ATOM     26  O   LIG A   1      -2.127   4.105 126.975  0.00  0.00    -0.250 OA
BRANCH  25  27
ATOM     27  O   LIG A   1      -3.482   5.821 127.634  0.00  0.00    -0.468 OA
ATOM     28  C   LIG A   1      -2.393   6.555 128.198  0.00  0.00    +0.280 C 
ENDBRANCH  25  27
ENDBRANCH  10  25
TORSDOF 3
ENDMDL
MODEL 6
REMARK VINA RESULT:      -7.5      6.951      9.014
REMARK  Name = NuBBE_829
REMARK  5 active torsions:
REMARK  status: ('A' for Active; 'I' for Inactive)
REMARK    1  A    between atoms: C_13  and  C_14
REMARK    2  A    between atoms: C_13  and  C_15
REMARK    3  A    between atoms: C_15  and  O_16
REMARK    4  A    between atoms: O_16  and  C_17
REMARK    5  A    between atoms: C_26  and  C_28
REMARK                            x       y       z     vdW  Elec       q    Type
REMARK                         _______ _______ _______ _____ _____    ______ ____
ROOT
ATOM      1  O   LIG A   1      -9.392   3.100 129.135  0.00  0.00    -0.250 OA
ATOM      2  C   LIG A   1      -9.247   4.212 129.624  0.00  0.00    +0.315 C 
ATOM      3  C   LIG A   1      -7.909   4.809 129.896  0.00  0.00    +0.155 C 
ATOM      4  C   LIG A   1      -6.726   3.917 130.125  0.00  0.00    +0.192 C 
ATOM      5  O   LIG A   1      -5.745   4.883 130.554  0.00  0.00    -0.460 OA
ATOM      6  C   LIG A   1      -6.406   5.936 131.155  0.00  0.00    +0.315 C 
ATOM      7  O   LIG A   1      -5.875   6.933 131.599  0.00  0.00    -0.250 OA
ATOM      8  C   LIG A   1      -6.929   2.871 131.221  0.00  0.00    +0.050 C 
ATOM      9  C   LIG A   1      -7.365   3.438 132.600  0.00  0.00    +0.013 C 
ATOM     10  C   LIG A   1      -6.231   3.400 133.710  0.00  0.00    +0.068 C 
ATOM     11  C   LIG A   1      -4.848   3.905 133.260  0.00  0.00    +0.023 C 
ATOM     12  C   LIG A   1      -6.669   4.207 134.953  0.00  0.00    +0.018 C 
ATOM     13  C   LIG A   1      -7.166   5.601 134.618  0.00  0.00    +0.001 C 
ATOM     14  C   LIG A   1      -8.408   5.519 133.756  0.00  0.00    +0.005 C 
ATOM     15  C   LIG A   1      -8.221   4.743 132.442  0.00  0.00    +0.011 C 
ATOM     16  C   LIG A   1      -7.876   5.613 131.183  0.00  0.00    +0.091 C 
ATOM     17  C   LIG A   1      -8.798   6.791 130.908  0.00  0.00    +0.069 C 
ATOM     18  C   LIG A   1     -10.220   6.296 130.587  0.00  0.00    +0.211 C 
ATOM     19  O   LIG A   1     -10.293   5.041 129.850  0.00  0.00    -0.456 OA
ENDROOT
BRANCH  18  20
ATOM     20  C   LIG A   1     -11.012   7.349 129.879  0.00  0.00    +0.030 A 
ATOM     21  C   LIG A   1     -10.627   8.071 128.766  0.00  0.00    +0.202 A 
ATOM     22  O   LIG A   1     -11.601   8.936 128.389  0.00  0.00    -0.471 OA
ATOM     23  C   LIG A   1     -12.626   8.783 129.264  0.00  0.00    +0.195 A 
ATOM     24  C   LIG A   1     -12.318   7.822 130.199  0.00  0.00    +0.048 A 
ENDBRANCH  18  20
BRANCH  10  25
ATOM     25  C   LIG A   1      -6.020   1.923 134.139  0.00  0.00    +0.313 C 
ATOM     26  O   LIG A   1      -6.882   1.055 134.078  0.00  0.00    -0.250 OA
BRANCH  25  27
ATOM     27  O   LIG A   1      -4.743   1.695 134.556  0.00  0.00    -0.468 OA
ATOM     28  C   LIG A   1      -4.629   1.168 135.879  0.00  0.00    +0.280 C 
ENDBRANCH  25  27
ENDBRANCH  10  25
TORSDOF 3
ENDMDL
MODEL 7
REMARK VINA RESULT:      -7.5      4.148      6.289
REMARK  Name = NuBBE_829
REMARK  5 active torsions:
REMARK  status: ('A' for Active; 'I' for Inactive)
REMARK    1  A    between atoms: C_13  and  C_14
REMARK    2  A    between atoms: C_13  and  C_15
REMARK    3  A    between atoms: C_15  and  O_16
REMARK    4  A    between atoms: O_16  and  C_17
REMARK    5  A    between atoms: C_26  and  C_28
REMARK                            x       y       z     vdW  Elec       q    Type
REMARK                         _______ _______ _______ _____ _____    ______ ____
ROOT
ATOM      1  O   LIG A   1      -5.012   0.704 128.896  0.00  0.00    -0.250 OA
ATOM      2  C   LIG A   1      -5.038   1.871 128.529  0.00  0.00    +0.315 C 
ATOM      3  C   LIG A   1      -6.299   2.581 128.177  0.00  0.00    +0.155 C 
ATOM      4  C   LIG A   1      -7.491   1.800 127.710  0.00  0.00    +0.192 C 
ATOM      5  O   LIG A   1      -8.360   2.871 127.287  0.00  0.00    -0.460 OA
ATOM      6  C   LIG A   1      -7.577   3.938 126.896  0.00  0.00    +0.315 C 
ATOM      7  O   LIG A   1      -7.997   5.011 126.515  0.00  0.00    -0.250 OA
ATOM      8  C   LIG A   1      -7.210   0.872 126.528  0.00  0.00    +0.050 C 
ATOM      9  C   LIG A   1      -6.580   1.559 125.285  0.00  0.00    +0.013 C 
ATOM     10  C   LIG A   1      -7.570   1.719 124.055  0.00  0.00    +0.068 C 
ATOM     11  C   LIG A   1      -8.970   2.262 124.399  0.00  0.00    +0.023 C 
ATOM     12  C   LIG A   1      -6.942   2.629 122.975  0.00  0.00    +0.018 C 
ATOM     13  C   LIG A   1      -6.418   3.942 123.529  0.00  0.00    +0.001 C 
ATOM     14  C   LIG A   1      -5.297   3.682 124.512  0.00  0.00    +0.005 C 
ATOM     15  C   LIG A   1      -5.683   2.779 125.695  0.00  0.00    +0.011 C 
ATOM     16  C   LIG A   1      -6.133   3.524 127.000  0.00  0.00    +0.091 C 
ATOM     17  C   LIG A   1      -5.192   4.601 127.517  0.00  0.00    +0.069 C 
ATOM     18  C   LIG A   1      -3.848   3.981 127.939  0.00  0.00    +0.211 C 
ATOM     19  O   LIG A   1      -3.931   2.649 128.525  0.00  0.00    -0.456 OA
ENDROOT
BRANCH  18  20
ATOM     20  C   LIG A   1      -3.094   4.893 128.854  0.00  0.00    +0.030 A 
ATOM     21  C   LIG A   1      -2.301   5.964 128.491  0.00  0.00    +0.202 A 
ATOM     22  O   LIG A   1      -1.778   6.572 129.585  0.00  0.00    -0.471 OA
ATOM     23  C   LIG A   1      -2.228   5.891 130.669  0.00  0.00    +0.195 A 
ATOM     24  C   LIG A   1      -3.038   4.851 130.278  0.00  0.00    +0.048 A 
ENDBRANCH  18  20
BRANCH  10  25
ATOM     25  C   LIG A   1      -7.803   0.317 123.433  0.00  0.00    +0.313 C 
ATOM     26  O   LIG A   1      -8.888  -0.251 123.393  0.00  0.00    -0.250 OA
BRANCH  25  27
ATOM     27  O   LIG A   1      -6.660  -0.194 122.895  0.00  0.00    -0.468 OA
ATOM     28  C   LIG A   1      -6.560  -1.618 122.941  0.00  0.00    +0.280 C 
ENDBRANCH  25  27
ENDBRANCH  10  25
TORSDOF 3
ENDMDL
MODEL 8
REMARK VINA RESULT:      -7.5      7.709      9.744
REMARK  Name = NuBBE_829
REMARK  5 active torsions:
REMARK  status: ('A' for Active; 'I' for Inactive)
REMARK    1  A    between atoms: C_13  and  C_14
REMARK    2  A    between atoms: C_13  and  C_15
REMARK    3  A    between atoms: C_15  and  O_16
REMARK    4  A    between atoms: O_16  and  C_17
REMARK    5  A    between atoms: C_26  and  C_28
REMARK                            x       y       z     vdW  Elec       q    Type
REMARK                         _______ _______ _______ _____ _____    ______ ____
ROOT
ATOM      1  O   LIG A   1      -8.332   4.075 134.035  0.00  0.00    -0.250 OA
ATOM      2  C   LIG A   1      -8.411   4.630 132.948  0.00  0.00    +0.315 C 
ATOM      3  C   LIG A   1      -7.721   4.126 131.728  0.00  0.00    +0.155 C 
ATOM      4  C   LIG A   1      -6.483   3.291 131.861  0.00  0.00    +0.192 C 
ATOM      5  O   LIG A   1      -6.056   3.229 130.485  0.00  0.00    -0.460 OA
ATOM      6  C   LIG A   1      -6.498   4.367 129.841  0.00  0.00    +0.315 C 
ATOM      7  O   LIG A   1      -6.335   4.612 128.663  0.00  0.00    -0.250 OA
ATOM      8  C   LIG A   1      -5.383   3.928 132.711  0.00  0.00    +0.050 C 
ATOM      9  C   LIG A   1      -4.946   5.350 132.264  0.00  0.00    +0.013 C 
ATOM     10  C   LIG A   1      -3.516   5.408 131.577  0.00  0.00    +0.068 C 
ATOM     11  C   LIG A   1      -3.252   4.332 130.507  0.00  0.00    +0.023 C 
ATOM     12  C   LIG A   1      -3.281   6.799 130.944  0.00  0.00    +0.018 C 
ATOM     13  C   LIG A   1      -4.420   7.252 130.050  0.00  0.00    +0.001 C 
ATOM     14  C   LIG A   1      -5.689   7.408 130.861  0.00  0.00    +0.005 C 
ATOM     15  C   LIG A   1      -6.132   6.137 131.603  0.00  0.00    +0.011 C 
ATOM     16  C   LIG A   1      -7.183   5.245 130.854  0.00  0.00    +0.091 C 
ATOM     17  C   LIG A   1      -8.429   5.955 130.351  0.00  0.00    +0.069 C 
ATOM     18  C   LIG A   1      -9.248   6.505 131.533  0.00  0.00    +0.211 C 
ATOM     19  O   LIG A   1      -9.231   5.687 132.739  0.00  0.00    -0.456 OA
ENDROOT
BRANCH  18  20
ATOM     20  C   LIG A   1     -10.660   6.788 131.129  0.00  0.00    +0.030 A 
ATOM     21  C   LIG A   1     -11.801   6.530 131.862  0.00  0.00    +0.202 A 
ATOM     22  O   LIG A   1     -12.910   6.925 131.187  0.00  0.00    -0.471 OA
ATOM     23  C   LIG A   1     -12.490   7.438 130.003  0.00  0.00    +0.195 A 
ATOM     24  C   LIG A   1     -11.119   7.379 129.915  0.00  0.00    +0.048 A 
ENDBRANCH  18  20
BRANCH  10  25
ATOM     25  C   LIG A   1      -2.440   5.185 132.673  0.00  0.00    +0.313 C 
ATOM     26  O   LIG A   1      -1.552   4.344 132.610  0.00  0.00    -0.250 OA
BRANCH  25  27
ATOM     27  O   LIG A   1      -2.577   6.068 133.702  0.00  0.00    -0.468 OA
ATOM     28  C   LIG A   1      -1.354   6.645 134.163  0.00  0.00    +0.280 C 
ENDBRANCH  25  27
ENDBRANCH  10  25
TORSDOF 3
ENDMDL
MODEL 9
REMARK VINA RESULT:      -7.3      7.115      9.915
REMARK  Name = NuBBE_829
REMARK  5 active torsions:
REMARK  status: ('A' for Active; 'I' for Inactive)
REMARK    1  A    between atoms: C_13  and  C_14
REMARK    2  A    between atoms: C_13  and  C_15
REMARK    3  A    between atoms: C_15  and  O_16
REMARK    4  A    between atoms: O_16  and  C_17
REMARK    5  A    between atoms: C_26  and  C_28
REMARK                            x       y       z     vdW  Elec       q    Type
REMARK                         _______ _______ _______ _____ _____    ______ ____
ROOT
ATOM      1  O   LIG A   1      -8.505   0.207 130.734  0.00  0.00    -0.250 OA
ATOM      2  C   LIG A   1      -7.724   0.838 131.434  0.00  0.00    +0.315 C 
ATOM      3  C   LIG A   1      -8.167   1.712 132.556  0.00  0.00    +0.155 C 
ATOM      4  C   LIG A   1      -9.542   2.308 132.541  0.00  0.00    +0.192 C 
ATOM      5  O   LIG A   1      -9.448   3.218 133.656  0.00  0.00    -0.460 OA
ATOM      6  C   LIG A   1      -8.131   3.606 133.791  0.00  0.00    +0.315 C 
ATOM      7  O   LIG A   1      -7.704   4.344 134.655  0.00  0.00    -0.250 OA
ATOM      8  C   LIG A   1      -9.876   3.089 131.269  0.00  0.00    +0.050 C 
ATOM      9  C   LIG A   1      -8.871   4.215 130.905  0.00  0.00    +0.013 C 
ATOM     10  C   LIG A   1      -9.420   5.685 131.144  0.00  0.00    +0.068 C 
ATOM     11  C   LIG A   1     -10.122   5.917 132.495  0.00  0.00    +0.023 C 
ATOM     12  C   LIG A   1      -8.278   6.716 130.999  0.00  0.00    +0.018 C 
ATOM     13  C   LIG A   1      -7.050   6.369 131.821  0.00  0.00    +0.001 C 
ATOM     14  C   LIG A   1      -6.453   5.064 131.340  0.00  0.00    +0.005 C 
ATOM     15  C   LIG A   1      -7.417   3.868 131.384  0.00  0.00    +0.011 C 
ATOM     16  C   LIG A   1      -7.339   2.978 132.674  0.00  0.00    +0.091 C 
ATOM     17  C   LIG A   1      -5.956   2.484 133.066  0.00  0.00    +0.069 C 
ATOM     18  C   LIG A   1      -5.397   1.542 131.984  0.00  0.00    +0.211 C 
ATOM     19  O   LIG A   1      -6.383   0.702 131.317  0.00  0.00    -0.456 OA
ENDROOT
BRANCH  18  20
ATOM     20  C   LIG A   1      -4.288   0.696 132.524  0.00  0.00    +0.030 A 
ATOM     21  C   LIG A   1      -3.278   1.095 133.377  0.00  0.00    +0.202 A 
ATOM     22  O   LIG A   1      -2.450   0.060 133.665  0.00  0.00    -0.471 OA
ATOM     23  C   LIG A   1      -2.918  -1.020 132.990  0.00  0.00    +0.195 A 
ATOM     24  C   LIG A   1      -4.043  -0.686 132.274  0.00  0.00    +0.048 A 
ENDBRANCH  18  20
BRANCH  10  25
ATOM     25  C   LIG A   1     -10.488   5.987 130.059  0.00  0.00    +0.313 C 
ATOM     26  O   LIG A   1     -10.281   5.939 128.852  0.00  0.00    -0.250 OA
BRANCH  25  27
ATOM     27  O   LIG A   1     -11.701   6.273 130.609  0.00  0.00    -0.468 OA
ATOM     28  C   LIG A   1     -12.655   6.830 129.702  0.00  0.00    +0.280 C 
ENDBRANCH  25  27
ENDBRANCH  10  25
TORSDOF 3
ENDMDL
