MODEL 1
REMARK VINA RESULT:      -6.5      0.000      0.000
REMARK  Name = NuBBE_17
REMARK  15 active torsions:
REMARK  status: ('A' for Active; 'I' for Inactive)
REMARK    1  A    between atoms: O_1  and  C_2
REMARK    2  A    between atoms: C_3  and  C_4
REMARK    3  A    between atoms: C_6  and  C_7
REMARK    4  A    between atoms: C_7  and  C_8
REMARK    5  A    between atoms: C_8  and  C_9
REMARK    6  A    between atoms: C_9  and  C_10
REMARK    7  A    between atoms: C_10  and  C_11
REMARK    8  A    between atoms: C_11  and  C_12
REMARK    9  A    between atoms: C_12  and  C_13
REMARK   10  A    between atoms: C_13  and  C_14
REMARK   11  A    between atoms: C_14  and  C_15
REMARK   12  A    between atoms: C_15  and  C_16
REMARK   13  A    between atoms: C_16  and  C_17
REMARK   14  A    between atoms: C_17  and  C_18
REMARK   15  A    between atoms: C_18  and  O_19
REMARK                            x       y       z     vdW  Elec       q    Type
REMARK                         _______ _______ _______ _____ _____    ______ ____
ROOT
ATOM      1  C   LIG A   1      -8.176  -2.967 126.938  0.00  0.00    +0.000 C 
ENDROOT
BRANCH   1   2
ATOM      2  C   LIG A   1      -8.372  -3.658 128.322  0.00  0.00    +0.006 C 
BRANCH   2   3
ATOM      3  C   LIG A   1      -7.349  -3.466 129.463  0.00  0.00    +0.055 C 
BRANCH   3   8
ATOM      4  C   LIG A   1      -7.311  -0.830 132.821  0.00  0.00    +0.138 A 
ATOM      5  C   LIG A   1      -8.114  -0.602 131.763  0.00  0.00    +0.080 A 
ATOM      6  C   LIG A   1      -8.937   0.661 131.875  0.00  0.00    +0.069 C 
ATOM      7  N   LIG A   1      -8.202  -1.357 130.623  0.00  0.00    -0.253 NA
ATOM      8  C   LIG A   1      -7.657  -2.585 130.654  0.00  0.00    +0.042 A 
ATOM      9  C   LIG A   1      -7.168  -3.047 131.822  0.00  0.00    +0.027 A 
ATOM     10  C   LIG A   1      -6.800  -1.990 132.634  0.00  0.00    +0.049 A 
BRANCH   4  11
ATOM     11  O   LIG A   1      -6.890  -0.026 133.816  0.00  0.00    -0.505 OA
ATOM     12  H   LIG A   1      -6.225   0.617 133.573  0.00  0.00    +0.292 HD
ENDBRANCH   4  11
ENDBRANCH   3   8
ENDBRANCH   2   3
ENDBRANCH   1   2
BRANCH   1  13
ATOM     13  C   LIG A   1      -9.325  -2.965 125.927  0.00  0.00    +0.000 C 
BRANCH  13  14
ATOM     14  C   LIG A   1      -9.089  -3.690 124.626  0.00  0.00    +0.007 C 
BRANCH  14  15
ATOM     15  C   LIG A   1      -9.281  -3.002 123.239  0.00  0.00    +0.074 C 
BRANCH  15  16
ATOM     16  C   LIG A   1      -8.907  -1.367 123.045  0.00  0.00    +0.133 C 
ATOM     17  O   LIG A   1      -9.790  -0.572 122.791  0.00  0.00    -0.297 OA
BRANCH  16  18
ATOM     18  C   LIG A   1      -7.382  -0.873 123.124  0.00  0.00    +0.074 C 
BRANCH  18  19
ATOM     19  C   LIG A   1      -6.350  -1.624 123.861  0.00  0.00    +0.007 C 
BRANCH  19  20
ATOM     20  C   LIG A   1      -5.738  -2.573 122.898  0.00  0.00    +0.003 C 
BRANCH  20  21
ATOM     21  C   LIG A   1      -4.512  -3.317 123.477  0.00  0.00    +0.028 C 
BRANCH  21  22
ATOM     22  C   LIG A   1      -4.602  -4.805 123.860  0.00  0.00    +0.156 C 
BRANCH  22  23
ATOM     23  O   LIG A   1      -4.096  -5.616 122.820  0.00  0.00    -0.395 OA
ATOM     24  H   LIG A   1      -4.805  -5.814 122.184  0.00  0.00    +0.209 HD
ENDBRANCH  22  23
ENDBRANCH  21  22
ENDBRANCH  20  21
ENDBRANCH  19  20
ENDBRANCH  18  19
ENDBRANCH  16  18
ENDBRANCH  15  16
ENDBRANCH  14  15
ENDBRANCH  13  14
ENDBRANCH   1  13
TORSDOF 14
ENDMDL
MODEL 2
REMARK VINA RESULT:      -6.4      1.734      2.293
REMARK  Name = NuBBE_17
REMARK  15 active torsions:
REMARK  status: ('A' for Active; 'I' for Inactive)
REMARK    1  A    between atoms: O_1  and  C_2
REMARK    2  A    between atoms: C_3  and  C_4
REMARK    3  A    between atoms: C_6  and  C_7
REMARK    4  A    between atoms: C_7  and  C_8
REMARK    5  A    between atoms: C_8  and  C_9
REMARK    6  A    between atoms: C_9  and  C_10
REMARK    7  A    between atoms: C_10  and  C_11
REMARK    8  A    between atoms: C_11  and  C_12
REMARK    9  A    between atoms: C_12  and  C_13
REMARK   10  A    between atoms: C_13  and  C_14
REMARK   11  A    between atoms: C_14  and  C_15
REMARK   12  A    between atoms: C_15  and  C_16
REMARK   13  A    between atoms: C_16  and  C_17
REMARK   14  A    between atoms: C_17  and  C_18
REMARK   15  A    between atoms: C_18  and  O_19
REMARK                            x       y       z     vdW  Elec       q    Type
REMARK                         _______ _______ _______ _____ _____    ______ ____
ROOT
ATOM      1  C   LIG A   1      -7.915  -2.836 127.903  0.00  0.00    +0.000 C 
ENDROOT
BRANCH   1   2
ATOM      2  C   LIG A   1      -8.246  -3.050 129.412  0.00  0.00    +0.006 C 
BRANCH   2   3
ATOM      3  C   LIG A   1      -7.580  -2.187 130.506  0.00  0.00    +0.055 C 
BRANCH   3   8
ATOM      4  C   LIG A   1      -8.836   1.867 130.036  0.00  0.00    +0.138 A 
ATOM      5  C   LIG A   1      -9.082   1.186 131.172  0.00  0.00    +0.080 A 
ATOM      6  C   LIG A   1      -9.857   1.973 132.206  0.00  0.00    +0.069 C 
ATOM      7  N   LIG A   1      -8.751  -0.117 131.436  0.00  0.00    -0.253 NA
ATOM      8  C   LIG A   1      -7.862  -0.705 130.617  0.00  0.00    +0.042 A 
ATOM      9  C   LIG A   1      -7.263   0.044 129.670  0.00  0.00    +0.027 A 
ATOM     10  C   LIG A   1      -8.063   1.121 129.337  0.00  0.00    +0.049 A 
BRANCH   4  11
ATOM     11  O   LIG A   1      -9.377   2.992 129.530  0.00  0.00    -0.505 OA
ATOM     12  H   LIG A   1     -10.332   3.011 129.496  0.00  0.00    +0.292 HD
ENDBRANCH   4  11
ENDBRANCH   3   8
ENDBRANCH   2   3
ENDBRANCH   1   2
BRANCH   1  13
ATOM     13  C   LIG A   1      -8.679  -3.634 126.844  0.00  0.00    +0.000 C 
BRANCH  13  14
ATOM     14  C   LIG A   1      -9.454  -2.843 125.822  0.00  0.00    +0.007 C 
BRANCH  14  15
ATOM     15  C   LIG A   1      -9.428  -3.187 124.301  0.00  0.00    +0.074 C 
BRANCH  15  16
ATOM     16  C   LIG A   1      -8.993  -2.008 123.172  0.00  0.00    +0.133 C 
ATOM     17  O   LIG A   1      -9.820  -1.206 122.790  0.00  0.00    -0.297 OA
BRANCH  16  18
ATOM     18  C   LIG A   1      -7.513  -1.992 122.552  0.00  0.00    +0.074 C 
BRANCH  18  19
ATOM     19  C   LIG A   1      -6.376  -1.365 123.250  0.00  0.00    +0.007 C 
BRANCH  19  20
ATOM     20  C   LIG A   1      -5.788  -2.402 124.134  0.00  0.00    +0.003 C 
BRANCH  20  21
ATOM     21  C   LIG A   1      -4.825  -3.357 123.391  0.00  0.00    +0.028 C 
BRANCH  21  22
ATOM     22  C   LIG A   1      -4.604  -4.797 123.887  0.00  0.00    +0.156 C 
BRANCH  22  23
ATOM     23  O   LIG A   1      -4.093  -5.606 122.847  0.00  0.00    -0.395 OA
ATOM     24  H   LIG A   1      -3.190  -5.321 122.624  0.00  0.00    +0.209 HD
ENDBRANCH  22  23
ENDBRANCH  21  22
ENDBRANCH  20  21
ENDBRANCH  19  20
ENDBRANCH  18  19
ENDBRANCH  16  18
ENDBRANCH  15  16
ENDBRANCH  14  15
ENDBRANCH  13  14
ENDBRANCH   1  13
TORSDOF 14
ENDMDL
MODEL 3
REMARK VINA RESULT:      -6.1      3.330      6.879
REMARK  Name = NuBBE_17
REMARK  15 active torsions:
REMARK  status: ('A' for Active; 'I' for Inactive)
REMARK    1  A    between atoms: O_1  and  C_2
REMARK    2  A    between atoms: C_3  and  C_4
REMARK    3  A    between atoms: C_6  and  C_7
REMARK    4  A    between atoms: C_7  and  C_8
REMARK    5  A    between atoms: C_8  and  C_9
REMARK    6  A    between atoms: C_9  and  C_10
REMARK    7  A    between atoms: C_10  and  C_11
REMARK    8  A    between atoms: C_11  and  C_12
REMARK    9  A    between atoms: C_12  and  C_13
REMARK   10  A    between atoms: C_13  and  C_14
REMARK   11  A    between atoms: C_14  and  C_15
REMARK   12  A    between atoms: C_15  and  C_16
REMARK   13  A    between atoms: C_16  and  C_17
REMARK   14  A    between atoms: C_17  and  C_18
REMARK   15  A    between atoms: C_18  and  O_19
REMARK                            x       y       z     vdW  Elec       q    Type
REMARK                         _______ _______ _______ _____ _____    ______ ____
ROOT
ATOM      1  C   LIG A   1      -5.653  -1.785 125.782  0.00  0.00    +0.000 C 
ENDROOT
BRANCH   1   2
ATOM      2  C   LIG A   1      -6.075  -0.345 126.209  0.00  0.00    +0.006 C 
BRANCH   2   3
ATOM      3  C   LIG A   1      -7.401   0.277 125.719  0.00  0.00    +0.055 C 
BRANCH   3   8
ATOM      4  C   LIG A   1      -6.596   3.577 123.132  0.00  0.00    +0.138 A 
ATOM      5  C   LIG A   1      -7.699   2.818 122.975  0.00  0.00    +0.080 A 
ATOM      6  C   LIG A   1      -8.564   3.224 121.803  0.00  0.00    +0.069 C 
ATOM      7  N   LIG A   1      -8.056   1.727 123.722  0.00  0.00    -0.253 NA
ATOM      8  C   LIG A   1      -7.416   1.541 124.888  0.00  0.00    +0.042 A 
ATOM      9  C   LIG A   1      -6.556   2.489 125.311  0.00  0.00    +0.027 A 
ATOM     10  C   LIG A   1      -6.060   3.198 124.233  0.00  0.00    +0.049 A 
BRANCH   4  11
ATOM     11  O   LIG A   1      -5.972   4.433 122.302  0.00  0.00    -0.505 OA
ATOM     12  H   LIG A   1      -6.449   4.656 121.504  0.00  0.00    +0.292 HD
ENDBRANCH   4  11
ENDBRANCH   3   8
ENDBRANCH   2   3
ENDBRANCH   1   2
BRANCH   1  13
ATOM     13  C   LIG A   1      -5.221  -2.045 124.337  0.00  0.00    +0.000 C 
BRANCH  13  14
ATOM     14  C   LIG A   1      -6.226  -2.719 123.437  0.00  0.00    +0.007 C 
BRANCH  14  15
ATOM     15  C   LIG A   1      -7.352  -1.929 122.702  0.00  0.00    +0.074 C 
BRANCH  15  16
ATOM     16  C   LIG A   1      -8.947  -2.017 123.253  0.00  0.00    +0.133 C 
ATOM     17  O   LIG A   1      -9.763  -1.204 122.869  0.00  0.00    -0.297 OA
BRANCH  16  18
ATOM     18  C   LIG A   1      -9.366  -3.125 124.336  0.00  0.00    +0.074 C 
BRANCH  18  19
ATOM     19  C   LIG A   1      -9.503  -2.809 125.770  0.00  0.00    +0.007 C 
BRANCH  19  20
ATOM     20  C   LIG A   1      -8.579  -3.712 126.500  0.00  0.00    +0.003 C 
BRANCH  20  21
ATOM     21  C   LIG A   1      -8.652  -3.542 128.036  0.00  0.00    +0.028 C 
BRANCH  21  22
ATOM     22  C   LIG A   1      -7.620  -2.679 128.783  0.00  0.00    +0.156 C 
BRANCH  22  23
ATOM     23  O   LIG A   1      -8.121  -2.292 130.046  0.00  0.00    -0.395 OA
ATOM     24  H   LIG A   1      -8.861  -2.871 130.297  0.00  0.00    +0.209 HD
ENDBRANCH  22  23
ENDBRANCH  21  22
ENDBRANCH  20  21
ENDBRANCH  19  20
ENDBRANCH  18  19
ENDBRANCH  16  18
ENDBRANCH  15  16
ENDBRANCH  14  15
ENDBRANCH  13  14
ENDBRANCH   1  13
TORSDOF 14
ENDMDL
MODEL 4
REMARK VINA RESULT:      -6.1      4.030      6.199
REMARK  Name = NuBBE_17
REMARK  15 active torsions:
REMARK  status: ('A' for Active; 'I' for Inactive)
REMARK    1  A    between atoms: O_1  and  C_2
REMARK    2  A    between atoms: C_3  and  C_4
REMARK    3  A    between atoms: C_6  and  C_7
REMARK    4  A    between atoms: C_7  and  C_8
REMARK    5  A    between atoms: C_8  and  C_9
REMARK    6  A    between atoms: C_9  and  C_10
REMARK    7  A    between atoms: C_10  and  C_11
REMARK    8  A    between atoms: C_11  and  C_12
REMARK    9  A    between atoms: C_12  and  C_13
REMARK   10  A    between atoms: C_13  and  C_14
REMARK   11  A    between atoms: C_14  and  C_15
REMARK   12  A    between atoms: C_15  and  C_16
REMARK   13  A    between atoms: C_16  and  C_17
REMARK   14  A    between atoms: C_17  and  C_18
REMARK   15  A    between atoms: C_18  and  O_19
REMARK                            x       y       z     vdW  Elec       q    Type
REMARK                         _______ _______ _______ _____ _____    ______ ____
ROOT
ATOM      1  C   LIG A   1      -9.615  -1.100 122.669  0.00  0.00    +0.000 C 
ENDROOT
BRANCH   1   2
ATOM      2  C   LIG A   1      -8.541  -2.224 122.787  0.00  0.00    +0.006 C 
BRANCH   2   3
ATOM      3  C   LIG A   1      -8.595  -3.263 123.928  0.00  0.00    +0.055 C 
BRANCH   3   8
ATOM      4  C   LIG A   1      -7.821  -3.054 128.122  0.00  0.00    +0.138 A 
ATOM      5  C   LIG A   1      -7.039  -2.409 127.234  0.00  0.00    +0.080 A 
ATOM      6  C   LIG A   1      -5.879  -1.667 127.859  0.00  0.00    +0.069 C 
ATOM      7  N   LIG A   1      -7.169  -2.416 125.870  0.00  0.00    -0.253 NA
ATOM      8  C   LIG A   1      -8.329  -2.868 125.364  0.00  0.00    +0.042 A 
ATOM      9  C   LIG A   1      -9.330  -3.171 126.214  0.00  0.00    +0.027 A 
ATOM     10  C   LIG A   1      -8.817  -3.504 127.454  0.00  0.00    +0.049 A 
BRANCH   4  11
ATOM     11  O   LIG A   1      -7.620  -3.398 129.408  0.00  0.00    -0.505 OA
ATOM     12  H   LIG A   1      -7.435  -2.674 130.005  0.00  0.00    +0.292 HD
ENDBRANCH   4  11
ENDBRANCH   3   8
ENDBRANCH   2   3
ENDBRANCH   1   2
BRANCH   1  13
ATOM     13  C   LIG A   1      -9.290   0.308 123.174  0.00  0.00    +0.000 C 
BRANCH  13  14
ATOM     14  C   LIG A   1      -7.913   0.525 123.746  0.00  0.00    +0.007 C 
BRANCH  14  15
ATOM     15  C   LIG A   1      -7.683   1.103 125.177  0.00  0.00    +0.074 C 
BRANCH  15  16
ATOM     16  C   LIG A   1      -7.767   2.769 125.442  0.00  0.00    +0.133 C 
ATOM     17  O   LIG A   1      -8.257   3.192 126.470  0.00  0.00    -0.297 OA
BRANCH  16  18
ATOM     18  C   LIG A   1      -7.269   3.792 124.310  0.00  0.00    +0.074 C 
BRANCH  18  19
ATOM     19  C   LIG A   1      -5.995   3.609 123.591  0.00  0.00    +0.007 C 
BRANCH  19  20
ATOM     20  C   LIG A   1      -6.324   3.528 122.146  0.00  0.00    +0.003 C 
BRANCH  20  21
ATOM     21  C   LIG A   1      -5.160   3.982 121.234  0.00  0.00    +0.028 C 
BRANCH  21  22
ATOM     22  C   LIG A   1      -5.406   4.955 120.068  0.00  0.00    +0.156 C 
BRANCH  22  23
ATOM     23  O   LIG A   1      -4.756   6.186 120.306  0.00  0.00    -0.395 OA
ATOM     24  H   LIG A   1      -5.415   6.902 120.349  0.00  0.00    +0.209 HD
ENDBRANCH  22  23
ENDBRANCH  21  22
ENDBRANCH  20  21
ENDBRANCH  19  20
ENDBRANCH  18  19
ENDBRANCH  16  18
ENDBRANCH  15  16
ENDBRANCH  14  15
ENDBRANCH  13  14
ENDBRANCH   1  13
TORSDOF 14
ENDMDL
MODEL 5
REMARK VINA RESULT:      -6.0      3.883      8.143
REMARK  Name = NuBBE_17
REMARK  15 active torsions:
REMARK  status: ('A' for Active; 'I' for Inactive)
REMARK    1  A    between atoms: O_1  and  C_2
REMARK    2  A    between atoms: C_3  and  C_4
REMARK    3  A    between atoms: C_6  and  C_7
REMARK    4  A    between atoms: C_7  and  C_8
REMARK    5  A    between atoms: C_8  and  C_9
REMARK    6  A    between atoms: C_9  and  C_10
REMARK    7  A    between atoms: C_10  and  C_11
REMARK    8  A    between atoms: C_11  and  C_12
REMARK    9  A    between atoms: C_12  and  C_13
REMARK   10  A    between atoms: C_13  and  C_14
REMARK   11  A    between atoms: C_14  and  C_15
REMARK   12  A    between atoms: C_15  and  C_16
REMARK   13  A    between atoms: C_16  and  C_17
REMARK   14  A    between atoms: C_17  and  C_18
REMARK   15  A    between atoms: C_18  and  O_19
REMARK                            x       y       z     vdW  Elec       q    Type
REMARK                         _______ _______ _______ _____ _____    ______ ____
ROOT
ATOM      1  C   LIG A   1      -6.465  -0.375 125.488  0.00  0.00    +0.000 C 
ENDROOT
BRANCH   1   2
ATOM      2  C   LIG A   1      -7.054   1.046 125.743  0.00  0.00    +0.006 C 
BRANCH   2   3
ATOM      3  C   LIG A   1      -6.538   2.277 124.965  0.00  0.00    +0.055 C 
BRANCH   3   8
ATOM      4  C   LIG A   1      -8.244   3.550 121.264  0.00  0.00    +0.138 A 
ATOM      5  C   LIG A   1      -6.913   3.590 121.470  0.00  0.00    +0.080 A 
ATOM      6  C   LIG A   1      -6.126   4.152 120.308  0.00  0.00    +0.069 C 
ATOM      7  N   LIG A   1      -6.250   3.232 122.615  0.00  0.00    -0.253 NA
ATOM      8  C   LIG A   1      -6.932   2.516 123.524  0.00  0.00    +0.042 A 
ATOM      9  C   LIG A   1      -8.173   2.092 123.214  0.00  0.00    +0.027 A 
ATOM     10  C   LIG A   1      -8.739   2.927 122.268  0.00  0.00    +0.049 A 
BRANCH   4  11
ATOM     11  O   LIG A   1      -9.029   4.160 120.356  0.00  0.00    -0.505 OA
ATOM     12  H   LIG A   1      -9.105   5.109 120.449  0.00  0.00    +0.292 HD
ENDBRANCH   4  11
ENDBRANCH   3   8
ENDBRANCH   2   3
ENDBRANCH   1   2
BRANCH   1  13
ATOM     13  C   LIG A   1      -5.427  -0.945 126.458  0.00  0.00    +0.000 C 
BRANCH  13  14
ATOM     14  C   LIG A   1      -5.710  -2.310 127.032  0.00  0.00    +0.007 C 
BRANCH  14  15
ATOM     15  C   LIG A   1      -6.401  -2.508 128.417  0.00  0.00    +0.074 C 
BRANCH  15  16
ATOM     16  C   LIG A   1      -7.994  -3.064 128.496  0.00  0.00    +0.133 C 
ATOM     17  O   LIG A   1      -8.597  -3.016 129.549  0.00  0.00    -0.297 OA
BRANCH  16  18
ATOM     18  C   LIG A   1      -8.685  -3.721 127.205  0.00  0.00    +0.074 C 
BRANCH  18  19
ATOM     19  C   LIG A   1      -9.171  -2.908 126.075  0.00  0.00    +0.007 C 
BRANCH  19  20
ATOM     20  C   LIG A   1      -8.579  -3.485 124.843  0.00  0.00    +0.003 C 
BRANCH  20  21
ATOM     21  C   LIG A   1      -9.287  -3.011 123.552  0.00  0.00    +0.028 C 
BRANCH  21  22
ATOM     22  C   LIG A   1      -8.875  -1.698 122.864  0.00  0.00    +0.156 C 
BRANCH  22  23
ATOM     23  O   LIG A   1      -9.998  -0.861 122.683  0.00  0.00    -0.395 OA
ATOM     24  H   LIG A   1     -10.581  -1.236 122.001  0.00  0.00    +0.209 HD
ENDBRANCH  22  23
ENDBRANCH  21  22
ENDBRANCH  20  21
ENDBRANCH  19  20
ENDBRANCH  18  19
ENDBRANCH  16  18
ENDBRANCH  15  16
ENDBRANCH  14  15
ENDBRANCH  13  14
ENDBRANCH   1  13
TORSDOF 14
ENDMDL
MODEL 6
REMARK VINA RESULT:      -6.0      8.476     11.075
REMARK  Name = NuBBE_17
REMARK  15 active torsions:
REMARK  status: ('A' for Active; 'I' for Inactive)
REMARK    1  A    between atoms: O_1  and  C_2
REMARK    2  A    between atoms: C_3  and  C_4
REMARK    3  A    between atoms: C_6  and  C_7
REMARK    4  A    between atoms: C_7  and  C_8
REMARK    5  A    between atoms: C_8  and  C_9
REMARK    6  A    between atoms: C_9  and  C_10
REMARK    7  A    between atoms: C_10  and  C_11
REMARK    8  A    between atoms: C_11  and  C_12
REMARK    9  A    between atoms: C_12  and  C_13
REMARK   10  A    between atoms: C_13  and  C_14
REMARK   11  A    between atoms: C_14  and  C_15
REMARK   12  A    between atoms: C_15  and  C_16
REMARK   13  A    between atoms: C_16  and  C_17
REMARK   14  A    between atoms: C_17  and  C_18
REMARK   15  A    between atoms: C_18  and  O_19
REMARK                            x       y       z     vdW  Elec       q    Type
REMARK                         _______ _______ _______ _____ _____    ______ ____
ROOT
ATOM      1  C   LIG A   1      -8.411   6.812 131.100  0.00  0.00    +0.000 C 
ENDROOT
BRANCH   1   2
ATOM      2  C   LIG A   1      -9.537   6.111 131.920  0.00  0.00    +0.006 C 
BRANCH   2   3
ATOM      3  C   LIG A   1     -10.749   5.459 131.218  0.00  0.00    +0.055 C 
BRANCH   3   8
ATOM      4  C   LIG A   1     -12.787   8.431 128.927  0.00  0.00    +0.138 A 
ATOM      5  C   LIG A   1     -12.414   7.259 128.378  0.00  0.00    +0.080 A 
ATOM      6  C   LIG A   1     -12.749   7.134 126.908  0.00  0.00    +0.069 C 
ATOM      7  N   LIG A   1     -11.740   6.240 128.998  0.00  0.00    -0.253 NA
ATOM      8  C   LIG A   1     -11.677   6.269 130.340  0.00  0.00    +0.042 A 
ATOM      9  C   LIG A   1     -12.371   7.218 130.999  0.00  0.00    +0.027 A 
ATOM     10  C   LIG A   1     -12.563   8.319 130.184  0.00  0.00    +0.049 A 
BRANCH   4  11
ATOM     11  O   LIG A   1     -13.137   9.609 128.376  0.00  0.00    -0.505 OA
ATOM     12  H   LIG A   1     -13.373  10.299 128.994  0.00  0.00    +0.292 HD
ENDBRANCH   4  11
ENDBRANCH   3   8
ENDBRANCH   2   3
ENDBRANCH   1   2
BRANCH   1  13
ATOM     13  C   LIG A   1      -7.059   6.116 130.930  0.00  0.00    +0.000 C 
BRANCH  13  14
ATOM     14  C   LIG A   1      -5.836   6.997 130.918  0.00  0.00    +0.007 C 
BRANCH  14  15
ATOM     15  C   LIG A   1      -4.595   6.718 131.821  0.00  0.00    +0.074 C 
BRANCH  15  16
ATOM     16  C   LIG A   1      -3.105   7.424 131.455  0.00  0.00    +0.133 C 
ATOM     17  O   LIG A   1      -2.855   8.544 131.853  0.00  0.00    -0.297 OA
BRANCH  16  18
ATOM     18  C   LIG A   1      -2.051   6.650 130.525  0.00  0.00    +0.074 C 
BRANCH  18  19
ATOM     19  C   LIG A   1      -2.290   6.421 129.088  0.00  0.00    +0.007 C 
BRANCH  19  20
ATOM     20  C   LIG A   1      -2.803   5.035 128.952  0.00  0.00    +0.003 C 
BRANCH  20  21
ATOM     21  C   LIG A   1      -3.419   4.752 127.562  0.00  0.00    +0.028 C 
BRANCH  21  22
ATOM     22  C   LIG A   1      -2.789   3.713 126.618  0.00  0.00    +0.156 C 
BRANCH  22  23
ATOM     23  O   LIG A   1      -2.429   2.549 127.332  0.00  0.00    -0.395 OA
ATOM     24  H   LIG A   1      -2.888   1.778 126.957  0.00  0.00    +0.209 HD
ENDBRANCH  22  23
ENDBRANCH  21  22
ENDBRANCH  20  21
ENDBRANCH  19  20
ENDBRANCH  18  19
ENDBRANCH  16  18
ENDBRANCH  15  16
ENDBRANCH  14  15
ENDBRANCH  13  14
ENDBRANCH   1  13
TORSDOF 14
ENDMDL
MODEL 7
REMARK VINA RESULT:      -6.0      1.964      2.546
REMARK  Name = NuBBE_17
REMARK  15 active torsions:
REMARK  status: ('A' for Active; 'I' for Inactive)
REMARK    1  A    between atoms: O_1  and  C_2
REMARK    2  A    between atoms: C_3  and  C_4
REMARK    3  A    between atoms: C_6  and  C_7
REMARK    4  A    between atoms: C_7  and  C_8
REMARK    5  A    between atoms: C_8  and  C_9
REMARK    6  A    between atoms: C_9  and  C_10
REMARK    7  A    between atoms: C_10  and  C_11
REMARK    8  A    between atoms: C_11  and  C_12
REMARK    9  A    between atoms: C_12  and  C_13
REMARK   10  A    between atoms: C_13  and  C_14
REMARK   11  A    between atoms: C_14  and  C_15
REMARK   12  A    between atoms: C_15  and  C_16
REMARK   13  A    between atoms: C_16  and  C_17
REMARK   14  A    between atoms: C_17  and  C_18
REMARK   15  A    between atoms: C_18  and  O_19
REMARK                            x       y       z     vdW  Elec       q    Type
REMARK                         _______ _______ _______ _____ _____    ______ ____
ROOT
ATOM      1  C   LIG A   1      -6.890  -1.817 127.552  0.00  0.00    +0.000 C 
ENDROOT
BRANCH   1   2
ATOM      2  C   LIG A   1      -5.404  -2.286 127.510  0.00  0.00    +0.006 C 
BRANCH   2   3
ATOM      3  C   LIG A   1      -4.641  -2.640 128.805  0.00  0.00    +0.055 C 
BRANCH   3   8
ATOM      4  C   LIG A   1      -5.903  -4.187 132.580  0.00  0.00    +0.138 A 
ATOM      5  C   LIG A   1      -6.085  -2.891 132.260  0.00  0.00    +0.080 A 
ATOM      6  C   LIG A   1      -6.724  -2.070 133.357  0.00  0.00    +0.069 C 
ATOM      7  N   LIG A   1      -5.708  -2.273 131.097  0.00  0.00    -0.253 NA
ATOM      8  C   LIG A   1      -5.376  -3.060 130.059  0.00  0.00    +0.042 A 
ATOM      9  C   LIG A   1      -5.546  -4.392 130.179  0.00  0.00    +0.027 A 
ATOM     10  C   LIG A   1      -5.492  -4.761 131.510  0.00  0.00    +0.049 A 
BRANCH   4  11
ATOM     11  O   LIG A   1      -5.916  -4.828 133.764  0.00  0.00    -0.505 OA
ATOM     12  H   LIG A   1      -5.961  -4.266 134.536  0.00  0.00    +0.292 HD
ENDBRANCH   4  11
ENDBRANCH   3   8
ENDBRANCH   2   3
ENDBRANCH   1   2
BRANCH   1  13
ATOM     13  C   LIG A   1      -8.001  -2.850 127.752  0.00  0.00    +0.000 C 
BRANCH  13  14
ATOM     14  C   LIG A   1      -8.908  -3.113 126.577  0.00  0.00    +0.007 C 
BRANCH  14  15
ATOM     15  C   LIG A   1      -9.138  -2.063 125.447  0.00  0.00    +0.074 C 
BRANCH  15  16
ATOM     16  C   LIG A   1      -9.067  -2.533 123.826  0.00  0.00    +0.133 C 
ATOM     17  O   LIG A   1      -9.851  -3.357 123.402  0.00  0.00    -0.297 OA
BRANCH  16  18
ATOM     18  C   LIG A   1      -7.922  -1.947 122.866  0.00  0.00    +0.074 C 
BRANCH  18  19
ATOM     19  C   LIG A   1      -6.560  -1.657 123.353  0.00  0.00    +0.007 C 
BRANCH  19  20
ATOM     20  C   LIG A   1      -5.644  -2.590 122.651  0.00  0.00    +0.003 C 
BRANCH  20  21
ATOM     21  C   LIG A   1      -4.674  -3.322 123.608  0.00  0.00    +0.028 C 
BRANCH  21  22
ATOM     22  C   LIG A   1      -4.806  -4.834 123.859  0.00  0.00    +0.156 C 
BRANCH  22  23
ATOM     23  O   LIG A   1      -4.077  -5.561 122.892  0.00  0.00    -0.395 OA
ATOM     24  H   LIG A   1      -3.188  -5.761 123.233  0.00  0.00    +0.209 HD
ENDBRANCH  22  23
ENDBRANCH  21  22
ENDBRANCH  20  21
ENDBRANCH  19  20
ENDBRANCH  18  19
ENDBRANCH  16  18
ENDBRANCH  15  16
ENDBRANCH  14  15
ENDBRANCH  13  14
ENDBRANCH   1  13
TORSDOF 14
ENDMDL
MODEL 8
REMARK VINA RESULT:      -5.9      2.759      4.344
REMARK  Name = NuBBE_17
REMARK  15 active torsions:
REMARK  status: ('A' for Active; 'I' for Inactive)
REMARK    1  A    between atoms: O_1  and  C_2
REMARK    2  A    between atoms: C_3  and  C_4
REMARK    3  A    between atoms: C_6  and  C_7
REMARK    4  A    between atoms: C_7  and  C_8
REMARK    5  A    between atoms: C_8  and  C_9
REMARK    6  A    between atoms: C_9  and  C_10
REMARK    7  A    between atoms: C_10  and  C_11
REMARK    8  A    between atoms: C_11  and  C_12
REMARK    9  A    between atoms: C_12  and  C_13
REMARK   10  A    between atoms: C_13  and  C_14
REMARK   11  A    between atoms: C_14  and  C_15
REMARK   12  A    between atoms: C_15  and  C_16
REMARK   13  A    between atoms: C_16  and  C_17
REMARK   14  A    between atoms: C_17  and  C_18
REMARK   15  A    between atoms: C_18  and  O_19
REMARK                            x       y       z     vdW  Elec       q    Type
REMARK                         _______ _______ _______ _____ _____    ______ ____
ROOT
ATOM      1  C   LIG A   1      -8.869  -2.724 126.741  0.00  0.00    +0.000 C 
ENDROOT
BRANCH   1   2
ATOM      2  C   LIG A   1      -8.414  -3.705 127.865  0.00  0.00    +0.006 C 
BRANCH   2   3
ATOM      3  C   LIG A   1      -8.141  -3.205 129.300  0.00  0.00    +0.055 C 
BRANCH   3   8
ATOM      4  C   LIG A   1      -3.950  -2.531 129.767  0.00  0.00    +0.138 A 
ATOM      5  C   LIG A   1      -4.838  -1.524 129.886  0.00  0.00    +0.080 A 
ATOM      6  C   LIG A   1      -4.207  -0.176 130.153  0.00  0.00    +0.069 C 
ATOM      7  N   LIG A   1      -6.197  -1.608 129.739  0.00  0.00    -0.253 NA
ATOM      8  C   LIG A   1      -6.745  -2.835 129.750  0.00  0.00    +0.042 A 
ATOM      9  C   LIG A   1      -5.954  -3.892 130.022  0.00  0.00    +0.027 A 
ATOM     10  C   LIG A   1      -4.644  -3.606 129.687  0.00  0.00    +0.049 A 
BRANCH   4  11
ATOM     11  O   LIG A   1      -2.620  -2.534 129.559  0.00  0.00    -0.505 OA
ATOM     12  H   LIG A   1      -2.086  -2.793 130.309  0.00  0.00    +0.292 HD
ENDBRANCH   4  11
ENDBRANCH   3   8
ENDBRANCH   2   3
ENDBRANCH   1   2
BRANCH   1  13
ATOM     13  C   LIG A   1      -9.054  -3.246 125.315  0.00  0.00    +0.000 C 
BRANCH  13  14
ATOM     14  C   LIG A   1      -7.834  -3.812 124.633  0.00  0.00    +0.007 C 
BRANCH  14  15
ATOM     15  C   LIG A   1      -6.539  -2.973 124.402  0.00  0.00    +0.074 C 
BRANCH  15  16
ATOM     16  C   LIG A   1      -6.471  -1.851 123.141  0.00  0.00    +0.133 C 
ATOM     17  O   LIG A   1      -5.842  -2.113 122.135  0.00  0.00    -0.297 OA
BRANCH  16  18
ATOM     18  C   LIG A   1      -7.172  -0.416 123.298  0.00  0.00    +0.074 C 
BRANCH  18  19
ATOM     19  C   LIG A   1      -6.792   0.532 124.361  0.00  0.00    +0.007 C 
BRANCH  19  20
ATOM     20  C   LIG A   1      -7.875   0.500 125.375  0.00  0.00    +0.003 C 
BRANCH  20  21
ATOM     21  C   LIG A   1      -9.289   0.596 124.754  0.00  0.00    +0.028 C 
BRANCH  21  22
ATOM     22  C   LIG A   1      -9.754   1.883 124.049  0.00  0.00    +0.156 C 
BRANCH  22  23
ATOM     23  O   LIG A   1      -9.357   3.021 124.785  0.00  0.00    -0.395 OA
ATOM     24  H   LIG A   1      -9.887   3.087 125.598  0.00  0.00    +0.209 HD
ENDBRANCH  22  23
ENDBRANCH  21  22
ENDBRANCH  20  21
ENDBRANCH  19  20
ENDBRANCH  18  19
ENDBRANCH  16  18
ENDBRANCH  15  16
ENDBRANCH  14  15
ENDBRANCH  13  14
ENDBRANCH   1  13
TORSDOF 14
ENDMDL
MODEL 9
REMARK VINA RESULT:      -5.8      4.659      8.567
REMARK  Name = NuBBE_17
REMARK  15 active torsions:
REMARK  status: ('A' for Active; 'I' for Inactive)
REMARK    1  A    between atoms: O_1  and  C_2
REMARK    2  A    between atoms: C_3  and  C_4
REMARK    3  A    between atoms: C_6  and  C_7
REMARK    4  A    between atoms: C_7  and  C_8
REMARK    5  A    between atoms: C_8  and  C_9
REMARK    6  A    between atoms: C_9  and  C_10
REMARK    7  A    between atoms: C_10  and  C_11
REMARK    8  A    between atoms: C_11  and  C_12
REMARK    9  A    between atoms: C_12  and  C_13
REMARK   10  A    between atoms: C_13  and  C_14
REMARK   11  A    between atoms: C_14  and  C_15
REMARK   12  A    between atoms: C_15  and  C_16
REMARK   13  A    between atoms: C_16  and  C_17
REMARK   14  A    between atoms: C_17  and  C_18
REMARK   15  A    between atoms: C_18  and  O_19
REMARK                            x       y       z     vdW  Elec       q    Type
REMARK                         _______ _______ _______ _____ _____    ______ ____
ROOT
ATOM      1  C   LIG A   1      -7.177   2.010 125.779  0.00  0.00    +0.000 C 
ENDROOT
BRANCH   1   2
ATOM      2  C   LIG A   1      -8.166   3.040 125.150  0.00  0.00    +0.006 C 
BRANCH   2   3
ATOM      3  C   LIG A   1      -8.876   2.750 123.810  0.00  0.00    +0.055 C 
BRANCH   3   8
ATOM      4  C   LIG A   1      -7.298   4.113 120.084  0.00  0.00    +0.138 A 
ATOM      5  C   LIG A   1      -6.487   3.681 121.069  0.00  0.00    +0.080 A 
ATOM      6  C   LIG A   1      -5.014   3.766 120.738  0.00  0.00    +0.069 C 
ATOM      7  N   LIG A   1      -6.868   3.241 122.310  0.00  0.00    -0.253 NA
ATOM      8  C   LIG A   1      -8.166   2.944 122.487  0.00  0.00    +0.042 A 
ATOM      9  C   LIG A   1      -8.989   2.978 121.420  0.00  0.00    +0.027 A 
ATOM     10  C   LIG A   1      -8.492   3.844 120.464  0.00  0.00    +0.049 A 
BRANCH   4  11
ATOM     11  O   LIG A   1      -7.058   4.859 118.988  0.00  0.00    -0.505 OA
ATOM     12  H   LIG A   1      -7.809   5.000 118.413  0.00  0.00    +0.292 HD
ENDBRANCH   4  11
ENDBRANCH   3   8
ENDBRANCH   2   3
ENDBRANCH   1   2
BRANCH   1  13
ATOM     13  C   LIG A   1      -6.802   0.751 124.995  0.00  0.00    +0.000 C 
BRANCH  13  14
ATOM     14  C   LIG A   1      -5.667  -0.078 125.539  0.00  0.00    +0.007 C 
BRANCH  14  15
ATOM     15  C   LIG A   1      -5.649  -1.635 125.448  0.00  0.00    +0.074 C 
BRANCH  15  16
ATOM     16  C   LIG A   1      -5.497  -2.394 123.947  0.00  0.00    +0.133 C 
ATOM     17  O   LIG A   1      -4.670  -3.270 123.795  0.00  0.00    -0.297 OA
BRANCH  16  18
ATOM     18  C   LIG A   1      -6.390  -1.911 122.704  0.00  0.00    +0.074 C 
BRANCH  18  19
ATOM     19  C   LIG A   1      -7.862  -2.003 122.712  0.00  0.00    +0.007 C 
BRANCH  19  20
ATOM     20  C   LIG A   1      -8.218  -3.141 123.596  0.00  0.00    +0.003 C 
BRANCH  20  21
ATOM     21  C   LIG A   1      -9.396  -2.824 124.546  0.00  0.00    +0.028 C 
BRANCH  21  22
ATOM     22  C   LIG A   1      -9.159  -2.616 126.053  0.00  0.00    +0.156 C 
BRANCH  22  23
ATOM     23  O   LIG A   1      -8.711  -3.813 126.653  0.00  0.00    -0.395 OA
ATOM     24  H   LIG A   1      -9.296  -4.547 126.397  0.00  0.00    +0.209 HD
ENDBRANCH  22  23
ENDBRANCH  21  22
ENDBRANCH  20  21
ENDBRANCH  19  20
ENDBRANCH  18  19
ENDBRANCH  16  18
ENDBRANCH  15  16
ENDBRANCH  14  15
ENDBRANCH  13  14
ENDBRANCH   1  13
TORSDOF 14
ENDMDL
