MODEL 1
REMARK VINA RESULT:      -8.4      0.000      0.000
REMARK  Name = NuBBE_484
REMARK  20 active torsions:
REMARK  status: ('A' for Active; 'I' for Inactive)
REMARK    1  A    between atoms: C_1  and  C_2
REMARK    2  A    between atoms: C_7  and  C_8
REMARK    3  A    between atoms: C_7  and  C_47
REMARK    4  A    between atoms: C_8  and  O_9
REMARK    5  A    between atoms: O_9  and  C_10
REMARK    6  A    between atoms: C_10  and  C_11
REMARK    7  A    between atoms: C_13  and  O_43
REMARK    8  A    between atoms: C_17  and  C_42
REMARK    9  A    between atoms: C_23  and  C_41
REMARK   10  A    between atoms: C_26  and  C_37
REMARK   11  A    between atoms: C_29  and  O_36
REMARK   12  A    between atoms: C_31  and  C_32
REMARK   13  A    between atoms: C_31  and  C_35
REMARK   14  A    between atoms: C_37  and  O_38
REMARK   15  A    between atoms: O_38  and  C_39
REMARK   16  A    between atoms: O_43  and  C_44
REMARK   17  A    between atoms: C_44  and  C_45
REMARK   18  A    between atoms: C_47  and  O_48
REMARK   19  A    between atoms: O_48  and  C_49
REMARK   20  A    between atoms: C_49  and  C_50
REMARK                            x       y       z     vdW  Elec       q    Type
REMARK                         _______ _______ _______ _____ _____    ______ ____
ROOT
ATOM      1  C   LIG A   1      -8.002   2.899 124.452  0.00  0.00    +0.012 C 
ATOM      2  C   LIG A   1      -6.822   2.465 125.389  0.00  0.00    -0.019 C 
ATOM      3  C   LIG A   1      -5.998   1.487 124.545  0.00  0.00    +0.008 C 
ATOM      4  C   LIG A   1      -6.691   0.144 124.379  0.00  0.00    +0.005 C 
ATOM      5  C   LIG A   1      -6.764  -0.510 125.766  0.00  0.00    +0.011 C 
ATOM      6  C   LIG A   1      -6.680  -2.074 125.796  0.00  0.00    +0.079 C 
ATOM      7  C   LIG A   1      -6.334  -2.452 127.288  0.00  0.00    +0.189 C 
ATOM      8  C   LIG A   1      -7.388  -1.843 128.267  0.00  0.00    +0.046 C 
ATOM      9  C   LIG A   1      -7.759  -0.349 128.115  0.00  0.00    +0.011 C 
ATOM     10  C   LIG A   1      -7.823   0.228 126.656  0.00  0.00    -0.025 C 
ATOM     11  C   LIG A   1      -7.393   1.759 126.688  0.00  0.00    +0.006 C 
ATOM     12  C   LIG A   1      -8.415   2.736 127.332  0.00  0.00    +0.031 C 
ATOM     13  C   LIG A   1      -7.835   4.135 127.476  0.00  0.00    -0.026 C 
ATOM     14  C   LIG A   1      -6.501   4.257 127.276  0.00  0.00    -0.060 C 
ATOM     15  C   LIG A   1      -5.940   3.761 125.898  0.00  0.00    -0.005 C 
ATOM     16  C   LIG A   1      -4.376   3.576 125.925  0.00  0.00    +0.012 C 
ATOM     17  C   LIG A   1      -3.721   3.179 127.242  0.00  0.00    +0.019 C 
ATOM     18  C   LIG A   1      -4.152   4.090 128.424  0.00  0.00    +0.077 C 
ATOM     19  C   LIG A   1      -5.676   3.951 128.562  0.00  0.00    +0.061 C 
ATOM     20  C   LIG A   1      -6.282   4.418 129.925  0.00  0.00    +0.128 C 
ATOM     21  C   LIG A   1      -5.556   3.832 131.162  0.00  0.00    -0.008 C 
ATOM     22  C   LIG A   1      -6.077   4.528 132.438  0.00  0.00    +0.013 C 
ATOM     23  C   LIG A   1      -4.039   4.063 131.029  0.00  0.00    +0.010 C 
ATOM     24  C   LIG A   1      -3.452   3.553 129.706  0.00  0.00    +0.019 C 
ATOM     25  C   LIG A   1      -5.866   2.322 131.315  0.00  0.00    +0.013 C 
ATOM     26  C   LIG A   1      -6.111   4.923 124.868  0.00  0.00    +0.016 C 
ATOM     27  C   LIG A   1      -9.291   0.119 126.199  0.00  0.00    +0.012 C 
ENDROOT
BRANCH  20  28
ATOM     28  O   LIG A   1      -6.378   5.834 130.013  0.00  0.00    -0.391 OA
ATOM     29  H   LIG A   1      -7.264   6.080 130.346  0.00  0.00    +0.210 HD
ENDBRANCH  20  28
BRANCH  18  30
ATOM     30  C   LIG A   1      -3.697   5.538 128.187  0.00  0.00    +0.314 C 
ATOM     31  O   LIG A   1      -4.449   6.485 127.997  0.00  0.00    -0.250 OA
BRANCH  30  32
ATOM     32  O   LIG A   1      -2.353   5.645 128.374  0.00  0.00    -0.468 OA
ATOM     33  C   LIG A   1      -1.874   6.739 129.154  0.00  0.00    +0.280 C 
ENDBRANCH  30  32
ENDBRANCH  18  30
BRANCH   6  34
ATOM     34  C   LIG A   1      -7.953  -2.833 125.293  0.00  0.00    +0.246 C 
BRANCH  34  35
ATOM     35  O   LIG A   1      -8.030  -2.792 123.846  0.00  0.00    -0.464 OA
BRANCH  35  36
ATOM     36  C   LIG A   1      -9.277  -2.634 123.301  0.00  0.00    +0.304 C 
ATOM     37  C   LIG A   1      -9.423  -1.275 122.670  0.00  0.00    +0.136 C 
ATOM     38  O   LIG A   1     -10.141  -3.493 123.260  0.00  0.00    -0.251 OA
ENDBRANCH  35  36
ENDBRANCH  34  35
ENDBRANCH   6  34
BRANCH   7  39
ATOM     39  O   LIG A   1      -5.007  -1.993 127.766  0.00  0.00    -0.461 OA
BRANCH  39  40
ATOM     40  C   LIG A   1      -4.482  -2.446 128.952  0.00  0.00    +0.304 C 
ATOM     41  C   LIG A   1      -4.202  -1.341 129.932  0.00  0.00    +0.136 C 
ATOM     42  O   LIG A   1      -4.302  -3.584 129.274  0.00  0.00    -0.251 OA
ENDBRANCH  39  40
ENDBRANCH   7  39
BRANCH   6  43
ATOM     43  C   LIG A   1      -5.543  -2.505 124.824  0.00  0.00    +0.246 C 
BRANCH  43  44
ATOM     44  O   LIG A   1      -5.489  -3.929 124.635  0.00  0.00    -0.464 OA
BRANCH  44  45
ATOM     45  C   LIG A   1      -4.584  -4.346 123.702  0.00  0.00    +0.304 C 
ATOM     46  C   LIG A   1      -3.873  -3.199 123.074  0.00  0.00    +0.136 C 
ATOM     47  O   LIG A   1      -4.328  -5.513 123.441  0.00  0.00    -0.251 OA
ENDBRANCH  44  45
ENDBRANCH  43  44
ENDBRANCH   6  43
TORSDOF 11
ENDMDL
MODEL 2
REMARK VINA RESULT:      -8.3      2.660      5.757
REMARK  Name = NuBBE_484
REMARK  20 active torsions:
REMARK  status: ('A' for Active; 'I' for Inactive)
REMARK    1  A    between atoms: C_1  and  C_2
REMARK    2  A    between atoms: C_7  and  C_8
REMARK    3  A    between atoms: C_7  and  C_47
REMARK    4  A    between atoms: C_8  and  O_9
REMARK    5  A    between atoms: O_9  and  C_10
REMARK    6  A    between atoms: C_10  and  C_11
REMARK    7  A    between atoms: C_13  and  O_43
REMARK    8  A    between atoms: C_17  and  C_42
REMARK    9  A    between atoms: C_23  and  C_41
REMARK   10  A    between atoms: C_26  and  C_37
REMARK   11  A    between atoms: C_29  and  O_36
REMARK   12  A    between atoms: C_31  and  C_32
REMARK   13  A    between atoms: C_31  and  C_35
REMARK   14  A    between atoms: C_37  and  O_38
REMARK   15  A    between atoms: O_38  and  C_39
REMARK   16  A    between atoms: O_43  and  C_44
REMARK   17  A    between atoms: C_44  and  C_45
REMARK   18  A    between atoms: C_47  and  O_48
REMARK   19  A    between atoms: O_48  and  C_49
REMARK   20  A    between atoms: C_49  and  C_50
REMARK                            x       y       z     vdW  Elec       q    Type
REMARK                         _______ _______ _______ _____ _____    ______ ____
ROOT
ATOM      1  C   LIG A   1      -7.762  -0.520 130.524  0.00  0.00    +0.012 C 
ATOM      2  C   LIG A   1      -7.841   0.926 129.923  0.00  0.00    -0.019 C 
ATOM      3  C   LIG A   1      -8.710   0.777 128.670  0.00  0.00    +0.008 C 
ATOM      4  C   LIG A   1      -7.973   0.077 127.540  0.00  0.00    +0.005 C 
ATOM      5  C   LIG A   1      -6.821   0.994 127.104  0.00  0.00    +0.011 C 
ATOM      6  C   LIG A   1      -6.434   0.942 125.587  0.00  0.00    +0.079 C 
ATOM      7  C   LIG A   1      -5.579   2.240 125.321  0.00  0.00    +0.189 C 
ATOM      8  C   LIG A   1      -4.360   2.304 126.297  0.00  0.00    +0.046 C 
ATOM      9  C   LIG A   1      -4.610   2.067 127.805  0.00  0.00    +0.011 C 
ATOM     10  C   LIG A   1      -5.693   0.999 128.193  0.00  0.00    -0.025 C 
ATOM     11  C   LIG A   1      -6.388   1.440 129.555  0.00  0.00    +0.006 C 
ATOM     12  C   LIG A   1      -5.514   1.309 130.833  0.00  0.00    +0.031 C 
ATOM     13  C   LIG A   1      -6.202   1.921 132.044  0.00  0.00    -0.026 C 
ATOM     14  C   LIG A   1      -7.296   2.681 131.794  0.00  0.00    -0.060 C 
ATOM     15  C   LIG A   1      -8.468   2.002 131.004  0.00  0.00    -0.005 C 
ATOM     16  C   LIG A   1      -9.487   3.057 130.430  0.00  0.00    +0.012 C 
ATOM     17  C   LIG A   1      -8.957   4.434 130.046  0.00  0.00    +0.019 C 
ATOM     18  C   LIG A   1      -8.119   5.090 131.176  0.00  0.00    +0.077 C 
ATOM     19  C   LIG A   1      -6.930   4.155 131.450  0.00  0.00    +0.061 C 
ATOM     20  C   LIG A   1      -5.728   4.791 132.223  0.00  0.00    +0.128 C 
ATOM     21  C   LIG A   1      -5.251   6.140 131.629  0.00  0.00    -0.008 C 
ATOM     22  C   LIG A   1      -4.228   6.787 132.589  0.00  0.00    +0.013 C 
ATOM     23  C   LIG A   1      -6.456   7.080 131.447  0.00  0.00    +0.010 C 
ATOM     24  C   LIG A   1      -7.606   6.459 130.642  0.00  0.00    +0.019 C 
ATOM     25  C   LIG A   1      -4.522   5.918 130.280  0.00  0.00    +0.013 C 
ATOM     26  C   LIG A   1      -9.350   1.226 132.034  0.00  0.00    +0.016 C 
ATOM     27  C   LIG A   1      -4.948  -0.333 128.407  0.00  0.00    +0.012 C 
ENDROOT
BRANCH  20  28
ATOM     28  O   LIG A   1      -5.988   4.909 133.616  0.00  0.00    -0.391 OA
ATOM     29  H   LIG A   1      -5.794   5.823 133.906  0.00  0.00    +0.210 HD
ENDBRANCH  20  28
BRANCH  18  30
ATOM     30  C   LIG A   1      -8.987   5.342 132.418  0.00  0.00    +0.314 C 
ATOM     31  O   LIG A   1      -8.912   4.709 133.464  0.00  0.00    -0.250 OA
BRANCH  30  32
ATOM     32  O   LIG A   1      -9.738   6.465 132.248  0.00  0.00    -0.468 OA
ATOM     33  C   LIG A   1     -11.151   6.308 132.126  0.00  0.00    +0.280 C 
ENDBRANCH  30  32
ENDBRANCH  18  30
BRANCH   6  34
ATOM     34  C   LIG A   1      -5.678  -0.347 125.122  0.00  0.00    +0.246 C 
BRANCH  34  35
ATOM     35  O   LIG A   1      -6.606  -1.303 124.551  0.00  0.00    -0.464 OA
BRANCH  35  36
ATOM     36  C   LIG A   1      -6.187  -1.978 123.436  0.00  0.00    +0.304 C 
ATOM     37  C   LIG A   1      -5.136  -2.998 123.785  0.00  0.00    +0.136 C 
ATOM     38  O   LIG A   1      -6.641  -1.834 122.314  0.00  0.00    -0.251 OA
ENDBRANCH  35  36
ENDBRANCH  34  35
ENDBRANCH   6  34
BRANCH   7  39
ATOM     39  O   LIG A   1      -6.308   3.522 125.482  0.00  0.00    -0.461 OA
BRANCH  39  40
ATOM     40  C   LIG A   1      -5.978   4.627 124.735  0.00  0.00    +0.304 C 
ATOM     41  C   LIG A   1      -5.425   4.279 123.381  0.00  0.00    +0.136 C 
ATOM     42  O   LIG A   1      -6.147   5.774 125.030  0.00  0.00    -0.251 OA
ENDBRANCH  39  40
ENDBRANCH   7  39
BRANCH   6  43
ATOM     43  C   LIG A   1      -7.755   0.954 124.761  0.00  0.00    +0.246 C 
BRANCH  43  44
ATOM     44  O   LIG A   1      -7.610   1.626 123.499  0.00  0.00    -0.464 OA
BRANCH  44  45
ATOM     45  C   LIG A   1      -8.742   2.243 123.049  0.00  0.00    +0.304 C 
ATOM     46  C   LIG A   1      -9.970   1.613 123.606  0.00  0.00    +0.136 C 
ATOM     47  O   LIG A   1      -8.767   3.231 122.329  0.00  0.00    -0.251 OA
ENDBRANCH  44  45
ENDBRANCH  43  44
ENDBRANCH   6  43
TORSDOF 11
ENDMDL
MODEL 3
REMARK VINA RESULT:      -8.2      2.278      3.786
REMARK  Name = NuBBE_484
REMARK  20 active torsions:
REMARK  status: ('A' for Active; 'I' for Inactive)
REMARK    1  A    between atoms: C_1  and  C_2
REMARK    2  A    between atoms: C_7  and  C_8
REMARK    3  A    between atoms: C_7  and  C_47
REMARK    4  A    between atoms: C_8  and  O_9
REMARK    5  A    between atoms: O_9  and  C_10
REMARK    6  A    between atoms: C_10  and  C_11
REMARK    7  A    between atoms: C_13  and  O_43
REMARK    8  A    between atoms: C_17  and  C_42
REMARK    9  A    between atoms: C_23  and  C_41
REMARK   10  A    between atoms: C_26  and  C_37
REMARK   11  A    between atoms: C_29  and  O_36
REMARK   12  A    between atoms: C_31  and  C_32
REMARK   13  A    between atoms: C_31  and  C_35
REMARK   14  A    between atoms: C_37  and  O_38
REMARK   15  A    between atoms: O_38  and  C_39
REMARK   16  A    between atoms: O_43  and  C_44
REMARK   17  A    between atoms: C_44  and  C_45
REMARK   18  A    between atoms: C_47  and  O_48
REMARK   19  A    between atoms: O_48  and  C_49
REMARK   20  A    between atoms: C_49  and  C_50
REMARK                            x       y       z     vdW  Elec       q    Type
REMARK                         _______ _______ _______ _____ _____    ______ ____
ROOT
ATOM      1  C   LIG A   1      -4.581   4.563 126.954  0.00  0.00    +0.012 C 
ATOM      2  C   LIG A   1      -4.944   3.314 127.830  0.00  0.00    -0.019 C 
ATOM      3  C   LIG A   1      -4.272   2.135 127.118  0.00  0.00    +0.008 C 
ATOM      4  C   LIG A   1      -4.990   1.755 125.833  0.00  0.00    +0.005 C 
ATOM      5  C   LIG A   1      -6.380   1.231 126.220  0.00  0.00    +0.011 C 
ATOM      6  C   LIG A   1      -6.977   0.113 125.299  0.00  0.00    +0.079 C 
ATOM      7  C   LIG A   1      -8.147  -0.542 126.129  0.00  0.00    +0.189 C 
ATOM      8  C   LIG A   1      -9.177   0.544 126.577  0.00  0.00    +0.046 C 
ATOM      9  C   LIG A   1      -8.645   1.837 127.239  0.00  0.00    +0.011 C 
ATOM     10  C   LIG A   1      -7.292   2.417 126.693  0.00  0.00    -0.025 C 
ATOM     11  C   LIG A   1      -6.516   3.129 127.885  0.00  0.00    +0.006 C 
ATOM     12  C   LIG A   1      -7.123   4.472 128.378  0.00  0.00    +0.031 C 
ATOM     13  C   LIG A   1      -6.418   4.975 129.629  0.00  0.00    -0.026 C 
ATOM     14  C   LIG A   1      -5.589   4.100 130.247  0.00  0.00    -0.060 C 
ATOM     15  C   LIG A   1      -4.428   3.491 129.386  0.00  0.00    -0.005 C 
ATOM     16  C   LIG A   1      -3.793   2.218 130.061  0.00  0.00    +0.012 C 
ATOM     17  C   LIG A   1      -4.687   1.340 130.928  0.00  0.00    +0.019 C 
ATOM     18  C   LIG A   1      -5.469   2.153 131.996  0.00  0.00    +0.077 C 
ATOM     19  C   LIG A   1      -6.344   3.162 131.236  0.00  0.00    +0.061 C 
ATOM     20  C   LIG A   1      -7.525   3.787 132.049  0.00  0.00    +0.128 C 
ATOM     21  C   LIG A   1      -8.396   2.738 132.784  0.00  0.00    -0.008 C 
ATOM     22  C   LIG A   1      -9.380   3.462 133.729  0.00  0.00    +0.013 C 
ATOM     23  C   LIG A   1      -7.493   1.796 133.601  0.00  0.00    +0.010 C 
ATOM     24  C   LIG A   1      -6.370   1.152 132.777  0.00  0.00    +0.019 C 
ATOM     25  C   LIG A   1      -9.254   1.933 131.775  0.00  0.00    +0.013 C 
ATOM     26  C   LIG A   1      -3.237   4.501 129.411  0.00  0.00    +0.016 C 
ATOM     27  C   LIG A   1      -7.657   3.463 125.622  0.00  0.00    +0.012 C 
ENDROOT
BRANCH  20  28
ATOM     28  O   LIG A   1      -7.085   4.802 132.942  0.00  0.00    -0.391 OA
ATOM     29  H   LIG A   1      -6.148   4.648 133.172  0.00  0.00    +0.210 HD
ENDBRANCH  20  28
BRANCH  18  30
ATOM     30  C   LIG A   1      -4.502   2.818 132.987  0.00  0.00    +0.314 C 
ATOM     31  O   LIG A   1      -4.301   4.023 133.065  0.00  0.00    -0.250 OA
BRANCH  30  32
ATOM     32  O   LIG A   1      -4.022   1.896 133.866  0.00  0.00    -0.468 OA
ATOM     33  C   LIG A   1      -3.911   2.277 135.237  0.00  0.00    +0.280 C 
ENDBRANCH  30  32
ENDBRANCH  18  30
BRANCH   6  34
ATOM     34  C   LIG A   1      -7.469   0.584 123.890  0.00  0.00    +0.246 C 
BRANCH  34  35
ATOM     35  O   LIG A   1      -8.660  -0.144 123.497  0.00  0.00    -0.464 OA
BRANCH  35  36
ATOM     36  C   LIG A   1      -9.660   0.583 122.907  0.00  0.00    +0.304 C 
ATOM     37  C   LIG A   1      -9.275   2.034 122.790  0.00  0.00    +0.136 C 
ATOM     38  O   LIG A   1     -10.699   0.123 122.468  0.00  0.00    -0.251 OA
ENDBRANCH  35  36
ENDBRANCH  34  35
ENDBRANCH   6  34
BRANCH   7  39
ATOM     39  O   LIG A   1      -7.727  -1.252 127.362  0.00  0.00    -0.461 OA
BRANCH  39  40
ATOM     40  C   LIG A   1      -8.132  -2.540 127.615  0.00  0.00    +0.304 C 
ATOM     41  C   LIG A   1      -8.021  -2.918 129.066  0.00  0.00    +0.136 C 
ATOM     42  O   LIG A   1      -8.601  -3.316 126.833  0.00  0.00    -0.251 OA
ENDBRANCH  39  40
ENDBRANCH   7  39
BRANCH   6  43
ATOM     43  C   LIG A   1      -5.844  -0.914 125.007  0.00  0.00    +0.246 C 
BRANCH  43  44
ATOM     44  O   LIG A   1      -6.344  -2.149 124.469  0.00  0.00    -0.464 OA
BRANCH  44  45
ATOM     45  C   LIG A   1      -5.707  -2.580 123.342  0.00  0.00    +0.304 C 
ATOM     46  C   LIG A   1      -4.756  -3.687 123.638  0.00  0.00    +0.136 C 
ATOM     47  O   LIG A   1      -5.919  -2.168 122.211  0.00  0.00    -0.251 OA
ENDBRANCH  44  45
ENDBRANCH  43  44
ENDBRANCH   6  43
TORSDOF 11
ENDMDL
MODEL 4
REMARK VINA RESULT:      -8.2      2.560      5.724
REMARK  Name = NuBBE_484
REMARK  20 active torsions:
REMARK  status: ('A' for Active; 'I' for Inactive)
REMARK    1  A    between atoms: C_1  and  C_2
REMARK    2  A    between atoms: C_7  and  C_8
REMARK    3  A    between atoms: C_7  and  C_47
REMARK    4  A    between atoms: C_8  and  O_9
REMARK    5  A    between atoms: O_9  and  C_10
REMARK    6  A    between atoms: C_10  and  C_11
REMARK    7  A    between atoms: C_13  and  O_43
REMARK    8  A    between atoms: C_17  and  C_42
REMARK    9  A    between atoms: C_23  and  C_41
REMARK   10  A    between atoms: C_26  and  C_37
REMARK   11  A    between atoms: C_29  and  O_36
REMARK   12  A    between atoms: C_31  and  C_32
REMARK   13  A    between atoms: C_31  and  C_35
REMARK   14  A    between atoms: C_37  and  O_38
REMARK   15  A    between atoms: O_38  and  C_39
REMARK   16  A    between atoms: O_43  and  C_44
REMARK   17  A    between atoms: C_44  and  C_45
REMARK   18  A    between atoms: C_47  and  O_48
REMARK   19  A    between atoms: O_48  and  C_49
REMARK   20  A    between atoms: C_49  and  C_50
REMARK                            x       y       z     vdW  Elec       q    Type
REMARK                         _______ _______ _______ _____ _____    ______ ____
ROOT
ATOM      1  C   LIG A   1      -6.461  -3.362 131.036  0.00  0.00    +0.012 C 
ATOM      2  C   LIG A   1      -6.977  -1.966 130.544  0.00  0.00    -0.019 C 
ATOM      3  C   LIG A   1      -8.242  -2.284 129.740  0.00  0.00    +0.008 C 
ATOM      4  C   LIG A   1      -7.924  -2.919 128.396  0.00  0.00    +0.005 C 
ATOM      5  C   LIG A   1      -7.185  -1.870 127.554  0.00  0.00    +0.011 C 
ATOM      6  C   LIG A   1      -7.430  -1.929 126.008  0.00  0.00    +0.079 C 
ATOM      7  C   LIG A   1      -6.946  -0.537 125.448  0.00  0.00    +0.189 C 
ATOM      8  C   LIG A   1      -5.462  -0.267 125.856  0.00  0.00    +0.046 C 
ATOM      9  C   LIG A   1      -5.054  -0.475 127.334  0.00  0.00    +0.011 C 
ATOM     10  C   LIG A   1      -5.729  -1.667 128.102  0.00  0.00    -0.025 C 
ATOM     11  C   LIG A   1      -5.880  -1.273 129.636  0.00  0.00    +0.006 C 
ATOM     12  C   LIG A   1      -4.560  -1.231 130.455  0.00  0.00    +0.031 C 
ATOM     13  C   LIG A   1      -4.790  -0.672 131.852  0.00  0.00    -0.026 C 
ATOM     14  C   LIG A   1      -5.988  -0.080 132.074  0.00  0.00    -0.060 C 
ATOM     15  C   LIG A   1      -7.268  -0.945 131.805  0.00  0.00    -0.005 C 
ATOM     16  C   LIG A   1      -8.570  -0.064 131.706  0.00  0.00    +0.012 C 
ATOM     17  C   LIG A   1      -8.439   1.356 131.169  0.00  0.00    +0.019 C 
ATOM     18  C   LIG A   1      -7.322   2.166 131.882  0.00  0.00    +0.077 C 
ATOM     19  C   LIG A   1      -6.003   1.416 131.641  0.00  0.00    +0.061 C 
ATOM     20  C   LIG A   1      -4.697   2.241 131.881  0.00  0.00    +0.128 C 
ATOM     21  C   LIG A   1      -4.692   3.618 131.172  0.00  0.00    -0.008 C 
ATOM     22  C   LIG A   1      -3.476   4.438 131.655  0.00  0.00    +0.013 C 
ATOM     23  C   LIG A   1      -5.991   4.376 131.504  0.00  0.00    +0.010 C 
ATOM     24  C   LIG A   1      -7.265   3.570 131.214  0.00  0.00    +0.019 C 
ATOM     25  C   LIG A   1      -4.537   3.445 129.640  0.00  0.00    +0.013 C 
ATOM     26  C   LIG A   1      -7.548  -1.794 133.087  0.00  0.00    +0.016 C 
ATOM     27  C   LIG A   1      -4.779  -2.873 127.975  0.00  0.00    +0.012 C 
ENDROOT
BRANCH  20  28
ATOM     28  O   LIG A   1      -4.395   2.378 133.264  0.00  0.00    -0.391 OA
ATOM     29  H   LIG A   1      -3.426   2.440 133.380  0.00  0.00    +0.210 HD
ENDBRANCH  20  28
BRANCH  18  30
ATOM     30  C   LIG A   1      -7.651   2.345 133.372  0.00  0.00    +0.314 C 
ATOM     31  O   LIG A   1      -6.970   1.916 134.295  0.00  0.00    -0.250 OA
BRANCH  30  32
ATOM     32  O   LIG A   1      -8.716   3.179 133.522  0.00  0.00    -0.468 OA
ATOM     33  C   LIG A   1      -8.613   4.224 134.489  0.00  0.00    +0.280 C 
ENDBRANCH  30  32
ENDBRANCH  18  30
BRANCH   6  34
ATOM     34  C   LIG A   1      -6.746  -3.119 125.255  0.00  0.00    +0.246 C 
BRANCH  34  35
ATOM     35  O   LIG A   1      -5.439  -2.727 124.766  0.00  0.00    -0.464 OA
BRANCH  35  36
ATOM     36  C   LIG A   1      -5.069  -3.212 123.540  0.00  0.00    +0.304 C 
ATOM     37  C   LIG A   1      -4.434  -4.571 123.667  0.00  0.00    +0.136 C 
ATOM     38  O   LIG A   1      -5.281  -2.663 122.473  0.00  0.00    -0.251 OA
ENDBRANCH  35  36
ENDBRANCH  34  35
ENDBRANCH   6  34
BRANCH   7  39
ATOM     39  O   LIG A   1      -7.725   0.638 125.910  0.00  0.00    -0.461 OA
BRANCH  39  40
ATOM     40  C   LIG A   1      -8.271   1.527 125.016  0.00  0.00    +0.304 C 
ATOM     41  C   LIG A   1      -7.665   1.429 123.644  0.00  0.00    +0.136 C 
ATOM     42  O   LIG A   1      -9.180   2.280 125.212  0.00  0.00    -0.251 OA
ENDBRANCH  39  40
ENDBRANCH   7  39
BRANCH   6  43
ATOM     43  C   LIG A   1      -8.957  -2.132 125.779  0.00  0.00    +0.246 C 
BRANCH  43  44
ATOM     44  O   LIG A   1      -9.407  -1.577 124.532  0.00  0.00    -0.464 OA
BRANCH  44  45
ATOM     45  C   LIG A   1      -9.423  -2.458 123.489  0.00  0.00    +0.304 C 
ATOM     46  C   LIG A   1      -8.567  -1.992 122.363  0.00  0.00    +0.136 C 
ATOM     47  O   LIG A   1     -10.009  -3.530 123.481  0.00  0.00    -0.251 OA
ENDBRANCH  44  45
ENDBRANCH  43  44
ENDBRANCH   6  43
TORSDOF 11
ENDMDL
MODEL 5
REMARK VINA RESULT:      -8.1      2.511      8.721
REMARK  Name = NuBBE_484
REMARK  20 active torsions:
REMARK  status: ('A' for Active; 'I' for Inactive)
REMARK    1  A    between atoms: C_1  and  C_2
REMARK    2  A    between atoms: C_7  and  C_8
REMARK    3  A    between atoms: C_7  and  C_47
REMARK    4  A    between atoms: C_8  and  O_9
REMARK    5  A    between atoms: O_9  and  C_10
REMARK    6  A    between atoms: C_10  and  C_11
REMARK    7  A    between atoms: C_13  and  O_43
REMARK    8  A    between atoms: C_17  and  C_42
REMARK    9  A    between atoms: C_23  and  C_41
REMARK   10  A    between atoms: C_26  and  C_37
REMARK   11  A    between atoms: C_29  and  O_36
REMARK   12  A    between atoms: C_31  and  C_32
REMARK   13  A    between atoms: C_31  and  C_35
REMARK   14  A    between atoms: C_37  and  O_38
REMARK   15  A    between atoms: O_38  and  C_39
REMARK   16  A    between atoms: O_43  and  C_44
REMARK   17  A    between atoms: C_44  and  C_45
REMARK   18  A    between atoms: C_47  and  O_48
REMARK   19  A    between atoms: O_48  and  C_49
REMARK   20  A    between atoms: C_49  and  C_50
REMARK                            x       y       z     vdW  Elec       q    Type
REMARK                         _______ _______ _______ _____ _____    ______ ____
ROOT
ATOM      1  C   LIG A   1      -6.886   0.731 133.600  0.00  0.00    +0.012 C 
ATOM      2  C   LIG A   1      -6.314   0.777 132.141  0.00  0.00    -0.019 C 
ATOM      3  C   LIG A   1      -5.222   1.852 132.188  0.00  0.00    +0.008 C 
ATOM      4  C   LIG A   1      -5.802   3.255 132.271  0.00  0.00    +0.005 C 
ATOM      5  C   LIG A   1      -6.551   3.522 130.959  0.00  0.00    +0.011 C 
ATOM      6  C   LIG A   1      -6.549   5.005 130.452  0.00  0.00    +0.079 C 
ATOM      7  C   LIG A   1      -6.971   4.936 128.934  0.00  0.00    +0.189 C 
ATOM      8  C   LIG A   1      -8.342   4.202 128.778  0.00  0.00    +0.046 C 
ATOM      9  C   LIG A   1      -8.540   2.849 129.501  0.00  0.00    +0.011 C 
ATOM     10  C   LIG A   1      -7.879   2.689 130.916  0.00  0.00    -0.025 C 
ATOM     11  C   LIG A   1      -7.460   1.168 131.121  0.00  0.00    +0.006 C 
ATOM     12  C   LIG A   1      -8.630   0.167 131.334  0.00  0.00    +0.031 C 
ATOM     13  C   LIG A   1      -8.137  -1.272 131.338  0.00  0.00    -0.026 C 
ATOM     14  C   LIG A   1      -6.866  -1.475 130.916  0.00  0.00    -0.060 C 
ATOM     15  C   LIG A   1      -5.734  -0.693 131.669  0.00  0.00    -0.005 C 
ATOM     16  C   LIG A   1      -4.380  -0.685 130.863  0.00  0.00    +0.012 C 
ATOM     17  C   LIG A   1      -4.448  -0.722 129.341  0.00  0.00    +0.019 C 
ATOM     18  C   LIG A   1      -5.357  -1.863 128.810  0.00  0.00    +0.077 C 
ATOM     19  C   LIG A   1      -6.766  -1.608 129.367  0.00  0.00    +0.061 C 
ATOM     20  C   LIG A   1      -7.932  -2.354 128.639  0.00  0.00    +0.128 C 
ATOM     21  C   LIG A   1      -7.906  -2.196 127.099  0.00  0.00    -0.008 C 
ATOM     22  C   LIG A   1      -8.947  -3.147 126.469  0.00  0.00    +0.013 C 
ATOM     23  C   LIG A   1      -6.502  -2.540 126.567  0.00  0.00    +0.010 C 
ATOM     24  C   LIG A   1      -5.374  -1.761 127.257  0.00  0.00    +0.019 C 
ATOM     25  C   LIG A   1      -8.307  -0.756 126.689  0.00  0.00    +0.013 C 
ATOM     26  C   LIG A   1      -5.350  -1.516 132.940  0.00  0.00    +0.016 C 
ATOM     27  C   LIG A   1      -8.954   3.067 131.954  0.00  0.00    +0.012 C 
ENDROOT
BRANCH  20  28
ATOM     28  O   LIG A   1      -8.006  -3.725 129.010  0.00  0.00    -0.391 OA
ATOM     29  H   LIG A   1      -8.872  -4.089 128.738  0.00  0.00    +0.210 HD
ENDBRANCH  20  28
BRANCH  18  30
ATOM     30  C   LIG A   1      -4.791  -3.236 129.205  0.00  0.00    +0.314 C 
ATOM     31  O   LIG A   1      -3.694  -3.662 128.869  0.00  0.00    -0.250 OA
BRANCH  30  32
ATOM     32  O   LIG A   1      -5.613  -3.842 130.106  0.00  0.00    -0.468 OA
ATOM     33  C   LIG A   1      -5.018  -4.706 131.073  0.00  0.00    +0.280 C 
ENDBRANCH  30  32
ENDBRANCH  18  30
BRANCH   6  34
ATOM     34  C   LIG A   1      -7.455   5.998 131.254  0.00  0.00    +0.246 C 
BRANCH  34  35
ATOM     35  O   LIG A   1      -7.863   7.106 130.413  0.00  0.00    -0.464 OA
BRANCH  35  36
ATOM     36  C   LIG A   1      -9.209   7.268 130.220  0.00  0.00    +0.304 C 
ATOM     37  C   LIG A   1      -9.999   6.545 131.279  0.00  0.00    +0.136 C 
ATOM     38  O   LIG A   1      -9.718   7.959 129.353  0.00  0.00    -0.251 OA
ENDBRANCH  35  36
ENDBRANCH  34  35
ENDBRANCH   6  34
BRANCH   7  39
ATOM     39  O   LIG A   1      -6.017   4.231 128.044  0.00  0.00    -0.461 OA
BRANCH  39  40
ATOM     40  C   LIG A   1      -6.146   4.287 126.677  0.00  0.00    +0.304 C 
ATOM     41  C   LIG A   1      -6.170   2.929 126.032  0.00  0.00    +0.136 C 
ATOM     42  O   LIG A   1      -6.297   5.266 126.006  0.00  0.00    -0.251 OA
ENDBRANCH  39  40
ENDBRANCH   7  39
BRANCH   6  43
ATOM     43  C   LIG A   1      -5.103   5.558 130.615  0.00  0.00    +0.246 C 
BRANCH  43  44
ATOM     44  O   LIG A   1      -4.888   6.769 129.872  0.00  0.00    -0.464 OA
BRANCH  44  45
ATOM     45  C   LIG A   1      -3.837   6.727 129.002  0.00  0.00    +0.304 C 
ATOM     46  C   LIG A   1      -2.563   6.396 129.697  0.00  0.00    +0.136 C 
ATOM     47  O   LIG A   1      -3.918   6.875 127.792  0.00  0.00    -0.251 OA
ENDBRANCH  44  45
ENDBRANCH  43  44
ENDBRANCH   6  43
TORSDOF 11
ENDMDL
MODEL 6
REMARK VINA RESULT:      -7.8      2.596      8.197
REMARK  Name = NuBBE_484
REMARK  20 active torsions:
REMARK  status: ('A' for Active; 'I' for Inactive)
REMARK    1  A    between atoms: C_1  and  C_2
REMARK    2  A    between atoms: C_7  and  C_8
REMARK    3  A    between atoms: C_7  and  C_47
REMARK    4  A    between atoms: C_8  and  O_9
REMARK    5  A    between atoms: O_9  and  C_10
REMARK    6  A    between atoms: C_10  and  C_11
REMARK    7  A    between atoms: C_13  and  O_43
REMARK    8  A    between atoms: C_17  and  C_42
REMARK    9  A    between atoms: C_23  and  C_41
REMARK   10  A    between atoms: C_26  and  C_37
REMARK   11  A    between atoms: C_29  and  O_36
REMARK   12  A    between atoms: C_31  and  C_32
REMARK   13  A    between atoms: C_31  and  C_35
REMARK   14  A    between atoms: C_37  and  O_38
REMARK   15  A    between atoms: O_38  and  C_39
REMARK   16  A    between atoms: O_43  and  C_44
REMARK   17  A    between atoms: C_44  and  C_45
REMARK   18  A    between atoms: C_47  and  O_48
REMARK   19  A    between atoms: O_48  and  C_49
REMARK   20  A    between atoms: C_49  and  C_50
REMARK                            x       y       z     vdW  Elec       q    Type
REMARK                         _______ _______ _______ _____ _____    ______ ____
ROOT
ATOM      1  C   LIG A   1      -7.466   3.507 126.657  0.00  0.00    +0.012 C 
ATOM      2  C   LIG A   1      -7.727   1.991 126.962  0.00  0.00    -0.019 C 
ATOM      3  C   LIG A   1      -8.637   1.997 128.195  0.00  0.00    +0.008 C 
ATOM      4  C   LIG A   1      -7.886   2.379 129.461  0.00  0.00    +0.005 C 
ATOM      5  C   LIG A   1      -6.861   1.271 129.741  0.00  0.00    +0.011 C 
ATOM      6  C   LIG A   1      -6.546   0.987 131.249  0.00  0.00    +0.079 C 
ATOM      7  C   LIG A   1      -5.848  -0.426 131.279  0.00  0.00    +0.189 C 
ATOM      8  C   LIG A   1      -4.596  -0.440 130.344  0.00  0.00    +0.046 C 
ATOM      9  C   LIG A   1      -4.745   0.107 128.905  0.00  0.00    +0.011 C 
ATOM     10  C   LIG A   1      -5.688   1.346 128.703  0.00  0.00    -0.025 C 
ATOM     11  C   LIG A   1      -6.358   1.255 127.263  0.00  0.00    +0.006 C 
ATOM     12  C   LIG A   1      -5.412   1.528 126.060  0.00  0.00    +0.031 C 
ATOM     13  C   LIG A   1      -6.101   1.241 124.734  0.00  0.00    -0.026 C 
ATOM     14  C   LIG A   1      -7.280   0.576 124.800  0.00  0.00    -0.060 C 
ATOM     15  C   LIG A   1      -8.411   1.221 125.675  0.00  0.00    -0.005 C 
ATOM     16  C   LIG A   1      -9.563   0.198 126.003  0.00  0.00    +0.012 C 
ATOM     17  C   LIG A   1      -9.203  -1.278 126.125  0.00  0.00    +0.019 C 
ATOM     18  C   LIG A   1      -8.384  -1.797 124.912  0.00  0.00    +0.077 C 
ATOM     19  C   LIG A   1      -7.091  -0.969 124.859  0.00  0.00    +0.061 C 
ATOM     20  C   LIG A   1      -5.927  -1.577 124.011  0.00  0.00    +0.128 C 
ATOM     21  C   LIG A   1      -5.625  -3.060 124.342  0.00  0.00    -0.008 C 
ATOM     22  C   LIG A   1      -4.631  -3.625 123.304  0.00  0.00    +0.013 C 
ATOM     23  C   LIG A   1      -6.932  -3.875 124.304  0.00  0.00    +0.010 C 
ATOM     24  C   LIG A   1      -8.047  -3.292 125.183  0.00  0.00    +0.019 C 
ATOM     25  C   LIG A   1      -4.945  -3.184 125.729  0.00  0.00    +0.013 C 
ATOM     26  C   LIG A   1      -9.154   2.274 124.792  0.00  0.00    +0.016 C 
ATOM     27  C   LIG A   1      -4.795   2.600 128.774  0.00  0.00    +0.012 C 
ENDROOT
BRANCH  20  28
ATOM     28  O   LIG A   1      -6.129  -1.397 122.615  0.00  0.00    -0.391 OA
ATOM     29  H   LIG A   1      -5.314  -1.645 122.134  0.00  0.00    +0.210 HD
ENDBRANCH  20  28
BRANCH  18  30
ATOM     30  C   LIG A   1      -9.212  -1.706 123.621  0.00  0.00    +0.314 C 
ATOM     31  O   LIG A   1     -10.092  -2.494 123.298  0.00  0.00    -0.250 OA
BRANCH  30  32
ATOM     32  O   LIG A   1      -8.937  -0.545 122.966  0.00  0.00    -0.468 OA
ATOM     33  C   LIG A   1     -10.001   0.087 122.255  0.00  0.00    +0.280 C 
ENDBRANCH  30  32
ENDBRANCH  18  30
BRANCH   6  34
ATOM     34  C   LIG A   1      -5.681   2.069 131.977  0.00  0.00    +0.246 C 
BRANCH  34  35
ATOM     35  O   LIG A   1      -4.873   1.460 133.016  0.00  0.00    -0.464 OA
BRANCH  35  36
ATOM     36  C   LIG A   1      -3.537   1.763 133.014  0.00  0.00    +0.304 C 
ATOM     37  C   LIG A   1      -3.294   3.129 132.429  0.00  0.00    +0.136 C 
ATOM     38  O   LIG A   1      -2.656   1.062 133.482  0.00  0.00    -0.251 OA
ENDBRANCH  35  36
ENDBRANCH  34  35
ENDBRANCH   6  34
BRANCH   7  39
ATOM     39  O   LIG A   1      -6.700  -1.562 130.851  0.00  0.00    -0.461 OA
BRANCH  39  40
ATOM     40  C   LIG A   1      -6.281  -2.862 131.000  0.00  0.00    +0.304 C 
ATOM     41  C   LIG A   1      -6.413  -3.671 129.739  0.00  0.00    +0.136 C 
ATOM     42  O   LIG A   1      -5.788  -3.355 131.972  0.00  0.00    -0.251 OA
ENDBRANCH  39  40
ENDBRANCH   7  39
BRANCH   6  43
ATOM     43  C   LIG A   1      -7.899   0.968 132.019  0.00  0.00    +0.246 C 
BRANCH  43  44
ATOM     44  O   LIG A   1      -7.996   2.023 132.991  0.00  0.00    -0.464 OA
BRANCH  44  45
ATOM     45  C   LIG A   1      -9.208   2.649 133.034  0.00  0.00    +0.304 C 
ATOM     46  C   LIG A   1     -10.182   2.026 132.096  0.00  0.00    +0.136 C 
ATOM     47  O   LIG A   1      -9.501   3.567 133.785  0.00  0.00    -0.251 OA
ENDBRANCH  44  45
ENDBRANCH  43  44
ENDBRANCH   6  43
TORSDOF 11
ENDMDL
MODEL 7
REMARK VINA RESULT:      -7.5      3.123      5.934
REMARK  Name = NuBBE_484
REMARK  20 active torsions:
REMARK  status: ('A' for Active; 'I' for Inactive)
REMARK    1  A    between atoms: C_1  and  C_2
REMARK    2  A    between atoms: C_7  and  C_8
REMARK    3  A    between atoms: C_7  and  C_47
REMARK    4  A    between atoms: C_8  and  O_9
REMARK    5  A    between atoms: O_9  and  C_10
REMARK    6  A    between atoms: C_10  and  C_11
REMARK    7  A    between atoms: C_13  and  O_43
REMARK    8  A    between atoms: C_17  and  C_42
REMARK    9  A    between atoms: C_23  and  C_41
REMARK   10  A    between atoms: C_26  and  C_37
REMARK   11  A    between atoms: C_29  and  O_36
REMARK   12  A    between atoms: C_31  and  C_32
REMARK   13  A    between atoms: C_31  and  C_35
REMARK   14  A    between atoms: C_37  and  O_38
REMARK   15  A    between atoms: O_38  and  C_39
REMARK   16  A    between atoms: O_43  and  C_44
REMARK   17  A    between atoms: C_44  and  C_45
REMARK   18  A    between atoms: C_47  and  O_48
REMARK   19  A    between atoms: O_48  and  C_49
REMARK   20  A    between atoms: C_49  and  C_50
REMARK                            x       y       z     vdW  Elec       q    Type
REMARK                         _______ _______ _______ _____ _____    ______ ____
ROOT
ATOM      1  C   LIG A   1      -3.266   2.482 128.503  0.00  0.00    +0.012 C 
ATOM      2  C   LIG A   1      -4.757   2.004 128.588  0.00  0.00    -0.019 C 
ATOM      3  C   LIG A   1      -4.887   0.948 127.485  0.00  0.00    +0.008 C 
ATOM      4  C   LIG A   1      -4.904   1.567 126.097  0.00  0.00    +0.005 C 
ATOM      5  C   LIG A   1      -6.185   2.406 125.982  0.00  0.00    +0.011 C 
ATOM      6  C   LIG A   1      -6.832   2.484 124.558  0.00  0.00    +0.079 C 
ATOM      7  C   LIG A   1      -8.306   2.998 124.789  0.00  0.00    +0.189 C 
ATOM      8  C   LIG A   1      -8.299   4.350 125.571  0.00  0.00    +0.046 C 
ATOM      9  C   LIG A   1      -7.436   4.459 126.850  0.00  0.00    +0.011 C 
ATOM     10  C   LIG A   1      -6.058   3.706 126.850  0.00  0.00    -0.025 C 
ATOM     11  C   LIG A   1      -5.734   3.224 128.331  0.00  0.00    +0.006 C 
ATOM     12  C   LIG A   1      -5.348   4.345 129.337  0.00  0.00    +0.031 C 
ATOM     13  C   LIG A   1      -5.235   3.806 130.755  0.00  0.00    -0.026 C 
ATOM     14  C   LIG A   1      -5.717   2.557 130.965  0.00  0.00    -0.060 C 
ATOM     15  C   LIG A   1      -5.120   1.407 130.081  0.00  0.00    -0.005 C 
ATOM     16  C   LIG A   1      -6.010   0.107 130.118  0.00  0.00    +0.012 C 
ATOM     17  C   LIG A   1      -7.513   0.269 130.308  0.00  0.00    +0.019 C 
ATOM     18  C   LIG A   1      -7.870   1.172 131.521  0.00  0.00    +0.077 C 
ATOM     19  C   LIG A   1      -7.249   2.551 131.249  0.00  0.00    +0.061 C 
ATOM     20  C   LIG A   1      -7.822   3.734 132.095  0.00  0.00    +0.128 C 
ATOM     21  C   LIG A   1      -9.369   3.810 132.090  0.00  0.00    -0.008 C 
ATOM     22  C   LIG A   1      -9.833   4.856 133.127  0.00  0.00    +0.013 C 
ATOM     23  C   LIG A   1      -9.956   2.432 132.448  0.00  0.00    +0.010 C 
ATOM     24  C   LIG A   1      -9.421   1.289 131.574  0.00  0.00    +0.019 C 
ATOM     25  C   LIG A   1      -9.891   4.283 130.710  0.00  0.00    +0.013 C 
ATOM     26  C   LIG A   1      -3.803   0.918 130.764  0.00  0.00    +0.016 C 
ATOM     27  C   LIG A   1      -4.994   4.725 126.399  0.00  0.00    +0.012 C 
ENDROOT
BRANCH  20  28
ATOM     28  O   LIG A   1      -7.314   3.740 133.423  0.00  0.00    -0.391 OA
ATOM     29  H   LIG A   1      -7.062   4.652 133.671  0.00  0.00    +0.210 HD
ENDBRANCH  20  28
BRANCH  18  30
ATOM     30  C   LIG A   1      -7.380   0.537 132.832  0.00  0.00    +0.314 C 
ATOM     31  O   LIG A   1      -6.745   1.124 133.698  0.00  0.00    -0.250 OA
BRANCH  30  32
ATOM     32  O   LIG A   1      -7.886  -0.720 132.963  0.00  0.00    -0.468 OA
ATOM     33  C   LIG A   1      -7.001  -1.751 133.399  0.00  0.00    +0.280 C 
ENDBRANCH  30  32
ENDBRANCH  18  30
BRANCH   6  34
ATOM     34  C   LIG A   1      -6.074   3.370 123.514  0.00  0.00    +0.246 C 
BRANCH  34  35
ATOM     35  O   LIG A   1      -6.486   3.033 122.165  0.00  0.00    -0.464 OA
BRANCH  35  36
ATOM     36  C   LIG A   1      -6.093   3.887 121.169  0.00  0.00    +0.304 C 
ATOM     37  C   LIG A   1      -4.781   4.544 121.508  0.00  0.00    +0.136 C 
ATOM     38  O   LIG A   1      -6.678   4.053 120.113  0.00  0.00    -0.251 OA
ENDBRANCH  35  36
ENDBRANCH  34  35
ENDBRANCH   6  34
BRANCH   7  39
ATOM     39  O   LIG A   1      -9.184   2.079 125.553  0.00  0.00    -0.461 OA
BRANCH  39  40
ATOM     40  C   LIG A   1      -9.971   1.152 124.915  0.00  0.00    +0.304 C 
ATOM     41  C   LIG A   1     -10.210   1.478 123.467  0.00  0.00    +0.136 C 
ATOM     42  O   LIG A   1     -10.401   0.133 125.373  0.00  0.00    -0.251 OA
ENDBRANCH  39  40
ENDBRANCH   7  39
BRANCH   6  43
ATOM     43  C   LIG A   1      -6.820   1.049 123.953  0.00  0.00    +0.246 C 
BRANCH  43  44
ATOM     44  O   LIG A   1      -7.008   0.030 124.947  0.00  0.00    -0.464 OA
BRANCH  44  45
ATOM     45  C   LIG A   1      -6.968  -1.248 124.469  0.00  0.00    +0.304 C 
ATOM     46  C   LIG A   1      -5.597  -1.822 124.547  0.00  0.00    +0.136 C 
ATOM     47  O   LIG A   1      -7.936  -1.885 124.078  0.00  0.00    -0.251 OA
ENDBRANCH  44  45
ENDBRANCH  43  44
ENDBRANCH   6  43
TORSDOF 11
ENDMDL
MODEL 8
REMARK VINA RESULT:      -7.3      2.541      6.229
REMARK  Name = NuBBE_484
REMARK  20 active torsions:
REMARK  status: ('A' for Active; 'I' for Inactive)
REMARK    1  A    between atoms: C_1  and  C_2
REMARK    2  A    between atoms: C_7  and  C_8
REMARK    3  A    between atoms: C_7  and  C_47
REMARK    4  A    between atoms: C_8  and  O_9
REMARK    5  A    between atoms: O_9  and  C_10
REMARK    6  A    between atoms: C_10  and  C_11
REMARK    7  A    between atoms: C_13  and  O_43
REMARK    8  A    between atoms: C_17  and  C_42
REMARK    9  A    between atoms: C_23  and  C_41
REMARK   10  A    between atoms: C_26  and  C_37
REMARK   11  A    between atoms: C_29  and  O_36
REMARK   12  A    between atoms: C_31  and  C_32
REMARK   13  A    between atoms: C_31  and  C_35
REMARK   14  A    between atoms: C_37  and  O_38
REMARK   15  A    between atoms: O_38  and  C_39
REMARK   16  A    between atoms: O_43  and  C_44
REMARK   17  A    between atoms: C_44  and  C_45
REMARK   18  A    between atoms: C_47  and  O_48
REMARK   19  A    between atoms: O_48  and  C_49
REMARK   20  A    between atoms: C_49  and  C_50
REMARK                            x       y       z     vdW  Elec       q    Type
REMARK                         _______ _______ _______ _____ _____    ______ ____
ROOT
ATOM      1  C   LIG A   1      -6.203   0.304 134.101  0.00  0.00    +0.012 C 
ATOM      2  C   LIG A   1      -6.437   0.618 132.583  0.00  0.00    -0.019 C 
ATOM      3  C   LIG A   1      -7.560  -0.335 132.159  0.00  0.00    +0.008 C 
ATOM      4  C   LIG A   1      -7.080  -1.773 132.044  0.00  0.00    +0.005 C 
ATOM      5  C   LIG A   1      -6.069  -1.829 130.890  0.00  0.00    +0.011 C 
ATOM      6  C   LIG A   1      -6.027  -3.166 130.075  0.00  0.00    +0.079 C 
ATOM      7  C   LIG A   1      -5.274  -2.822 128.732  0.00  0.00    +0.189 C 
ATOM      8  C   LIG A   1      -3.871  -2.205 129.033  0.00  0.00    +0.046 C 
ATOM      9  C   LIG A   1      -3.776  -1.057 130.066  0.00  0.00    +0.011 C 
ATOM     10  C   LIG A   1      -4.728  -1.134 131.312  0.00  0.00    -0.025 C 
ATOM     11  C   LIG A   1      -5.112   0.343 131.761  0.00  0.00    +0.006 C 
ATOM     12  C   LIG A   1      -3.974   1.162 132.432  0.00  0.00    +0.031 C 
ATOM     13  C   LIG A   1      -4.387   2.609 132.657  0.00  0.00    -0.026 C 
ATOM     14  C   LIG A   1      -5.521   3.014 132.036  0.00  0.00    -0.060 C 
ATOM     15  C   LIG A   1      -6.828   2.202 132.342  0.00  0.00    -0.005 C 
ATOM     16  C   LIG A   1      -7.966   2.491 131.293  0.00  0.00    +0.012 C 
ATOM     17  C   LIG A   1      -7.559   2.838 129.866  0.00  0.00    +0.019 C 
ATOM     18  C   LIG A   1      -6.502   3.974 129.805  0.00  0.00    +0.077 C 
ATOM     19  C   LIG A   1      -5.266   3.476 130.571  0.00  0.00    +0.061 C 
ATOM     20  C   LIG A   1      -3.934   4.245 130.288  0.00  0.00    +0.128 C 
ATOM     21  C   LIG A   1      -3.623   4.415 128.780  0.00  0.00    -0.008 C 
ATOM     22  C   LIG A   1      -2.425   5.374 128.610  0.00  0.00    +0.013 C 
ATOM     23  C   LIG A   1      -4.855   4.993 128.059  0.00  0.00    +0.010 C 
ATOM     24  C   LIG A   1      -6.143   4.197 128.307  0.00  0.00    +0.019 C 
ATOM     25  C   LIG A   1      -3.208   3.061 128.150  0.00  0.00    +0.013 C 
ATOM     26  C   LIG A   1      -7.447   2.774 133.658  0.00  0.00    +0.016 C 
ATOM     27  C   LIG A   1      -3.931  -1.821 132.438  0.00  0.00    +0.012 C 
ENDROOT
BRANCH  20  28
ATOM     28  O   LIG A   1      -3.881   5.495 130.964  0.00  0.00    -0.391 OA
ATOM     29  H   LIG A   1      -4.528   6.109 130.563  0.00  0.00    +0.210 HD
ENDBRANCH  20  28
BRANCH  18  30
ATOM     30  C   LIG A   1      -7.077   5.281 130.372  0.00  0.00    +0.314 C 
ATOM     31  O   LIG A   1      -6.611   5.896 131.323  0.00  0.00    -0.250 OA
BRANCH  30  32
ATOM     32  O   LIG A   1      -8.079   5.739 129.572  0.00  0.00    -0.468 OA
ATOM     33  C   LIG A   1      -9.266   6.221 130.202  0.00  0.00    +0.280 C 
ENDBRANCH  30  32
ENDBRANCH  18  30
BRANCH   6  34
ATOM     34  C   LIG A   1      -5.370  -4.386 130.803  0.00  0.00    +0.246 C 
BRANCH  34  35
ATOM     35  O   LIG A   1      -6.152  -4.766 131.964  0.00  0.00    -0.464 OA
BRANCH  35  36
ATOM     36  C   LIG A   1      -5.453  -5.142 133.080  0.00  0.00    +0.304 C 
ATOM     37  C   LIG A   1      -6.334  -5.121 134.301  0.00  0.00    +0.136 C 
ATOM     38  O   LIG A   1      -4.292  -5.513 133.092  0.00  0.00    -0.251 OA
ENDBRANCH  35  36
ENDBRANCH  34  35
ENDBRANCH   6  34
BRANCH   7  39
ATOM     39  O   LIG A   1      -5.971  -1.860 127.845  0.00  0.00    -0.461 OA
BRANCH  39  40
ATOM     40  C   LIG A   1      -5.607  -1.714 126.528  0.00  0.00    +0.304 C 
ATOM     41  C   LIG A   1      -5.313  -0.288 126.153  0.00  0.00    +0.136 C 
ATOM     42  O   LIG A   1      -5.451  -2.585 125.722  0.00  0.00    -0.251 OA
ENDBRANCH  39  40
ENDBRANCH   7  39
BRANCH   6  43
ATOM     43  C   LIG A   1      -7.497  -3.602 129.805  0.00  0.00    +0.246 C 
BRANCH  43  44
ATOM     44  O   LIG A   1      -8.069  -2.940 128.665  0.00  0.00    -0.464 OA
BRANCH  44  45
ATOM     45  C   LIG A   1      -8.955  -3.694 127.952  0.00  0.00    +0.304 C 
ATOM     46  C   LIG A   1      -8.771  -3.520 126.485  0.00  0.00    +0.136 C 
ATOM     47  O   LIG A   1      -9.767  -4.471 128.434  0.00  0.00    -0.251 OA
ENDBRANCH  44  45
ENDBRANCH  43  44
ENDBRANCH   6  43
TORSDOF 11
ENDMDL
MODEL 9
REMARK VINA RESULT:      -7.3      6.331     12.214
REMARK  Name = NuBBE_484
REMARK  20 active torsions:
REMARK  status: ('A' for Active; 'I' for Inactive)
REMARK    1  A    between atoms: C_1  and  C_2
REMARK    2  A    between atoms: C_7  and  C_8
REMARK    3  A    between atoms: C_7  and  C_47
REMARK    4  A    between atoms: C_8  and  O_9
REMARK    5  A    between atoms: O_9  and  C_10
REMARK    6  A    between atoms: C_10  and  C_11
REMARK    7  A    between atoms: C_13  and  O_43
REMARK    8  A    between atoms: C_17  and  C_42
REMARK    9  A    between atoms: C_23  and  C_41
REMARK   10  A    between atoms: C_26  and  C_37
REMARK   11  A    between atoms: C_29  and  O_36
REMARK   12  A    between atoms: C_31  and  C_32
REMARK   13  A    between atoms: C_31  and  C_35
REMARK   14  A    between atoms: C_37  and  O_38
REMARK   15  A    between atoms: O_38  and  C_39
REMARK   16  A    between atoms: O_43  and  C_44
REMARK   17  A    between atoms: C_44  and  C_45
REMARK   18  A    between atoms: C_47  and  O_48
REMARK   19  A    between atoms: O_48  and  C_49
REMARK   20  A    between atoms: C_49  and  C_50
REMARK                            x       y       z     vdW  Elec       q    Type
REMARK                         _______ _______ _______ _____ _____    ______ ____
ROOT
ATOM      1  C   LIG A   1      -1.909   6.735 130.139  0.00  0.00    +0.012 C 
ATOM      2  C   LIG A   1      -3.097   6.807 131.159  0.00  0.00    -0.019 C 
ATOM      3  C   LIG A   1      -3.358   8.306 131.344  0.00  0.00    +0.008 C 
ATOM      4  C   LIG A   1      -2.276   8.979 132.173  0.00  0.00    +0.005 C 
ATOM      5  C   LIG A   1      -2.354   8.396 133.591  0.00  0.00    +0.011 C 
ATOM      6  C   LIG A   1      -1.971   9.368 134.759  0.00  0.00    +0.079 C 
ATOM      7  C   LIG A   1      -2.543   8.704 136.069  0.00  0.00    +0.189 C 
ATOM      8  C   LIG A   1      -1.993   7.250 136.233  0.00  0.00    +0.046 C 
ATOM      9  C   LIG A   1      -2.060   6.295 135.018  0.00  0.00    +0.011 C 
ATOM     10  C   LIG A   1      -1.816   6.923 133.599  0.00  0.00    -0.025 C 
ATOM     11  C   LIG A   1      -2.679   6.126 132.527  0.00  0.00    +0.006 C 
ATOM     12  C   LIG A   1      -2.186   4.690 132.196  0.00  0.00    +0.031 C 
ATOM     13  C   LIG A   1      -3.174   3.953 131.304  0.00  0.00    -0.026 C 
ATOM     14  C   LIG A   1      -4.392   4.527 131.153  0.00  0.00    -0.060 C 
ATOM     15  C   LIG A   1      -4.423   5.997 130.608  0.00  0.00    -0.005 C 
ATOM     16  C   LIG A   1      -5.817   6.691 130.849  0.00  0.00    +0.012 C 
ATOM     17  C   LIG A   1      -6.625   6.277 132.072  0.00  0.00    +0.019 C 
ATOM     18  C   LIG A   1      -6.790   4.736 132.188  0.00  0.00    +0.077 C 
ATOM     19  C   LIG A   1      -5.377   4.144 132.298  0.00  0.00    +0.061 C 
ATOM     20  C   LIG A   1      -5.292   2.684 132.852  0.00  0.00    +0.128 C 
ATOM     21  C   LIG A   1      -6.090   2.469 134.162  0.00  0.00    -0.008 C 
ATOM     22  C   LIG A   1      -6.131   0.961 134.494  0.00  0.00    +0.013 C 
ATOM     23  C   LIG A   1      -7.525   2.999 133.987  0.00  0.00    +0.010 C 
ATOM     24  C   LIG A   1      -7.589   4.450 133.492  0.00  0.00    +0.019 C 
ATOM     25  C   LIG A   1      -5.390   3.172 135.352  0.00  0.00    +0.013 C 
ATOM     26  C   LIG A   1      -4.360   5.928 129.049  0.00  0.00    +0.016 C 
ATOM     27  C   LIG A   1      -0.317   6.744 133.286  0.00  0.00    +0.012 C 
ENDROOT
BRANCH  20  28
ATOM     28  O   LIG A   1      -5.649   1.717 131.872  0.00  0.00    -0.391 OA
ATOM     29  H   LIG A   1      -4.892   1.570 131.270  0.00  0.00    +0.210 HD
ENDBRANCH  20  28
BRANCH  18  30
ATOM     30  C   LIG A   1      -7.584   4.185 130.994  0.00  0.00    +0.314 C 
ATOM     31  O   LIG A   1      -7.152   3.382 130.177  0.00  0.00    -0.250 OA
BRANCH  30  32
ATOM     32  O   LIG A   1      -8.882   4.593 131.064  0.00  0.00    -0.468 OA
ATOM     33  C   LIG A   1      -9.457   5.184 129.900  0.00  0.00    +0.280 C 
ENDBRANCH  30  32
ENDBRANCH  18  30
BRANCH   6  34
ATOM     34  C   LIG A   1      -0.446   9.694 134.899  0.00  0.00    +0.246 C 
BRANCH  34  35
ATOM     35  O   LIG A   1       0.085  10.192 133.646  0.00  0.00    -0.464 OA
BRANCH  35  36
ATOM     36  C   LIG A   1       0.955  11.247 133.721  0.00  0.00    +0.304 C 
ATOM     37  C   LIG A   1       1.043  11.970 132.403  0.00  0.00    +0.136 C 
ATOM     38  O   LIG A   1       1.536  11.610 134.729  0.00  0.00    -0.251 OA
ENDBRANCH  35  36
ENDBRANCH  34  35
ENDBRANCH   6  34
BRANCH   7  39
ATOM     39  O   LIG A   1      -4.021   8.600 136.134  0.00  0.00    -0.461 OA
BRANCH  39  40
ATOM     40  C   LIG A   1      -4.641   7.874 137.122  0.00  0.00    +0.304 C 
ATOM     41  C   LIG A   1      -5.517   6.777 136.585  0.00  0.00    +0.136 C 
ATOM     42  O   LIG A   1      -4.498   7.995 138.304  0.00  0.00    -0.251 OA
ENDBRANCH  39  40
ENDBRANCH   7  39
BRANCH   6  43
ATOM     43  C   LIG A   1      -2.651  10.740 134.475  0.00  0.00    +0.246 C 
BRANCH  43  44
ATOM     44  O   LIG A   1      -2.276  11.750 135.425  0.00  0.00    -0.464 OA
BRANCH  44  45
ATOM     45  C   LIG A   1      -2.087  12.992 134.893  0.00  0.00    +0.304 C 
ATOM     46  C   LIG A   1      -2.421  13.025 133.442  0.00  0.00    +0.136 C 
ATOM     47  O   LIG A   1      -1.747  13.984 135.521  0.00  0.00    -0.251 OA
ENDBRANCH  44  45
ENDBRANCH  43  44
ENDBRANCH   6  43
TORSDOF 11
ENDMDL
