MODEL 1
REMARK VINA RESULT:      -7.6      0.000      0.000
REMARK  Name = NuBBE_2490
REMARK  7 active torsions:
REMARK  status: ('A' for Active; 'I' for Inactive)
REMARK    1  A    between atoms: C_1  and  C_2
REMARK    2  A    between atoms: C_5  and  C_6
REMARK    3  A    between atoms: C_6  and  C_7
REMARK    4  A    between atoms: C_8  and  C_11
REMARK    5  A    between atoms: C_11  and  O_12
REMARK    6  A    between atoms: C_17  and  C_18
REMARK    7  A    between atoms: C_17  and  C_19
REMARK                            x       y       z     vdW  Elec       q    Type
REMARK                         _______ _______ _______ _____ _____    ______ ____
ROOT
ATOM      1  C   LIG A   1      -9.273  -1.063 126.099  0.00  0.00    +0.016 C 
ATOM      2  C   LIG A   1      -8.053  -1.959 125.729  0.00  0.00    -0.004 C 
ATOM      3  C   LIG A   1      -7.514  -2.474 127.095  0.00  0.00    -0.038 A 
ATOM      4  C   LIG A   1      -6.284  -2.039 127.644  0.00  0.00    -0.040 A 
ATOM      5  C   LIG A   1      -5.911  -2.398 128.979  0.00  0.00    -0.039 A 
ATOM      6  C   LIG A   1      -6.743  -3.266 129.725  0.00  0.00    -0.019 A 
ATOM      7  C   LIG A   1      -7.924  -3.743 129.142  0.00  0.00    +0.006 A 
ATOM      8  C   LIG A   1      -8.308  -3.338 127.868  0.00  0.00    +0.005 A 
ATOM      9  C   LIG A   1      -5.391  -1.145 126.819  0.00  0.00    +0.036 C 
ATOM     10  C   LIG A   1      -5.576  -1.385 125.332  0.00  0.00    +0.009 C 
ATOM     11  C   LIG A   1      -7.020  -1.087 124.909  0.00  0.00    +0.005 C 
ATOM     12  C   LIG A   1      -7.178  -1.125 123.332  0.00  0.00    -0.031 C 
ATOM     13  C   LIG A   1      -6.239  -2.132 122.625  0.00  0.00    +0.011 C 
ATOM     14  C   LIG A   1      -6.828   0.275 122.769  0.00  0.00    +0.011 C 
ATOM     15  C   LIG A   1      -8.626  -1.445 122.924  0.00  0.00    +0.007 C 
ATOM     16  C   LIG A   1      -9.149  -2.748 123.515  0.00  0.00    +0.001 C 
ATOM     17  C   LIG A   1      -8.521  -3.146 124.851  0.00  0.00    +0.012 C 
ENDROOT
BRANCH   5  18
ATOM     18  C   LIG A   1      -4.636  -1.843 129.596  0.00  0.00    +0.032 C 
ATOM     19  C   LIG A   1      -3.449  -2.786 129.462  0.00  0.00    +0.009 C 
ENDBRANCH   5  18
BRANCH   6  20
ATOM     20  C   LIG A   1      -6.418  -3.762 131.115  0.00  0.00    +0.191 C 
BRANCH  20  21
ATOM     21  O   LIG A   1      -5.704  -4.990 131.059  0.00  0.00    -0.390 OA
ATOM     22  H   LIG A   1      -5.812  -5.351 130.162  0.00  0.00    +0.210 HD
ENDBRANCH  20  21
ENDBRANCH   6  20
TORSDOF 3
ENDMDL
MODEL 2
REMARK VINA RESULT:      -7.3      2.441      5.885
REMARK  Name = NuBBE_2490
REMARK  7 active torsions:
REMARK  status: ('A' for Active; 'I' for Inactive)
REMARK    1  A    between atoms: C_1  and  C_2
REMARK    2  A    between atoms: C_5  and  C_6
REMARK    3  A    between atoms: C_6  and  C_7
REMARK    4  A    between atoms: C_8  and  C_11
REMARK    5  A    between atoms: C_11  and  O_12
REMARK    6  A    between atoms: C_17  and  C_18
REMARK    7  A    between atoms: C_17  and  C_19
REMARK                            x       y       z     vdW  Elec       q    Type
REMARK                         _______ _______ _______ _____ _____    ______ ____
ROOT
ATOM      1  C   LIG A   1      -6.697  -3.885 129.674  0.00  0.00    +0.016 C 
ATOM      2  C   LIG A   1      -6.928  -2.414 129.216  0.00  0.00    -0.004 C 
ATOM      3  C   LIG A   1      -7.390  -2.529 127.735  0.00  0.00    -0.038 A 
ATOM      4  C   LIG A   1      -6.579  -2.124 126.647  0.00  0.00    -0.040 A 
ATOM      5  C   LIG A   1      -6.966  -2.412 125.300  0.00  0.00    -0.039 A 
ATOM      6  C   LIG A   1      -8.213  -3.033 125.051  0.00  0.00    -0.019 A 
ATOM      7  C   LIG A   1      -9.035  -3.366 126.134  0.00  0.00    +0.006 A 
ATOM      8  C   LIG A   1      -8.622  -3.139 127.443  0.00  0.00    +0.005 A 
ATOM      9  C   LIG A   1      -5.271  -1.427 126.931  0.00  0.00    +0.036 C 
ATOM     10  C   LIG A   1      -5.315  -0.661 128.240  0.00  0.00    +0.009 C 
ATOM     11  C   LIG A   1      -5.581  -1.609 129.416  0.00  0.00    +0.005 C 
ATOM     12  C   LIG A   1      -5.418  -0.863 130.805  0.00  0.00    -0.031 C 
ATOM     13  C   LIG A   1      -5.809   0.634 130.771  0.00  0.00    +0.011 C 
ATOM     14  C   LIG A   1      -3.928  -0.920 131.224  0.00  0.00    +0.011 C 
ATOM     15  C   LIG A   1      -6.241  -1.551 131.908  0.00  0.00    +0.007 C 
ATOM     16  C   LIG A   1      -7.721  -1.677 131.573  0.00  0.00    +0.001 C 
ATOM     17  C   LIG A   1      -8.037  -1.763 130.079  0.00  0.00    +0.012 C 
ENDROOT
BRANCH   5  18
ATOM     18  C   LIG A   1      -6.042  -2.063 124.143  0.00  0.00    +0.032 C 
ATOM     19  C   LIG A   1      -5.101  -3.199 123.768  0.00  0.00    +0.009 C 
ENDBRANCH   5  18
BRANCH   6  20
ATOM     20  C   LIG A   1      -8.753  -3.324 123.669  0.00  0.00    +0.191 C 
BRANCH  20  21
ATOM     21  O   LIG A   1     -10.170  -3.415 123.688  0.00  0.00    -0.390 OA
ATOM     22  H   LIG A   1     -10.435  -4.016 122.970  0.00  0.00    +0.210 HD
ENDBRANCH  20  21
ENDBRANCH   6  20
TORSDOF 3
ENDMDL
MODEL 3
REMARK VINA RESULT:      -7.2      3.594      6.237
REMARK  Name = NuBBE_2490
REMARK  7 active torsions:
REMARK  status: ('A' for Active; 'I' for Inactive)
REMARK    1  A    between atoms: C_1  and  C_2
REMARK    2  A    between atoms: C_5  and  C_6
REMARK    3  A    between atoms: C_6  and  C_7
REMARK    4  A    between atoms: C_8  and  C_11
REMARK    5  A    between atoms: C_11  and  O_12
REMARK    6  A    between atoms: C_17  and  C_18
REMARK    7  A    between atoms: C_17  and  C_19
REMARK                            x       y       z     vdW  Elec       q    Type
REMARK                         _______ _______ _______ _____ _____    ______ ____
ROOT
ATOM      1  C   LIG A   1      -9.564   0.050 126.141  0.00  0.00    +0.016 C 
ATOM      2  C   LIG A   1      -8.180  -0.434 125.614  0.00  0.00    -0.004 C 
ATOM      3  C   LIG A   1      -7.386   0.873 125.331  0.00  0.00    -0.038 A 
ATOM      4  C   LIG A   1      -7.077   1.311 124.020  0.00  0.00    -0.040 A 
ATOM      5  C   LIG A   1      -6.505   2.604 123.796  0.00  0.00    -0.039 A 
ATOM      6  C   LIG A   1      -6.169   3.418 124.904  0.00  0.00    -0.019 A 
ATOM      7  C   LIG A   1      -6.419   2.943 126.197  0.00  0.00    +0.006 A 
ATOM      8  C   LIG A   1      -7.032   1.711 126.402  0.00  0.00    +0.005 A 
ATOM      9  C   LIG A   1      -7.406   0.412 122.853  0.00  0.00    +0.036 C 
ATOM     10  C   LIG A   1      -7.379  -1.052 123.248  0.00  0.00    +0.009 C 
ATOM     11  C   LIG A   1      -8.417  -1.340 124.341  0.00  0.00    +0.005 C 
ATOM     12  C   LIG A   1      -8.551  -2.897 124.610  0.00  0.00    -0.031 C 
ATOM     13  C   LIG A   1      -7.240  -3.692 124.406  0.00  0.00    +0.011 C 
ATOM     14  C   LIG A   1      -9.583  -3.482 123.615  0.00  0.00    +0.011 C 
ATOM     15  C   LIG A   1      -9.066  -3.173 126.034  0.00  0.00    +0.007 C 
ATOM     16  C   LIG A   1      -8.207  -2.543 127.123  0.00  0.00    +0.001 C 
ATOM     17  C   LIG A   1      -7.467  -1.273 126.704  0.00  0.00    +0.012 C 
ENDROOT
BRANCH   5  18
ATOM     18  C   LIG A   1      -6.269   3.106 122.379  0.00  0.00    +0.032 C 
ATOM     19  C   LIG A   1      -7.540   3.598 121.702  0.00  0.00    +0.009 C 
ENDBRANCH   5  18
BRANCH   6  20
ATOM     20  C   LIG A   1      -5.502   4.770 124.789  0.00  0.00    +0.191 C 
BRANCH  20  21
ATOM     21  O   LIG A   1      -6.455   5.816 124.918  0.00  0.00    -0.390 OA
ATOM     22  H   LIG A   1      -6.116   6.441 125.583  0.00  0.00    +0.210 HD
ENDBRANCH  20  21
ENDBRANCH   6  20
TORSDOF 3
ENDMDL
MODEL 4
REMARK VINA RESULT:      -7.1      2.213      6.553
REMARK  Name = NuBBE_2490
REMARK  7 active torsions:
REMARK  status: ('A' for Active; 'I' for Inactive)
REMARK    1  A    between atoms: C_1  and  C_2
REMARK    2  A    between atoms: C_5  and  C_6
REMARK    3  A    between atoms: C_6  and  C_7
REMARK    4  A    between atoms: C_8  and  C_11
REMARK    5  A    between atoms: C_11  and  O_12
REMARK    6  A    between atoms: C_17  and  C_18
REMARK    7  A    between atoms: C_17  and  C_19
REMARK                            x       y       z     vdW  Elec       q    Type
REMARK                         _______ _______ _______ _____ _____    ______ ____
ROOT
ATOM      1  C   LIG A   1      -5.550  -0.502 129.333  0.00  0.00    +0.016 C 
ATOM      2  C   LIG A   1      -5.636  -1.980 128.848  0.00  0.00    -0.004 C 
ATOM      3  C   LIG A   1      -6.100  -1.883 127.366  0.00  0.00    -0.038 A 
ATOM      4  C   LIG A   1      -7.390  -2.282 126.941  0.00  0.00    -0.040 A 
ATOM      5  C   LIG A   1      -7.838  -2.011 125.609  0.00  0.00    -0.039 A 
ATOM      6  C   LIG A   1      -6.950  -1.413 124.684  0.00  0.00    -0.019 A 
ATOM      7  C   LIG A   1      -5.654  -1.086 125.100  0.00  0.00    +0.006 A 
ATOM      8  C   LIG A   1      -5.249  -1.296 126.414  0.00  0.00    +0.005 A 
ATOM      9  C   LIG A   1      -8.310  -2.954 127.932  0.00  0.00    +0.036 C 
ATOM     10  C   LIG A   1      -7.535  -3.712 128.993  0.00  0.00    +0.009 C 
ATOM     11  C   LIG A   1      -6.636  -2.760 129.792  0.00  0.00    +0.005 C 
ATOM     12  C   LIG A   1      -5.986  -3.494 131.038  0.00  0.00    -0.031 C 
ATOM     13  C   LIG A   1      -5.699  -4.997 130.811  0.00  0.00    +0.011 C 
ATOM     14  C   LIG A   1      -6.970  -3.407 132.231  0.00  0.00    +0.011 C 
ATOM     15  C   LIG A   1      -4.674  -2.811 131.464  0.00  0.00    +0.007 C 
ATOM     16  C   LIG A   1      -3.648  -2.714 130.342  0.00  0.00    +0.001 C 
ATOM     17  C   LIG A   1      -4.239  -2.644 128.935  0.00  0.00    +0.012 C 
ENDROOT
BRANCH   5  18
ATOM     18  C   LIG A   1      -9.261  -2.352 125.192  0.00  0.00    +0.032 C 
ATOM     19  C   LIG A   1      -9.340  -3.574 124.287  0.00  0.00    +0.009 C 
ENDBRANCH   5  18
BRANCH   6  20
ATOM     20  C   LIG A   1      -7.292  -1.141 123.237  0.00  0.00    +0.191 C 
BRANCH  20  21
ATOM     21  O   LIG A   1      -6.381  -1.801 122.369  0.00  0.00    -0.390 OA
ATOM     22  H   LIG A   1      -5.525  -1.854 122.828  0.00  0.00    +0.210 HD
ENDBRANCH  20  21
ENDBRANCH   6  20
TORSDOF 3
ENDMDL
MODEL 5
REMARK VINA RESULT:      -7.0      2.817      6.207
REMARK  Name = NuBBE_2490
REMARK  7 active torsions:
REMARK  status: ('A' for Active; 'I' for Inactive)
REMARK    1  A    between atoms: C_1  and  C_2
REMARK    2  A    between atoms: C_5  and  C_6
REMARK    3  A    between atoms: C_6  and  C_7
REMARK    4  A    between atoms: C_8  and  C_11
REMARK    5  A    between atoms: C_11  and  O_12
REMARK    6  A    between atoms: C_17  and  C_18
REMARK    7  A    between atoms: C_17  and  C_19
REMARK                            x       y       z     vdW  Elec       q    Type
REMARK                         _______ _______ _______ _____ _____    ______ ____
ROOT
ATOM      1  C   LIG A   1      -5.836  -2.538 128.606  0.00  0.00    +0.016 C 
ATOM      2  C   LIG A   1      -7.264  -1.940 128.780  0.00  0.00    -0.004 C 
ATOM      3  C   LIG A   1      -7.902  -2.022 127.364  0.00  0.00    -0.038 A 
ATOM      4  C   LIG A   1      -8.153  -0.877 126.571  0.00  0.00    -0.040 A 
ATOM      5  C   LIG A   1      -8.573  -1.008 125.209  0.00  0.00    -0.039 A 
ATOM      6  C   LIG A   1      -8.819  -2.296 124.676  0.00  0.00    -0.019 A 
ATOM      7  C   LIG A   1      -8.631  -3.417 125.495  0.00  0.00    +0.006 A 
ATOM      8  C   LIG A   1      -8.163  -3.282 126.798  0.00  0.00    +0.005 A 
ATOM      9  C   LIG A   1      -7.923   0.490 127.168  0.00  0.00    +0.036 C 
ATOM     10  C   LIG A   1      -8.119   0.485 128.673  0.00  0.00    +0.009 C 
ATOM     11  C   LIG A   1      -7.126  -0.470 129.347  0.00  0.00    +0.005 C 
ATOM     12  C   LIG A   1      -7.170  -0.326 130.925  0.00  0.00    -0.031 C 
ATOM     13  C   LIG A   1      -8.563   0.043 131.490  0.00  0.00    +0.011 C 
ATOM     14  C   LIG A   1      -6.208   0.812 131.344  0.00  0.00    +0.011 C 
ATOM     15  C   LIG A   1      -6.697  -1.618 131.616  0.00  0.00    +0.007 C 
ATOM     16  C   LIG A   1      -7.484  -2.853 131.198  0.00  0.00    +0.001 C 
ATOM     17  C   LIG A   1      -8.072  -2.794 129.788  0.00  0.00    +0.012 C 
ENDROOT
BRANCH   5  18
ATOM     18  C   LIG A   1      -8.744   0.226 124.335  0.00  0.00    +0.032 C 
ATOM     19  C   LIG A   1      -7.471   0.614 123.596  0.00  0.00    +0.009 C 
ENDBRANCH   5  18
BRANCH   6  20
ATOM     20  C   LIG A   1      -9.327  -2.550 123.275  0.00  0.00    +0.191 C 
BRANCH  20  21
ATOM     21  O   LIG A   1     -10.280  -3.603 123.266  0.00  0.00    -0.390 OA
ATOM     22  H   LIG A   1     -11.164  -3.200 123.316  0.00  0.00    +0.210 HD
ENDBRANCH  20  21
ENDBRANCH   6  20
TORSDOF 3
ENDMDL
MODEL 6
REMARK VINA RESULT:      -7.0      9.479     11.581
REMARK  Name = NuBBE_2490
REMARK  7 active torsions:
REMARK  status: ('A' for Active; 'I' for Inactive)
REMARK    1  A    between atoms: C_1  and  C_2
REMARK    2  A    between atoms: C_5  and  C_6
REMARK    3  A    between atoms: C_6  and  C_7
REMARK    4  A    between atoms: C_8  and  C_11
REMARK    5  A    between atoms: C_11  and  O_12
REMARK    6  A    between atoms: C_17  and  C_18
REMARK    7  A    between atoms: C_17  and  C_19
REMARK                            x       y       z     vdW  Elec       q    Type
REMARK                         _______ _______ _______ _____ _____    ______ ____
ROOT
ATOM      1  C   LIG A   1      -9.868   3.741 131.610  0.00  0.00    +0.016 C 
ATOM      2  C   LIG A   1      -9.285   5.117 132.050  0.00  0.00    -0.004 C 
ATOM      3  C   LIG A   1     -10.226   6.171 131.399  0.00  0.00    -0.038 A 
ATOM      4  C   LIG A   1      -9.819   7.001 130.326  0.00  0.00    -0.040 A 
ATOM      5  C   LIG A   1     -10.765   7.827 129.640  0.00  0.00    -0.039 A 
ATOM      6  C   LIG A   1     -12.104   7.877 130.095  0.00  0.00    -0.019 A 
ATOM      7  C   LIG A   1     -12.476   7.102 131.201  0.00  0.00    +0.006 A 
ATOM      8  C   LIG A   1     -11.564   6.255 131.821  0.00  0.00    +0.005 A 
ATOM      9  C   LIG A   1      -8.377   6.963 129.880  0.00  0.00    +0.036 C 
ATOM     10  C   LIG A   1      -7.447   6.595 131.020  0.00  0.00    +0.009 C 
ATOM     11  C   LIG A   1      -7.782   5.202 131.567  0.00  0.00    +0.005 C 
ATOM     12  C   LIG A   1      -6.689   4.715 132.607  0.00  0.00    -0.031 C 
ATOM     13  C   LIG A   1      -6.043   5.855 133.430  0.00  0.00    +0.011 C 
ATOM     14  C   LIG A   1      -5.541   4.025 131.830  0.00  0.00    +0.011 C 
ATOM     15  C   LIG A   1      -7.275   3.684 133.589  0.00  0.00    +0.007 C 
ATOM     16  C   LIG A   1      -8.500   4.189 134.341  0.00  0.00    +0.001 C 
ATOM     17  C   LIG A   1      -9.326   5.236 133.594  0.00  0.00    +0.012 C 
ENDROOT
BRANCH   5  18
ATOM     18  C   LIG A   1     -10.340   8.638 128.425  0.00  0.00    +0.032 C 
ATOM     19  C   LIG A   1     -10.694   7.966 127.106  0.00  0.00    +0.009 C 
ENDBRANCH   5  18
BRANCH   6  20
ATOM     20  C   LIG A   1     -13.171   8.762 129.491  0.00  0.00    +0.191 C 
BRANCH  20  21
ATOM     21  O   LIG A   1     -13.180  10.039 130.112  0.00  0.00    -0.390 OA
ATOM     22  H   LIG A   1     -13.140  10.709 129.406  0.00  0.00    +0.210 HD
ENDBRANCH  20  21
ENDBRANCH   6  20
TORSDOF 3
ENDMDL
MODEL 7
REMARK VINA RESULT:      -7.0      9.273     10.668
REMARK  Name = NuBBE_2490
REMARK  7 active torsions:
REMARK  status: ('A' for Active; 'I' for Inactive)
REMARK    1  A    between atoms: C_1  and  C_2
REMARK    2  A    between atoms: C_5  and  C_6
REMARK    3  A    between atoms: C_6  and  C_7
REMARK    4  A    between atoms: C_8  and  C_11
REMARK    5  A    between atoms: C_11  and  O_12
REMARK    6  A    between atoms: C_17  and  C_18
REMARK    7  A    between atoms: C_17  and  C_19
REMARK                            x       y       z     vdW  Elec       q    Type
REMARK                         _______ _______ _______ _____ _____    ______ ____
ROOT
ATOM      1  C   LIG A   1      -9.428   5.838 128.591  0.00  0.00    +0.016 C 
ATOM      2  C   LIG A   1      -9.800   6.901 129.668  0.00  0.00    -0.004 C 
ATOM      3  C   LIG A   1      -8.763   6.686 130.808  0.00  0.00    -0.038 A 
ATOM      4  C   LIG A   1      -9.113   6.140 132.067  0.00  0.00    -0.040 A 
ATOM      5  C   LIG A   1      -8.103   5.794 133.020  0.00  0.00    -0.039 A 
ATOM      6  C   LIG A   1      -6.747   6.077 132.732  0.00  0.00    -0.019 A 
ATOM      7  C   LIG A   1      -6.423   6.680 131.510  0.00  0.00    +0.006 A 
ATOM      8  C   LIG A   1      -7.405   6.956 130.565  0.00  0.00    +0.005 A 
ATOM      9  C   LIG A   1     -10.568   5.881 132.371  0.00  0.00    +0.036 C 
ATOM     10  C   LIG A   1     -11.477   6.833 131.618  0.00  0.00    +0.009 C 
ATOM     11  C   LIG A   1     -11.302   6.669 130.104  0.00  0.00    +0.005 C 
ATOM     12  C   LIG A   1     -12.392   7.498 129.305  0.00  0.00    -0.031 C 
ATOM     13  C   LIG A   1     -12.837   8.804 130.007  0.00  0.00    +0.011 C 
ATOM     14  C   LIG A   1     -13.662   6.624 129.153  0.00  0.00    +0.011 C 
ATOM     15  C   LIG A   1     -11.897   7.854 127.892  0.00  0.00    +0.007 C 
ATOM     16  C   LIG A   1     -10.578   8.616 127.885  0.00  0.00    +0.001 C 
ATOM     17  C   LIG A   1      -9.661   8.324 129.073  0.00  0.00    +0.012 C 
ENDROOT
BRANCH   5  18
ATOM     18  C   LIG A   1      -8.481   5.115 134.329  0.00  0.00    +0.032 C 
ATOM     19  C   LIG A   1      -8.543   3.599 134.218  0.00  0.00    +0.009 C 
ENDBRANCH   5  18
BRANCH   6  20
ATOM     20  C   LIG A   1      -5.606   5.816 133.689  0.00  0.00    +0.191 C 
BRANCH  20  21
ATOM     21  O   LIG A   1      -5.092   4.502 133.517  0.00  0.00    -0.390 OA
ATOM     22  H   LIG A   1      -4.314   4.565 132.936  0.00  0.00    +0.210 HD
ENDBRANCH  20  21
ENDBRANCH   6  20
TORSDOF 3
ENDMDL
MODEL 8
REMARK VINA RESULT:      -6.9      3.764      5.840
REMARK  Name = NuBBE_2490
REMARK  7 active torsions:
REMARK  status: ('A' for Active; 'I' for Inactive)
REMARK    1  A    between atoms: C_1  and  C_2
REMARK    2  A    between atoms: C_5  and  C_6
REMARK    3  A    between atoms: C_6  and  C_7
REMARK    4  A    between atoms: C_8  and  C_11
REMARK    5  A    between atoms: C_11  and  O_12
REMARK    6  A    between atoms: C_17  and  C_18
REMARK    7  A    between atoms: C_17  and  C_19
REMARK                            x       y       z     vdW  Elec       q    Type
REMARK                         _______ _______ _______ _____ _____    ______ ____
ROOT
ATOM      1  C   LIG A   1      -6.547  -1.180 122.635  0.00  0.00    +0.016 C 
ATOM      2  C   LIG A   1      -7.525  -0.705 123.751  0.00  0.00    -0.004 C 
ATOM      3  C   LIG A   1      -7.081   0.752 124.070  0.00  0.00    -0.038 A 
ATOM      4  C   LIG A   1      -6.448   1.109 125.285  0.00  0.00    -0.040 A 
ATOM      5  C   LIG A   1      -5.896   2.417 125.466  0.00  0.00    -0.039 A 
ATOM      6  C   LIG A   1      -6.059   3.388 124.450  0.00  0.00    -0.019 A 
ATOM      7  C   LIG A   1      -6.747   3.040 123.281  0.00  0.00    +0.006 A 
ATOM      8  C   LIG A   1      -7.225   1.747 123.089  0.00  0.00    +0.005 A 
ATOM      9  C   LIG A   1      -6.318   0.071 126.374  0.00  0.00    +0.036 C 
ATOM     10  C   LIG A   1      -7.437  -0.951 126.311  0.00  0.00    +0.009 C 
ATOM     11  C   LIG A   1      -7.414  -1.701 124.973  0.00  0.00    +0.005 C 
ATOM     12  C   LIG A   1      -8.435  -2.914 124.975  0.00  0.00    -0.031 C 
ATOM     13  C   LIG A   1      -9.701  -2.676 125.833  0.00  0.00    +0.011 C 
ATOM     14  C   LIG A   1      -7.725  -4.155 125.571  0.00  0.00    +0.011 C 
ATOM     15  C   LIG A   1      -8.881  -3.270 123.546  0.00  0.00    +0.007 C 
ATOM     16  C   LIG A   1      -9.491  -2.097 122.790  0.00  0.00    +0.001 C 
ATOM     17  C   LIG A   1      -8.979  -0.721 123.217  0.00  0.00    +0.012 C 
ENDROOT
BRANCH   5  18
ATOM     18  C   LIG A   1      -5.130   2.760 126.735  0.00  0.00    +0.032 C 
ATOM     19  C   LIG A   1      -3.623   2.616 126.579  0.00  0.00    +0.009 C 
ENDBRANCH   5  18
BRANCH   6  20
ATOM     20  C   LIG A   1      -5.576   4.816 124.559  0.00  0.00    +0.191 C 
BRANCH  20  21
ATOM     21  O   LIG A   1      -6.633   5.679 124.955  0.00  0.00    -0.390 OA
ATOM     22  H   LIG A   1      -6.932   5.391 125.836  0.00  0.00    +0.210 HD
ENDBRANCH  20  21
ENDBRANCH   6  20
TORSDOF 3
ENDMDL
MODEL 9
REMARK VINA RESULT:      -6.8      1.883      2.367
REMARK  Name = NuBBE_2490
REMARK  7 active torsions:
REMARK  status: ('A' for Active; 'I' for Inactive)
REMARK    1  A    between atoms: C_1  and  C_2
REMARK    2  A    between atoms: C_5  and  C_6
REMARK    3  A    between atoms: C_6  and  C_7
REMARK    4  A    between atoms: C_8  and  C_11
REMARK    5  A    between atoms: C_11  and  O_12
REMARK    6  A    between atoms: C_17  and  C_18
REMARK    7  A    between atoms: C_17  and  C_19
REMARK                            x       y       z     vdW  Elec       q    Type
REMARK                         _______ _______ _______ _____ _____    ______ ____
ROOT
ATOM      1  C   LIG A   1      -9.841  -2.947 126.160  0.00  0.00    +0.016 C 
ATOM      2  C   LIG A   1      -8.434  -2.278 126.132  0.00  0.00    -0.004 C 
ATOM      3  C   LIG A   1      -7.976  -2.262 127.619  0.00  0.00    -0.038 A 
ATOM      4  C   LIG A   1      -7.884  -1.070 128.378  0.00  0.00    -0.040 A 
ATOM      5  C   LIG A   1      -7.633  -1.118 129.786  0.00  0.00    -0.039 A 
ATOM      6  C   LIG A   1      -7.391  -2.365 130.409  0.00  0.00    -0.019 A 
ATOM      7  C   LIG A   1      -7.418  -3.530 129.632  0.00  0.00    +0.006 A 
ATOM      8  C   LIG A   1      -7.725  -3.478 128.276  0.00  0.00    +0.005 A 
ATOM      9  C   LIG A   1      -8.106   0.254 127.688  0.00  0.00    +0.036 C 
ATOM     10  C   LIG A   1      -7.723   0.194 126.222  0.00  0.00    +0.009 C 
ATOM     11  C   LIG A   1      -8.573  -0.844 125.480  0.00  0.00    +0.005 C 
ATOM     12  C   LIG A   1      -8.338  -0.768 123.914  0.00  0.00    -0.031 C 
ATOM     13  C   LIG A   1      -6.906  -0.346 123.507  0.00  0.00    +0.011 C 
ATOM     14  C   LIG A   1      -9.296   0.295 123.322  0.00  0.00    +0.011 C 
ATOM     15  C   LIG A   1      -8.655  -2.113 123.236  0.00  0.00    +0.007 C 
ATOM     16  C   LIG A   1      -7.866  -3.283 123.810  0.00  0.00    +0.001 C 
ATOM     17  C   LIG A   1      -7.463  -3.129 125.277  0.00  0.00    +0.012 C 
ENDROOT
BRANCH   5  18
ATOM     18  C   LIG A   1      -7.635   0.161 130.611  0.00  0.00    +0.032 C 
ATOM     19  C   LIG A   1      -8.943   0.386 131.358  0.00  0.00    +0.009 C 
ENDBRANCH   5  18
BRANCH   6  20
ATOM     20  C   LIG A   1      -7.051  -2.528 131.873  0.00  0.00    +0.191 C 
BRANCH  20  21
ATOM     21  O   LIG A   1      -6.161  -3.618 132.067  0.00  0.00    -0.390 OA
ATOM     22  H   LIG A   1      -5.385  -3.280 132.548  0.00  0.00    +0.210 HD
ENDBRANCH  20  21
ENDBRANCH   6  20
TORSDOF 3
ENDMDL
