MODEL 1
REMARK VINA RESULT:      -8.1      0.000      0.000
REMARK  Name = NuBBE_2387
REMARK  7 active torsions:
REMARK  status: ('A' for Active; 'I' for Inactive)
REMARK    1  A    between atoms: C_1  and  C_2
REMARK    2  A    between atoms: C_6  and  C_10
REMARK    3  A    between atoms: C_7  and  O_9
REMARK    4  A    between atoms: C_10  and  C_11
REMARK    5  A    between atoms: C_10  and  C_12
REMARK    6  A    between atoms: C_18  and  C_19
REMARK    7  A    between atoms: C_18  and  C_20
REMARK                            x       y       z     vdW  Elec       q    Type
REMARK                         _______ _______ _______ _____ _____    ______ ____
ROOT
ATOM      1  C   LIG A   1      -8.094   3.688 133.741  0.00  0.00    +0.016 C 
ATOM      2  C   LIG A   1      -7.622   5.172 133.696  0.00  0.00    -0.003 C 
ATOM      3  C   LIG A   1      -8.533   5.847 132.647  0.00  0.00    -0.027 A 
ATOM      4  C   LIG A   1      -8.053   6.330 131.425  0.00  0.00    +0.022 A 
ATOM      5  C   LIG A   1      -8.916   6.848 130.443  0.00  0.00    +0.019 A 
ATOM      6  C   LIG A   1     -10.302   6.930 130.652  0.00  0.00    -0.003 A 
ATOM      7  C   LIG A   1     -10.785   6.432 131.868  0.00  0.00    +0.121 A 
ATOM      8  C   LIG A   1      -9.925   5.916 132.844  0.00  0.00    +0.050 A 
ATOM      9  C   LIG A   1      -6.604   6.355 131.161  0.00  0.00    +0.164 C 
ATOM     10  O   LIG A   1      -6.163   6.477 130.024  0.00  0.00    -0.292 OA
ATOM     11  C   LIG A   1      -5.729   6.356 132.378  0.00  0.00    +0.084 C 
ATOM     12  C   LIG A   1      -6.084   5.200 133.322  0.00  0.00    +0.012 C 
ATOM     13  C   LIG A   1      -5.081   5.153 134.554  0.00  0.00    -0.031 C 
ATOM     14  C   LIG A   1      -4.526   6.540 134.968  0.00  0.00    +0.011 C 
ATOM     15  C   LIG A   1      -3.860   4.288 134.161  0.00  0.00    +0.011 C 
ATOM     16  C   LIG A   1      -5.732   4.517 135.795  0.00  0.00    +0.007 C 
ATOM     17  C   LIG A   1      -7.037   5.187 136.216  0.00  0.00    +0.001 C 
ATOM     18  C   LIG A   1      -7.820   5.839 135.077  0.00  0.00    +0.012 C 
ENDROOT
BRANCH   6  19
ATOM     19  C   LIG A   1     -11.217   7.516 129.589  0.00  0.00    +0.016 C 
ATOM     20  C   LIG A   1     -12.116   6.425 129.005  0.00  0.00    +0.012 C 
ATOM     21  C   LIG A   1     -10.479   8.256 128.464  0.00  0.00    +0.012 C 
ENDBRANCH   6  19
BRANCH   7  22
ATOM     22  O   LIG A   1     -12.114   6.390 132.186  0.00  0.00    -0.506 OA
ATOM     23  H   LIG A   1     -12.276   5.652 132.793  0.00  0.00    +0.292 HD
ENDBRANCH   7  22
TORSDOF 2
ENDMDL
MODEL 2
REMARK VINA RESULT:      -7.9      1.745      2.342
REMARK  Name = NuBBE_2387
REMARK  7 active torsions:
REMARK  status: ('A' for Active; 'I' for Inactive)
REMARK    1  A    between atoms: C_1  and  C_2
REMARK    2  A    between atoms: C_6  and  C_10
REMARK    3  A    between atoms: C_7  and  O_9
REMARK    4  A    between atoms: C_10  and  C_11
REMARK    5  A    between atoms: C_10  and  C_12
REMARK    6  A    between atoms: C_18  and  C_19
REMARK    7  A    between atoms: C_18  and  C_20
REMARK                            x       y       z     vdW  Elec       q    Type
REMARK                         _______ _______ _______ _____ _____    ______ ____
ROOT
ATOM      1  C   LIG A   1      -9.822   3.786 132.913  0.00  0.00    +0.016 C 
ATOM      2  C   LIG A   1      -9.027   4.998 132.339  0.00  0.00    -0.003 C 
ATOM      3  C   LIG A   1     -10.038   5.746 131.443  0.00  0.00    -0.027 A 
ATOM      4  C   LIG A   1      -9.903   5.824 130.052  0.00  0.00    +0.022 A 
ATOM      5  C   LIG A   1     -10.889   6.423 129.245  0.00  0.00    +0.019 A 
ATOM      6  C   LIG A   1     -12.044   6.995 129.800  0.00  0.00    -0.003 A 
ATOM      7  C   LIG A   1     -12.188   6.903 131.189  0.00  0.00    +0.121 A 
ATOM      8  C   LIG A   1     -11.207   6.306 131.991  0.00  0.00    +0.050 A 
ATOM      9  C   LIG A   1      -8.682   5.321 129.400  0.00  0.00    +0.164 C 
ATOM     10  O   LIG A   1      -8.647   5.092 128.197  0.00  0.00    -0.292 OA
ATOM     11  C   LIG A   1      -7.472   5.240 130.280  0.00  0.00    +0.084 C 
ATOM     12  C   LIG A   1      -7.763   4.448 131.561  0.00  0.00    +0.012 C 
ATOM     13  C   LIG A   1      -6.444   4.284 132.432  0.00  0.00    -0.031 C 
ATOM     14  C   LIG A   1      -5.442   5.457 132.286  0.00  0.00    +0.011 C 
ATOM     15  C   LIG A   1      -5.703   3.009 131.965  0.00  0.00    +0.011 C 
ATOM     16  C   LIG A   1      -6.766   4.123 133.928  0.00  0.00    +0.007 C 
ATOM     17  C   LIG A   1      -7.623   5.250 134.497  0.00  0.00    +0.001 C 
ATOM     18  C   LIG A   1      -8.555   5.919 133.487  0.00  0.00    +0.012 C 
ENDROOT
BRANCH   6  19
ATOM     19  C   LIG A   1     -13.086   7.660 128.915  0.00  0.00    +0.016 C 
ATOM     20  C   LIG A   1     -13.060   7.045 127.514  0.00  0.00    +0.012 C 
ATOM     21  C   LIG A   1     -12.954   9.187 128.828  0.00  0.00    +0.012 C 
ENDBRANCH   6  19
BRANCH   7  22
ATOM     22  O   LIG A   1     -13.286   7.360 131.862  0.00  0.00    -0.506 OA
ATOM     23  H   LIG A   1     -13.071   7.455 132.803  0.00  0.00    +0.292 HD
ENDBRANCH   7  22
TORSDOF 2
ENDMDL
MODEL 3
REMARK VINA RESULT:      -7.9      9.270     10.508
REMARK  Name = NuBBE_2387
REMARK  7 active torsions:
REMARK  status: ('A' for Active; 'I' for Inactive)
REMARK    1  A    between atoms: C_1  and  C_2
REMARK    2  A    between atoms: C_6  and  C_10
REMARK    3  A    between atoms: C_7  and  O_9
REMARK    4  A    between atoms: C_10  and  C_11
REMARK    5  A    between atoms: C_10  and  C_12
REMARK    6  A    between atoms: C_18  and  C_19
REMARK    7  A    between atoms: C_18  and  C_20
REMARK                            x       y       z     vdW  Elec       q    Type
REMARK                         _______ _______ _______ _____ _____    ______ ____
ROOT
ATOM      1  C   LIG A   1      -6.201  -0.559 128.942  0.00  0.00    +0.016 C 
ATOM      2  C   LIG A   1      -6.109  -2.083 128.630  0.00  0.00    -0.003 C 
ATOM      3  C   LIG A   1      -6.762  -2.244 127.240  0.00  0.00    -0.027 A 
ATOM      4  C   LIG A   1      -7.964  -2.932 127.042  0.00  0.00    +0.022 A 
ATOM      5  C   LIG A   1      -8.592  -2.979 125.784  0.00  0.00    +0.019 A 
ATOM      6  C   LIG A   1      -8.029  -2.358 124.658  0.00  0.00    -0.003 A 
ATOM      7  C   LIG A   1      -6.835  -1.656 124.858  0.00  0.00    +0.121 A 
ATOM      8  C   LIG A   1      -6.211  -1.610 126.111  0.00  0.00    +0.050 A 
ATOM      9  C   LIG A   1      -8.578  -3.679 128.154  0.00  0.00    +0.164 C 
ATOM     10  O   LIG A   1      -9.750  -4.031 128.119  0.00  0.00    -0.292 OA
ATOM     11  C   LIG A   1      -7.640  -4.082 129.251  0.00  0.00    +0.084 C 
ATOM     12  C   LIG A   1      -6.849  -2.878 129.782  0.00  0.00    +0.012 C 
ATOM     13  C   LIG A   1      -5.937  -3.303 131.012  0.00  0.00    -0.031 C 
ATOM     14  C   LIG A   1      -5.445  -4.772 130.954  0.00  0.00    +0.011 C 
ATOM     15  C   LIG A   1      -6.768  -3.167 132.310  0.00  0.00    +0.011 C 
ATOM     16  C   LIG A   1      -4.700  -2.397 131.144  0.00  0.00    +0.007 C 
ATOM     17  C   LIG A   1      -3.855  -2.323 129.876  0.00  0.00    +0.001 C 
ATOM     18  C   LIG A   1      -4.630  -2.529 128.575  0.00  0.00    +0.012 C 
ENDROOT
BRANCH   6  19
ATOM     19  C   LIG A   1      -8.710  -2.441 123.301  0.00  0.00    +0.016 C 
ATOM     20  C   LIG A   1      -9.280  -1.076 122.911  0.00  0.00    +0.012 C 
ATOM     21  C   LIG A   1      -9.800  -3.519 123.210  0.00  0.00    +0.012 C 
ENDBRANCH   6  19
BRANCH   7  22
ATOM     22  O   LIG A   1      -6.204  -0.953 123.870  0.00  0.00    -0.506 OA
ATOM     23  H   LIG A   1      -5.257  -0.893 124.073  0.00  0.00    +0.292 HD
ENDBRANCH   7  22
TORSDOF 2
ENDMDL
MODEL 4
REMARK VINA RESULT:      -7.8      9.535     11.978
REMARK  Name = NuBBE_2387
REMARK  7 active torsions:
REMARK  status: ('A' for Active; 'I' for Inactive)
REMARK    1  A    between atoms: C_1  and  C_2
REMARK    2  A    between atoms: C_6  and  C_10
REMARK    3  A    between atoms: C_7  and  O_9
REMARK    4  A    between atoms: C_10  and  C_11
REMARK    5  A    between atoms: C_10  and  C_12
REMARK    6  A    between atoms: C_18  and  C_19
REMARK    7  A    between atoms: C_18  and  C_20
REMARK                            x       y       z     vdW  Elec       q    Type
REMARK                         _______ _______ _______ _____ _____    ______ ____
ROOT
ATOM      1  C   LIG A   1      -5.547  -3.152 124.972  0.00  0.00    +0.016 C 
ATOM      2  C   LIG A   1      -6.612  -2.237 125.649  0.00  0.00    -0.003 C 
ATOM      3  C   LIG A   1      -6.403  -2.440 127.166  0.00  0.00    -0.027 A 
ATOM      4  C   LIG A   1      -7.353  -3.061 127.985  0.00  0.00    +0.022 A 
ATOM      5  C   LIG A   1      -7.099  -3.327 129.343  0.00  0.00    +0.019 A 
ATOM      6  C   LIG A   1      -5.888  -2.960 129.949  0.00  0.00    -0.003 A 
ATOM      7  C   LIG A   1      -4.930  -2.354 129.127  0.00  0.00    +0.121 A 
ATOM      8  C   LIG A   1      -5.184  -2.090 127.776  0.00  0.00    +0.050 A 
ATOM      9  C   LIG A   1      -8.680  -3.404 127.446  0.00  0.00    +0.164 C 
ATOM     10  O   LIG A   1      -9.416  -4.201 128.015  0.00  0.00    -0.292 OA
ATOM     11  C   LIG A   1      -9.107  -2.618 126.243  0.00  0.00    +0.084 C 
ATOM     12  C   LIG A   1      -8.046  -2.669 125.136  0.00  0.00    +0.012 C 
ATOM     13  C   LIG A   1      -8.558  -1.919 123.832  0.00  0.00    -0.031 C 
ATOM     14  C   LIG A   1      -9.528  -0.745 124.120  0.00  0.00    +0.011 C 
ATOM     15  C   LIG A   1      -9.336  -2.930 122.957  0.00  0.00    +0.011 C 
ATOM     16  C   LIG A   1      -7.389  -1.368 122.995  0.00  0.00    +0.007 C 
ATOM     17  C   LIG A   1      -6.448  -0.459 123.778  0.00  0.00    +0.001 C 
ATOM     18  C   LIG A   1      -6.363  -0.758 125.275  0.00  0.00    +0.012 C 
ENDROOT
BRANCH   6  19
ATOM     19  C   LIG A   1      -5.641  -3.233 131.425  0.00  0.00    +0.016 C 
ATOM     20  C   LIG A   1      -5.167  -4.674 131.624  0.00  0.00    +0.012 C 
ATOM     21  C   LIG A   1      -6.847  -2.940 132.328  0.00  0.00    +0.012 C 
ENDBRANCH   6  19
BRANCH   7  22
ATOM     22  O   LIG A   1      -3.685  -1.997 129.563  0.00  0.00    -0.506 OA
ATOM     23  H   LIG A   1      -3.763  -1.520 130.404  0.00  0.00    +0.292 HD
ENDBRANCH   7  22
TORSDOF 2
ENDMDL
MODEL 5
REMARK VINA RESULT:      -7.6      8.859     10.877
REMARK  Name = NuBBE_2387
REMARK  7 active torsions:
REMARK  status: ('A' for Active; 'I' for Inactive)
REMARK    1  A    between atoms: C_1  and  C_2
REMARK    2  A    between atoms: C_6  and  C_10
REMARK    3  A    between atoms: C_7  and  O_9
REMARK    4  A    between atoms: C_10  and  C_11
REMARK    5  A    between atoms: C_10  and  C_12
REMARK    6  A    between atoms: C_18  and  C_19
REMARK    7  A    between atoms: C_18  and  C_20
REMARK                            x       y       z     vdW  Elec       q    Type
REMARK                         _______ _______ _______ _____ _____    ______ ____
ROOT
ATOM      1  C   LIG A   1      -6.574  -0.917 122.740  0.00  0.00    +0.016 C 
ATOM      2  C   LIG A   1      -7.362  -0.664 124.061  0.00  0.00    -0.003 C 
ATOM      3  C   LIG A   1      -6.674   0.559 124.706  0.00  0.00    -0.027 A 
ATOM      4  C   LIG A   1      -5.958   0.480 125.904  0.00  0.00    +0.022 A 
ATOM      5  C   LIG A   1      -5.254   1.585 126.420  0.00  0.00    +0.019 A 
ATOM      6  C   LIG A   1      -5.258   2.828 125.769  0.00  0.00    -0.003 A 
ATOM      7  C   LIG A   1      -5.961   2.903 124.561  0.00  0.00    +0.121 A 
ATOM      8  C   LIG A   1      -6.660   1.804 124.048  0.00  0.00    +0.050 A 
ATOM      9  C   LIG A   1      -5.971  -0.765 126.691  0.00  0.00    +0.164 C 
ATOM     10  O   LIG A   1      -5.138  -0.980 127.563  0.00  0.00    -0.292 OA
ATOM     11  C   LIG A   1      -7.139  -1.670 126.440  0.00  0.00    +0.084 C 
ATOM     12  C   LIG A   1      -7.298  -1.976 124.944  0.00  0.00    +0.012 C 
ATOM     13  C   LIG A   1      -8.474  -3.018 124.706  0.00  0.00    -0.031 C 
ATOM     14  C   LIG A   1      -9.614  -2.931 125.752  0.00  0.00    +0.011 C 
ATOM     15  C   LIG A   1      -7.892  -4.448 124.806  0.00  0.00    +0.011 C 
ATOM     16  C   LIG A   1      -9.102  -2.858 123.310  0.00  0.00    +0.007 C 
ATOM     17  C   LIG A   1      -9.596  -1.445 123.017  0.00  0.00    +0.001 C 
ATOM     18  C   LIG A   1      -8.840  -0.336 123.747  0.00  0.00    +0.012 C 
ENDROOT
BRANCH   6  19
ATOM     19  C   LIG A   1      -4.512   4.016 126.355  0.00  0.00    +0.016 C 
ATOM     20  C   LIG A   1      -3.020   3.699 126.469  0.00  0.00    +0.012 C 
ATOM     21  C   LIG A   1      -5.060   4.497 127.705  0.00  0.00    +0.012 C 
ENDBRANCH   6  19
BRANCH   7  22
ATOM     22  O   LIG A   1      -6.003   4.028 123.786  0.00  0.00    -0.506 OA
ATOM     23  H   LIG A   1      -6.924   4.313 123.682  0.00  0.00    +0.292 HD
ENDBRANCH   7  22
TORSDOF 2
ENDMDL
MODEL 6
REMARK VINA RESULT:      -7.4      8.026      9.840
REMARK  Name = NuBBE_2387
REMARK  7 active torsions:
REMARK  status: ('A' for Active; 'I' for Inactive)
REMARK    1  A    between atoms: C_1  and  C_2
REMARK    2  A    between atoms: C_6  and  C_10
REMARK    3  A    between atoms: C_7  and  O_9
REMARK    4  A    between atoms: C_10  and  C_11
REMARK    5  A    between atoms: C_10  and  C_12
REMARK    6  A    between atoms: C_18  and  C_19
REMARK    7  A    between atoms: C_18  and  C_20
REMARK                            x       y       z     vdW  Elec       q    Type
REMARK                         _______ _______ _______ _____ _____    ______ ____
ROOT
ATOM      1  C   LIG A   1      -6.545   0.616 125.349  0.00  0.00    +0.016 C 
ATOM      2  C   LIG A   1      -7.617  -0.370 125.904  0.00  0.00    -0.003 C 
ATOM      3  C   LIG A   1      -7.907   0.125 127.338  0.00  0.00    -0.027 A 
ATOM      4  C   LIG A   1      -7.570  -0.615 128.477  0.00  0.00    +0.022 A 
ATOM      5  C   LIG A   1      -7.750  -0.100 129.774  0.00  0.00    +0.019 A 
ATOM      6  C   LIG A   1      -8.301   1.172 129.989  0.00  0.00    -0.003 A 
ATOM      7  C   LIG A   1      -8.624   1.920 128.851  0.00  0.00    +0.121 A 
ATOM      8  C   LIG A   1      -8.444   1.407 127.560  0.00  0.00    +0.050 A 
ATOM      9  C   LIG A   1      -7.062  -1.990 128.339  0.00  0.00    +0.164 C 
ATOM     10  O   LIG A   1      -6.479  -2.553 129.258  0.00  0.00    -0.292 OA
ATOM     11  C   LIG A   1      -7.422  -2.682 127.059  0.00  0.00    +0.084 C 
ATOM     12  C   LIG A   1      -7.032  -1.839 125.838  0.00  0.00    +0.012 C 
ATOM     13  C   LIG A   1      -7.326  -2.631 124.492  0.00  0.00    -0.031 C 
ATOM     14  C   LIG A   1      -8.522  -3.612 124.586  0.00  0.00    +0.011 C 
ATOM     15  C   LIG A   1      -6.083  -3.482 124.141  0.00  0.00    +0.011 C 
ATOM     16  C   LIG A   1      -7.593  -1.675 123.316  0.00  0.00    +0.007 C 
ATOM     17  C   LIG A   1      -8.713  -0.673 123.580  0.00  0.00    +0.001 C 
ATOM     18  C   LIG A   1      -8.903  -0.297 125.049  0.00  0.00    +0.012 C 
ENDROOT
BRANCH   6  19
ATOM     19  C   LIG A   1      -8.512   1.701 131.399  0.00  0.00    +0.016 C 
ATOM     20  C   LIG A   1      -7.519   1.048 132.363  0.00  0.00    +0.012 C 
ATOM     21  C   LIG A   1      -9.946   1.540 131.923  0.00  0.00    +0.012 C 
ENDBRANCH   6  19
BRANCH   7  22
ATOM     22  O   LIG A   1      -9.112   3.195 128.904  0.00  0.00    -0.506 OA
ATOM     23  H   LIG A   1      -8.656   3.742 128.245  0.00  0.00    +0.292 HD
ENDBRANCH   7  22
TORSDOF 2
ENDMDL
MODEL 7
REMARK VINA RESULT:      -7.4      2.269      3.442
REMARK  Name = NuBBE_2387
REMARK  7 active torsions:
REMARK  status: ('A' for Active; 'I' for Inactive)
REMARK    1  A    between atoms: C_1  and  C_2
REMARK    2  A    between atoms: C_6  and  C_10
REMARK    3  A    between atoms: C_7  and  O_9
REMARK    4  A    between atoms: C_10  and  C_11
REMARK    5  A    between atoms: C_10  and  C_12
REMARK    6  A    between atoms: C_18  and  C_19
REMARK    7  A    between atoms: C_18  and  C_20
REMARK                            x       y       z     vdW  Elec       q    Type
REMARK                         _______ _______ _______ _____ _____    ______ ____
ROOT
ATOM      1  C   LIG A   1      -3.835   4.611 133.651  0.00  0.00    +0.016 C 
ATOM      2  C   LIG A   1      -4.095   6.133 133.438  0.00  0.00    -0.003 C 
ATOM      3  C   LIG A   1      -5.533   6.216 132.881  0.00  0.00    -0.027 A 
ATOM      4  C   LIG A   1      -5.818   6.642 131.579  0.00  0.00    +0.022 A 
ATOM      5  C   LIG A   1      -7.125   6.612 131.060  0.00  0.00    +0.019 A 
ATOM      6  C   LIG A   1      -8.213   6.177 131.833  0.00  0.00    -0.003 A 
ATOM      7  C   LIG A   1      -7.927   5.736 133.130  0.00  0.00    +0.121 A 
ATOM      8  C   LIG A   1      -6.626   5.765 133.646  0.00  0.00    +0.050 A 
ATOM      9  C   LIG A   1      -4.745   7.189 130.731  0.00  0.00    +0.164 C 
ATOM     10  O   LIG A   1      -4.875   7.286 129.517  0.00  0.00    -0.292 OA
ATOM     11  C   LIG A   1      -3.558   7.731 131.468  0.00  0.00    +0.084 C 
ATOM     12  C   LIG A   1      -2.992   6.699 132.454  0.00  0.00    +0.012 C 
ATOM     13  C   LIG A   1      -1.675   7.251 133.149  0.00  0.00    -0.031 C 
ATOM     14  C   LIG A   1      -1.648   8.791 133.317  0.00  0.00    +0.011 C 
ATOM     15  C   LIG A   1      -0.460   6.882 132.265  0.00  0.00    +0.011 C 
ATOM     16  C   LIG A   1      -1.458   6.622 134.537  0.00  0.00    +0.007 C 
ATOM     17  C   LIG A   1      -2.647   6.787 135.479  0.00  0.00    +0.001 C 
ATOM     18  C   LIG A   1      -4.005   6.884 134.786  0.00  0.00    +0.012 C 
ENDROOT
BRANCH   6  19
ATOM     19  C   LIG A   1      -9.623   6.177 131.262  0.00  0.00    +0.016 C 
ATOM     20  C   LIG A   1      -9.990   4.778 130.762  0.00  0.00    +0.012 C 
ATOM     21  C   LIG A   1      -9.853   7.215 130.156  0.00  0.00    +0.012 C 
ENDBRANCH   6  19
BRANCH   7  22
ATOM     22  O   LIG A   1      -8.874   5.229 133.976  0.00  0.00    -0.506 OA
ATOM     23  H   LIG A   1      -9.754   5.366 133.592  0.00  0.00    +0.292 HD
ENDBRANCH   7  22
TORSDOF 2
ENDMDL
MODEL 8
REMARK VINA RESULT:      -7.3      8.295      9.484
REMARK  Name = NuBBE_2387
REMARK  7 active torsions:
REMARK  status: ('A' for Active; 'I' for Inactive)
REMARK    1  A    between atoms: C_1  and  C_2
REMARK    2  A    between atoms: C_6  and  C_10
REMARK    3  A    between atoms: C_7  and  O_9
REMARK    4  A    between atoms: C_10  and  C_11
REMARK    5  A    between atoms: C_10  and  C_12
REMARK    6  A    between atoms: C_18  and  C_19
REMARK    7  A    between atoms: C_18  and  C_20
REMARK                            x       y       z     vdW  Elec       q    Type
REMARK                         _______ _______ _______ _____ _____    ______ ____
ROOT
ATOM      1  C   LIG A   1      -8.662   1.386 127.176  0.00  0.00    +0.016 C 
ATOM      2  C   LIG A   1      -7.311   0.795 126.669  0.00  0.00    -0.003 C 
ATOM      3  C   LIG A   1      -7.011   1.557 125.359  0.00  0.00    -0.027 A 
ATOM      4  C   LIG A   1      -7.013   0.936 124.106  0.00  0.00    +0.022 A 
ATOM      5  C   LIG A   1      -6.838   1.668 122.917  0.00  0.00    +0.019 A 
ATOM      6  C   LIG A   1      -6.628   3.055 122.933  0.00  0.00    -0.003 A 
ATOM      7  C   LIG A   1      -6.643   3.680 124.185  0.00  0.00    +0.121 A 
ATOM      8  C   LIG A   1      -6.817   2.951 125.368  0.00  0.00    +0.050 A 
ATOM      9  C   LIG A   1      -7.146  -0.528 124.008  0.00  0.00    +0.164 C 
ATOM     10  O   LIG A   1      -7.453  -1.074 122.955  0.00  0.00    -0.292 OA
ATOM     11  C   LIG A   1      -6.753  -1.292 125.236  0.00  0.00    +0.084 C 
ATOM     12  C   LIG A   1      -7.485  -0.766 126.479  0.00  0.00    +0.012 C 
ATOM     13  C   LIG A   1      -7.136  -1.652 127.751  0.00  0.00    -0.031 C 
ATOM     14  C   LIG A   1      -5.718  -2.277 127.716  0.00  0.00    +0.011 C 
ATOM     15  C   LIG A   1      -8.136  -2.831 127.819  0.00  0.00    +0.011 C 
ATOM     16  C   LIG A   1      -7.264  -0.848 129.057  0.00  0.00    +0.007 C 
ATOM     17  C   LIG A   1      -6.432   0.431 129.075  0.00  0.00    +0.001 C 
ATOM     18  C   LIG A   1      -6.192   1.059 127.702  0.00  0.00    +0.012 C 
ENDROOT
BRANCH   6  19
ATOM     19  C   LIG A   1      -6.416   3.826 121.639  0.00  0.00    +0.016 C 
ATOM     20  C   LIG A   1      -7.661   3.728 120.755  0.00  0.00    +0.012 C 
ATOM     21  C   LIG A   1      -5.169   3.399 120.852  0.00  0.00    +0.012 C 
ENDBRANCH   6  19
BRANCH   7  22
ATOM     22  O   LIG A   1      -6.512   5.030 124.352  0.00  0.00    -0.506 OA
ATOM     23  H   LIG A   1      -7.074   5.490 123.709  0.00  0.00    +0.292 HD
ENDBRANCH   7  22
TORSDOF 2
ENDMDL
MODEL 9
REMARK VINA RESULT:      -7.3      8.438     10.601
REMARK  Name = NuBBE_2387
REMARK  7 active torsions:
REMARK  status: ('A' for Active; 'I' for Inactive)
REMARK    1  A    between atoms: C_1  and  C_2
REMARK    2  A    between atoms: C_6  and  C_10
REMARK    3  A    between atoms: C_7  and  O_9
REMARK    4  A    between atoms: C_10  and  C_11
REMARK    5  A    between atoms: C_10  and  C_12
REMARK    6  A    between atoms: C_18  and  C_19
REMARK    7  A    between atoms: C_18  and  C_20
REMARK                            x       y       z     vdW  Elec       q    Type
REMARK                         _______ _______ _______ _____ _____    ______ ____
ROOT
ATOM      1  C   LIG A   1      -9.469  -3.037 126.224  0.00  0.00    +0.016 C 
ATOM      2  C   LIG A   1      -8.236  -2.089 126.117  0.00  0.00    -0.003 C 
ATOM      3  C   LIG A   1      -7.918  -1.685 127.573  0.00  0.00    -0.027 A 
ATOM      4  C   LIG A   1      -8.071  -0.378 128.047  0.00  0.00    +0.022 A 
ATOM      5  C   LIG A   1      -7.873  -0.054 129.402  0.00  0.00    +0.019 A 
ATOM      6  C   LIG A   1      -7.486  -1.024 130.340  0.00  0.00    -0.003 A 
ATOM      7  C   LIG A   1      -7.348  -2.335 129.870  0.00  0.00    +0.121 A 
ATOM      8  C   LIG A   1      -7.546  -2.656 128.522  0.00  0.00    +0.050 A 
ATOM      9  C   LIG A   1      -8.396   0.713 127.112  0.00  0.00    +0.164 C 
ATOM     10  O   LIG A   1      -8.831   1.787 127.508  0.00  0.00    -0.292 OA
ATOM     11  C   LIG A   1      -8.034   0.459 125.680  0.00  0.00    +0.084 C 
ATOM     12  C   LIG A   1      -8.619  -0.870 125.182  0.00  0.00    +0.012 C 
ATOM     13  C   LIG A   1      -8.315  -1.073 123.636  0.00  0.00    -0.031 C 
ATOM     14  C   LIG A   1      -6.993  -0.418 123.162  0.00  0.00    +0.011 C 
ATOM     15  C   LIG A   1      -9.452  -0.414 122.820  0.00  0.00    +0.011 C 
ATOM     16  C   LIG A   1      -8.263  -2.564 123.257  0.00  0.00    +0.007 C 
ATOM     17  C   LIG A   1      -7.274  -3.376 124.089  0.00  0.00    +0.001 C 
ATOM     18  C   LIG A   1      -7.035  -2.842 125.501  0.00  0.00    +0.012 C 
ENDROOT
BRANCH   6  19
ATOM     19  C   LIG A   1      -7.252  -0.649 131.796  0.00  0.00    +0.016 C 
ATOM     20  C   LIG A   1      -8.206   0.471 132.213  0.00  0.00    +0.012 C 
ATOM     21  C   LIG A   1      -5.802  -0.262 132.119  0.00  0.00    +0.012 C 
ENDBRANCH   6  19
BRANCH   7  22
ATOM     22  O   LIG A   1      -7.036  -3.392 130.678  0.00  0.00    -0.506 OA
ATOM     23  H   LIG A   1      -6.079  -3.407 130.833  0.00  0.00    +0.292 HD
ENDBRANCH   7  22
TORSDOF 2
ENDMDL
