MODEL 1
REMARK VINA RESULT:      -8.6      0.000      0.000
REMARK  Name = NuBBE_480
REMARK  12 active torsions:
REMARK  status: ('A' for Active; 'I' for Inactive)
REMARK    1  A    between atoms: O_1  and  C_2
REMARK    2  A    between atoms: C_6  and  C_39
REMARK    3  A    between atoms: C_8  and  C_9
REMARK    4  A    between atoms: C_8  and  C_10
REMARK    5  A    between atoms: C_10  and  O_11
REMARK    6  A    between atoms: C_15  and  C_38
REMARK    7  A    between atoms: C_20  and  C_36
REMARK    8  A    between atoms: C_23  and  C_32
REMARK    9  A    between atoms: C_26  and  C_27
REMARK   10  A    between atoms: C_26  and  C_31
REMARK   11  A    between atoms: C_32  and  O_33
REMARK   12  A    between atoms: O_33  and  C_34
REMARK                            x       y       z     vdW  Elec       q    Type
REMARK                         _______ _______ _______ _____ _____    ______ ____
ROOT
ATOM      1  C   LIG A   1      -8.121  -3.244 124.475  0.00  0.00    +0.123 C 
ATOM      2  C   LIG A   1      -9.268  -2.801 125.380  0.00  0.00    +0.032 C 
ATOM      3  C   LIG A   1      -8.931  -2.906 126.874  0.00  0.00    +0.010 C 
ATOM      4  C   LIG A   1      -7.631  -2.144 127.303  0.00  0.00    -0.025 C 
ATOM      5  C   LIG A   1      -6.477  -2.615 126.337  0.00  0.00    +0.006 C 
ATOM      6  C   LIG A   1      -6.776  -2.518 124.787  0.00  0.00    +0.020 C 
ATOM      7  C   LIG A   1      -5.656  -3.247 123.991  0.00  0.00    +0.016 C 
ATOM      8  C   LIG A   1      -5.124  -2.027 126.770  0.00  0.00    +0.005 C 
ATOM      9  C   LIG A   1      -4.733  -2.507 128.173  0.00  0.00    +0.008 C 
ATOM     10  C   LIG A   1      -5.770  -2.266 129.308  0.00  0.00    -0.019 C 
ATOM     11  C   LIG A   1      -7.230  -2.592 128.781  0.00  0.00    +0.006 C 
ATOM     12  C   LIG A   1      -8.280  -2.302 129.873  0.00  0.00    +0.031 C 
ATOM     13  C   LIG A   1      -8.050  -1.068 130.680  0.00  0.00    -0.026 C 
ATOM     14  C   LIG A   1      -6.910  -0.358 130.746  0.00  0.00    -0.063 C 
ATOM     15  C   LIG A   1      -5.616  -0.805 130.032  0.00  0.00    -0.005 C 
ATOM     16  C   LIG A   1      -4.506  -0.835 131.144  0.00  0.00    +0.012 C 
ATOM     17  C   LIG A   1      -4.328   0.475 131.930  0.00  0.00    +0.019 C 
ATOM     18  C   LIG A   1      -5.644   1.002 132.551  0.00  0.00    +0.074 C 
ATOM     19  C   LIG A   1      -5.449   2.491 132.950  0.00  0.00    +0.019 C 
ATOM     20  C   LIG A   1      -6.703   3.120 133.565  0.00  0.00    +0.007 C 
ATOM     21  C   LIG A   1      -7.986   2.943 132.725  0.00  0.00    -0.034 C 
ATOM     22  C   LIG A   1      -8.001   3.948 131.555  0.00  0.00    +0.011 C 
ATOM     23  C   LIG A   1      -8.118   1.496 132.184  0.00  0.00    +0.015 C 
ATOM     24  C   LIG A   1      -6.816   0.961 131.531  0.00  0.00    +0.033 C 
ATOM     25  C   LIG A   1      -9.206   3.248 133.619  0.00  0.00    +0.011 C 
ATOM     26  C   LIG A   1      -5.174   0.295 129.030  0.00  0.00    +0.016 C 
ATOM     27  C   LIG A   1      -5.464  -3.395 130.362  0.00  0.00    +0.012 C 
ATOM     28  C   LIG A   1      -7.948  -0.635 127.227  0.00  0.00    +0.012 C 
ENDROOT
BRANCH   1  29
ATOM     29  O   LIG A   1      -7.992  -4.668 124.582  0.00  0.00    -0.391 OA
ATOM     30  H   LIG A   1      -8.764  -5.021 125.052  0.00  0.00    +0.210 HD
ENDBRANCH   1  29
BRANCH  18  31
ATOM     31  C   LIG A   1      -5.929   0.125 133.792  0.00  0.00    +0.314 C 
ATOM     32  O   LIG A   1      -6.941  -0.546 133.958  0.00  0.00    -0.250 OA
BRANCH  31  33
ATOM     33  O   LIG A   1      -4.873   0.134 134.652  0.00  0.00    -0.468 OA
ATOM     34  C   LIG A   1      -5.164   0.279 136.046  0.00  0.00    +0.280 C 
ENDBRANCH  31  33
ENDBRANCH  18  31
BRANCH   6  35
ATOM     35  C   LIG A   1      -6.824  -1.058 124.267  0.00  0.00    +0.165 C 
BRANCH  35  36
ATOM     36  O   LIG A   1      -6.568  -0.999 122.866  0.00  0.00    -0.394 OA
ATOM     37  H   LIG A   1      -5.816  -0.395 122.736  0.00  0.00    +0.209 HD
ENDBRANCH  35  36
ENDBRANCH   6  35
TORSDOF 5
ENDMDL
MODEL 2
REMARK VINA RESULT:      -8.5      3.869      8.611
REMARK  Name = NuBBE_480
REMARK  12 active torsions:
REMARK  status: ('A' for Active; 'I' for Inactive)
REMARK    1  A    between atoms: O_1  and  C_2
REMARK    2  A    between atoms: C_6  and  C_39
REMARK    3  A    between atoms: C_8  and  C_9
REMARK    4  A    between atoms: C_8  and  C_10
REMARK    5  A    between atoms: C_10  and  O_11
REMARK    6  A    between atoms: C_15  and  C_38
REMARK    7  A    between atoms: C_20  and  C_36
REMARK    8  A    between atoms: C_23  and  C_32
REMARK    9  A    between atoms: C_26  and  C_27
REMARK   10  A    between atoms: C_26  and  C_31
REMARK   11  A    between atoms: C_32  and  O_33
REMARK   12  A    between atoms: O_33  and  C_34
REMARK                            x       y       z     vdW  Elec       q    Type
REMARK                         _______ _______ _______ _____ _____    ______ ____
ROOT
ATOM      1  C   LIG A   1      -4.550   6.730 130.367  0.00  0.00    +0.123 C 
ATOM      2  C   LIG A   1      -5.539   5.806 131.072  0.00  0.00    +0.032 C 
ATOM      3  C   LIG A   1      -6.558   5.173 130.115  0.00  0.00    +0.010 C 
ATOM      4  C   LIG A   1      -5.926   4.403 128.906  0.00  0.00    -0.025 C 
ATOM      5  C   LIG A   1      -4.902   5.383 128.216  0.00  0.00    +0.006 C 
ATOM      6  C   LIG A   1      -3.826   6.054 129.162  0.00  0.00    +0.020 C 
ATOM      7  C   LIG A   1      -3.069   7.169 128.386  0.00  0.00    +0.016 C 
ATOM      8  C   LIG A   1      -4.332   4.766 126.928  0.00  0.00    +0.005 C 
ATOM      9  C   LIG A   1      -5.438   4.507 125.900  0.00  0.00    +0.008 C 
ATOM     10  C   LIG A   1      -6.647   3.648 126.375  0.00  0.00    -0.019 C 
ATOM     11  C   LIG A   1      -7.070   4.079 127.841  0.00  0.00    +0.006 C 
ATOM     12  C   LIG A   1      -8.228   3.199 128.354  0.00  0.00    +0.031 C 
ATOM     13  C   LIG A   1      -8.139   1.750 128.012  0.00  0.00    -0.026 C 
ATOM     14  C   LIG A   1      -7.332   1.194 127.092  0.00  0.00    -0.063 C 
ATOM     15  C   LIG A   1      -6.422   2.038 126.174  0.00  0.00    -0.005 C 
ATOM     16  C   LIG A   1      -6.768   1.594 124.707  0.00  0.00    +0.012 C 
ATOM     17  C   LIG A   1      -6.651   0.084 124.433  0.00  0.00    +0.019 C 
ATOM     18  C   LIG A   1      -7.463  -0.784 125.425  0.00  0.00    +0.074 C 
ATOM     19  C   LIG A   1      -6.961  -2.252 125.332  0.00  0.00    +0.019 C 
ATOM     20  C   LIG A   1      -7.692  -3.200 126.288  0.00  0.00    +0.007 C 
ATOM     21  C   LIG A   1      -7.728  -2.727 127.757  0.00  0.00    -0.034 C 
ATOM     22  C   LIG A   1      -6.373  -3.008 128.441  0.00  0.00    +0.011 C 
ATOM     23  C   LIG A   1      -8.073  -1.219 127.861  0.00  0.00    +0.015 C 
ATOM     24  C   LIG A   1      -7.248  -0.329 126.895  0.00  0.00    +0.033 C 
ATOM     25  C   LIG A   1      -8.806  -3.534 128.508  0.00  0.00    +0.011 C 
ATOM     26  C   LIG A   1      -4.942   1.628 126.397  0.00  0.00    +0.016 C 
ATOM     27  C   LIG A   1      -7.841   4.117 125.461  0.00  0.00    +0.012 C 
ATOM     28  C   LIG A   1      -5.291   3.116 129.475  0.00  0.00    +0.012 C 
ENDROOT
BRANCH   1  29
ATOM     29  O   LIG A   1      -5.253   7.914 129.967  0.00  0.00    -0.391 OA
ATOM     30  H   LIG A   1      -6.205   7.729 129.959  0.00  0.00    +0.210 HD
ENDBRANCH   1  29
BRANCH  18  31
ATOM     31  C   LIG A   1      -8.944  -0.673 124.998  0.00  0.00    +0.314 C 
ATOM     32  O   LIG A   1      -9.807  -0.056 125.613  0.00  0.00    -0.250 OA
BRANCH  31  33
ATOM     33  O   LIG A   1      -9.159  -1.291 123.803  0.00  0.00    -0.468 OA
ATOM     34  C   LIG A   1      -9.735  -0.507 122.753  0.00  0.00    +0.280 C 
ENDBRANCH  31  33
ENDBRANCH  18  31
BRANCH   6  35
ATOM     35  C   LIG A   1      -2.758   5.053 129.674  0.00  0.00    +0.165 C 
BRANCH  35  36
ATOM     36  O   LIG A   1      -2.162   5.508 130.886  0.00  0.00    -0.394 OA
ATOM     37  H   LIG A   1      -2.576   6.361 131.109  0.00  0.00    +0.209 HD
ENDBRANCH  35  36
ENDBRANCH   6  35
TORSDOF 5
ENDMDL
MODEL 3
REMARK VINA RESULT:      -8.3      2.423      7.772
REMARK  Name = NuBBE_480
REMARK  12 active torsions:
REMARK  status: ('A' for Active; 'I' for Inactive)
REMARK    1  A    between atoms: O_1  and  C_2
REMARK    2  A    between atoms: C_6  and  C_39
REMARK    3  A    between atoms: C_8  and  C_9
REMARK    4  A    between atoms: C_8  and  C_10
REMARK    5  A    between atoms: C_10  and  O_11
REMARK    6  A    between atoms: C_15  and  C_38
REMARK    7  A    between atoms: C_20  and  C_36
REMARK    8  A    between atoms: C_23  and  C_32
REMARK    9  A    between atoms: C_26  and  C_27
REMARK   10  A    between atoms: C_26  and  C_31
REMARK   11  A    between atoms: C_32  and  O_33
REMARK   12  A    between atoms: O_33  and  C_34
REMARK                            x       y       z     vdW  Elec       q    Type
REMARK                         _______ _______ _______ _____ _____    ______ ____
ROOT
ATOM      1  C   LIG A   1      -5.357  -3.985 134.608  0.00  0.00    +0.123 C 
ATOM      2  C   LIG A   1      -6.659  -4.377 133.914  0.00  0.00    +0.032 C 
ATOM      3  C   LIG A   1      -7.195  -3.285 132.978  0.00  0.00    +0.010 C 
ATOM      4  C   LIG A   1      -6.175  -2.799 131.893  0.00  0.00    -0.025 C 
ATOM      5  C   LIG A   1      -4.842  -2.420 132.646  0.00  0.00    +0.006 C 
ATOM      6  C   LIG A   1      -4.247  -3.518 133.616  0.00  0.00    +0.020 C 
ATOM      7  C   LIG A   1      -3.095  -2.902 134.461  0.00  0.00    +0.016 C 
ATOM      8  C   LIG A   1      -3.824  -1.795 131.679  0.00  0.00    +0.005 C 
ATOM      9  C   LIG A   1      -4.360  -0.493 131.072  0.00  0.00    +0.008 C 
ATOM     10  C   LIG A   1      -5.743  -0.571 130.361  0.00  0.00    -0.019 C 
ATOM     11  C   LIG A   1      -6.735  -1.469 131.212  0.00  0.00    +0.006 C 
ATOM     12  C   LIG A   1      -8.093  -1.609 130.495  0.00  0.00    +0.031 C 
ATOM     13  C   LIG A   1      -8.027  -1.788 129.015  0.00  0.00    -0.026 C 
ATOM     14  C   LIG A   1      -6.960  -1.563 128.230  0.00  0.00    -0.063 C 
ATOM     15  C   LIG A   1      -5.640  -0.979 128.778  0.00  0.00    -0.005 C 
ATOM     16  C   LIG A   1      -5.327   0.276 127.886  0.00  0.00    +0.012 C 
ATOM     17  C   LIG A   1      -5.274   0.009 126.372  0.00  0.00    +0.019 C 
ATOM     18  C   LIG A   1      -6.544  -0.688 125.827  0.00  0.00    +0.074 C 
ATOM     19  C   LIG A   1      -6.230  -1.275 124.423  0.00  0.00    +0.019 C 
ATOM     20  C   LIG A   1      -7.421  -2.004 123.794  0.00  0.00    +0.007 C 
ATOM     21  C   LIG A   1      -8.068  -3.073 124.700  0.00  0.00    -0.034 C 
ATOM     22  C   LIG A   1      -7.219  -4.362 124.696  0.00  0.00    +0.011 C 
ATOM     23  C   LIG A   1      -8.245  -2.559 126.152  0.00  0.00    +0.015 C 
ATOM     24  C   LIG A   1      -6.973  -1.882 126.725  0.00  0.00    +0.033 C 
ATOM     25  C   LIG A   1      -9.456  -3.427 124.129  0.00  0.00    +0.011 C 
ATOM     26  C   LIG A   1      -4.484  -1.980 128.511  0.00  0.00    +0.016 C 
ATOM     27  C   LIG A   1      -6.324   0.888 130.478  0.00  0.00    +0.012 C 
ATOM     28  C   LIG A   1      -6.024  -3.947 130.872  0.00  0.00    +0.012 C 
ENDROOT
BRANCH   1  29
ATOM     29  O   LIG A   1      -5.657  -2.976 135.582  0.00  0.00    -0.391 OA
ATOM     30  H   LIG A   1      -5.426  -3.308 136.463  0.00  0.00    +0.210 HD
ENDBRANCH   1  29
BRANCH  18  31
ATOM     31  C   LIG A   1      -7.642   0.396 125.746  0.00  0.00    +0.314 C 
ATOM     32  O   LIG A   1      -8.624   0.455 126.478  0.00  0.00    -0.250 OA
BRANCH  31  33
ATOM     33  O   LIG A   1      -7.344   1.328 124.799  0.00  0.00    -0.468 OA
ATOM     34  C   LIG A   1      -8.400   1.732 123.921  0.00  0.00    +0.280 C 
ENDBRANCH  31  33
ENDBRANCH  18  31
BRANCH   6  35
ATOM     35  C   LIG A   1      -3.656  -4.738 132.864  0.00  0.00    +0.165 C 
BRANCH  35  36
ATOM     36  O   LIG A   1      -2.263  -4.884 133.130  0.00  0.00    -0.394 OA
ATOM     37  H   LIG A   1      -1.978  -5.722 132.725  0.00  0.00    +0.209 HD
ENDBRANCH  35  36
ENDBRANCH   6  35
TORSDOF 5
ENDMDL
MODEL 4
REMARK VINA RESULT:      -8.2      4.199      5.608
REMARK  Name = NuBBE_480
REMARK  12 active torsions:
REMARK  status: ('A' for Active; 'I' for Inactive)
REMARK    1  A    between atoms: O_1  and  C_2
REMARK    2  A    between atoms: C_6  and  C_39
REMARK    3  A    between atoms: C_8  and  C_9
REMARK    4  A    between atoms: C_8  and  C_10
REMARK    5  A    between atoms: C_10  and  O_11
REMARK    6  A    between atoms: C_15  and  C_38
REMARK    7  A    between atoms: C_20  and  C_36
REMARK    8  A    between atoms: C_23  and  C_32
REMARK    9  A    between atoms: C_26  and  C_27
REMARK   10  A    between atoms: C_26  and  C_31
REMARK   11  A    between atoms: C_32  and  O_33
REMARK   12  A    between atoms: O_33  and  C_34
REMARK                            x       y       z     vdW  Elec       q    Type
REMARK                         _______ _______ _______ _____ _____    ______ ____
ROOT
ATOM      1  C   LIG A   1      -7.359   0.369 124.576  0.00  0.00    +0.123 C 
ATOM      2  C   LIG A   1      -7.426  -0.080 126.034  0.00  0.00    +0.032 C 
ATOM      3  C   LIG A   1      -6.181   0.310 126.841  0.00  0.00    +0.010 C 
ATOM      4  C   LIG A   1      -5.831   1.836 126.803  0.00  0.00    -0.025 C 
ATOM      5  C   LIG A   1      -5.788   2.264 125.286  0.00  0.00    +0.006 C 
ATOM      6  C   LIG A   1      -7.054   1.890 124.414  0.00  0.00    +0.020 C 
ATOM      7  C   LIG A   1      -6.750   2.148 122.911  0.00  0.00    +0.016 C 
ATOM      8  C   LIG A   1      -5.310   3.718 125.138  0.00  0.00    +0.005 C 
ATOM      9  C   LIG A   1      -3.885   3.892 125.675  0.00  0.00    +0.008 C 
ATOM     10  C   LIG A   1      -3.627   3.426 127.137  0.00  0.00    -0.019 C 
ATOM     11  C   LIG A   1      -4.367   2.050 127.402  0.00  0.00    +0.006 C 
ATOM     12  C   LIG A   1      -4.174   1.600 128.865  0.00  0.00    +0.031 C 
ATOM     13  C   LIG A   1      -4.251   2.682 129.889  0.00  0.00    -0.026 C 
ATOM     14  C   LIG A   1      -4.188   4.005 129.659  0.00  0.00    -0.063 C 
ATOM     15  C   LIG A   1      -3.927   4.588 128.253  0.00  0.00    -0.005 C 
ATOM     16  C   LIG A   1      -2.697   5.553 128.415  0.00  0.00    +0.012 C 
ATOM     17  C   LIG A   1      -2.854   6.643 129.489  0.00  0.00    +0.019 C 
ATOM     18  C   LIG A   1      -3.237   6.082 130.880  0.00  0.00    +0.074 C 
ATOM     19  C   LIG A   1      -3.767   7.248 131.761  0.00  0.00    +0.019 C 
ATOM     20  C   LIG A   1      -4.190   6.799 133.163  0.00  0.00    +0.007 C 
ATOM     21  C   LIG A   1      -5.171   5.607 133.185  0.00  0.00    -0.034 C 
ATOM     22  C   LIG A   1      -6.600   6.088 132.858  0.00  0.00    +0.011 C 
ATOM     23  C   LIG A   1      -4.743   4.497 132.192  0.00  0.00    +0.015 C 
ATOM     24  C   LIG A   1      -4.383   5.038 130.782  0.00  0.00    +0.033 C 
ATOM     25  C   LIG A   1      -5.192   5.014 134.609  0.00  0.00    +0.011 C 
ATOM     26  C   LIG A   1      -5.118   5.494 127.842  0.00  0.00    +0.016 C 
ATOM     27  C   LIG A   1      -2.094   3.069 127.169  0.00  0.00    +0.012 C 
ATOM     28  C   LIG A   1      -6.905   2.565 127.639  0.00  0.00    +0.012 C 
ENDROOT
BRANCH   1  29
ATOM     29  O   LIG A   1      -6.387  -0.442 123.904  0.00  0.00    -0.391 OA
ATOM     30  H   LIG A   1      -6.096  -1.148 124.501  0.00  0.00    +0.210 HD
ENDBRANCH   1  29
BRANCH  18  31
ATOM     31  C   LIG A   1      -1.949   5.471 131.479  0.00  0.00    +0.314 C 
ATOM     32  O   LIG A   1      -1.853   4.329 131.915  0.00  0.00    -0.250 OA
BRANCH  31  33
ATOM     33  O   LIG A   1      -0.906   6.343 131.395  0.00  0.00    -0.468 OA
ATOM     34  C   LIG A   1      -0.388   6.866 132.622  0.00  0.00    +0.280 C 
ENDBRANCH  31  33
ENDBRANCH  18  31
BRANCH   6  35
ATOM     35  C   LIG A   1      -8.308   2.728 124.774  0.00  0.00    +0.165 C 
BRANCH  35  36
ATOM     36  O   LIG A   1      -8.637   3.639 123.728  0.00  0.00    -0.394 OA
ATOM     37  H   LIG A   1      -9.095   4.395 124.137  0.00  0.00    +0.209 HD
ENDBRANCH  35  36
ENDBRANCH   6  35
TORSDOF 5
ENDMDL
MODEL 5
REMARK VINA RESULT:      -8.1      2.647      7.875
REMARK  Name = NuBBE_480
REMARK  12 active torsions:
REMARK  status: ('A' for Active; 'I' for Inactive)
REMARK    1  A    between atoms: O_1  and  C_2
REMARK    2  A    between atoms: C_6  and  C_39
REMARK    3  A    between atoms: C_8  and  C_9
REMARK    4  A    between atoms: C_8  and  C_10
REMARK    5  A    between atoms: C_10  and  O_11
REMARK    6  A    between atoms: C_15  and  C_38
REMARK    7  A    between atoms: C_20  and  C_36
REMARK    8  A    between atoms: C_23  and  C_32
REMARK    9  A    between atoms: C_26  and  C_27
REMARK   10  A    between atoms: C_26  and  C_31
REMARK   11  A    between atoms: C_32  and  O_33
REMARK   12  A    between atoms: O_33  and  C_34
REMARK                            x       y       z     vdW  Elec       q    Type
REMARK                         _______ _______ _______ _____ _____    ______ ____
ROOT
ATOM      1  C   LIG A   1      -6.265   6.321 132.079  0.00  0.00    +0.123 C 
ATOM      2  C   LIG A   1      -5.689   5.938 130.718  0.00  0.00    +0.032 C 
ATOM      3  C   LIG A   1      -5.165   4.497 130.671  0.00  0.00    +0.010 C 
ATOM      4  C   LIG A   1      -6.210   3.410 131.097  0.00  0.00    -0.025 C 
ATOM      5  C   LIG A   1      -6.792   3.849 132.495  0.00  0.00    +0.006 C 
ATOM      6  C   LIG A   1      -7.351   5.326 132.590  0.00  0.00    +0.020 C 
ATOM      7  C   LIG A   1      -7.647   5.679 134.076  0.00  0.00    +0.016 C 
ATOM      8  C   LIG A   1      -7.725   2.769 133.066  0.00  0.00    +0.005 C 
ATOM      9  C   LIG A   1      -6.973   1.455 133.307  0.00  0.00    +0.008 C 
ATOM     10  C   LIG A   1      -6.200   0.860 132.094  0.00  0.00    -0.019 C 
ATOM     11  C   LIG A   1      -5.457   2.019 131.308  0.00  0.00    +0.006 C 
ATOM     12  C   LIG A   1      -4.734   1.458 130.066  0.00  0.00    +0.031 C 
ATOM     13  C   LIG A   1      -5.477   0.413 129.303  0.00  0.00    -0.026 C 
ATOM     14  C   LIG A   1      -6.550  -0.274 129.727  0.00  0.00    -0.063 C 
ATOM     15  C   LIG A   1      -7.117  -0.122 131.156  0.00  0.00    -0.005 C 
ATOM     16  C   LIG A   1      -7.178  -1.577 131.746  0.00  0.00    +0.012 C 
ATOM     17  C   LIG A   1      -7.964  -2.595 130.902  0.00  0.00    +0.019 C 
ATOM     18  C   LIG A   1      -7.487  -2.671 129.431  0.00  0.00    +0.074 C 
ATOM     19  C   LIG A   1      -8.577  -3.390 128.587  0.00  0.00    +0.019 C 
ATOM     20  C   LIG A   1      -8.211  -3.507 127.104  0.00  0.00    +0.007 C 
ATOM     21  C   LIG A   1      -7.795  -2.176 126.441  0.00  0.00    -0.034 C 
ATOM     22  C   LIG A   1      -9.043  -1.330 126.113  0.00  0.00    +0.011 C 
ATOM     23  C   LIG A   1      -6.827  -1.368 127.342  0.00  0.00    +0.015 C 
ATOM     24  C   LIG A   1      -7.303  -1.257 128.814  0.00  0.00    +0.033 C 
ATOM     25  C   LIG A   1      -7.083  -2.492 125.110  0.00  0.00    +0.011 C 
ATOM     26  C   LIG A   1      -8.590   0.360 131.078  0.00  0.00    +0.016 C 
ATOM     27  C   LIG A   1      -5.043   0.013 132.745  0.00  0.00    +0.012 C 
ATOM     28  C   LIG A   1      -7.260   3.328 129.968  0.00  0.00    +0.012 C 
ENDROOT
BRANCH   1  29
ATOM     29  O   LIG A   1      -5.177   6.442 133.006  0.00  0.00    -0.391 OA
ATOM     30  H   LIG A   1      -4.473   6.972 132.600  0.00  0.00    +0.210 HD
ENDBRANCH   1  29
BRANCH  18  31
ATOM     31  C   LIG A   1      -6.166  -3.474 129.436  0.00  0.00    +0.314 C 
ATOM     32  O   LIG A   1      -5.113  -3.095 128.935  0.00  0.00    -0.250 OA
BRANCH  31  33
ATOM     33  O   LIG A   1      -6.299  -4.634 130.137  0.00  0.00    -0.468 OA
ATOM     34  C   LIG A   1      -5.253  -4.969 131.054  0.00  0.00    +0.280 C 
ENDBRANCH  31  33
ENDBRANCH  18  31
BRANCH   6  35
ATOM     35  C   LIG A   1      -8.672   5.527 131.805  0.00  0.00    +0.165 C 
BRANCH  35  36
ATOM     36  O   LIG A   1      -9.539   6.438 132.476  0.00  0.00    -0.394 OA
ATOM     37  H   LIG A   1      -8.980   7.022 133.019  0.00  0.00    +0.209 HD
ENDBRANCH  35  36
ENDBRANCH   6  35
TORSDOF 5
ENDMDL
MODEL 6
REMARK VINA RESULT:      -8.1      2.789      7.592
REMARK  Name = NuBBE_480
REMARK  12 active torsions:
REMARK  status: ('A' for Active; 'I' for Inactive)
REMARK    1  A    between atoms: O_1  and  C_2
REMARK    2  A    between atoms: C_6  and  C_39
REMARK    3  A    between atoms: C_8  and  C_9
REMARK    4  A    between atoms: C_8  and  C_10
REMARK    5  A    between atoms: C_10  and  O_11
REMARK    6  A    between atoms: C_15  and  C_38
REMARK    7  A    between atoms: C_20  and  C_36
REMARK    8  A    between atoms: C_23  and  C_32
REMARK    9  A    between atoms: C_26  and  C_27
REMARK   10  A    between atoms: C_26  and  C_31
REMARK   11  A    between atoms: C_32  and  O_33
REMARK   12  A    between atoms: O_33  and  C_34
REMARK                            x       y       z     vdW  Elec       q    Type
REMARK                         _______ _______ _______ _____ _____    ______ ____
ROOT
ATOM      1  C   LIG A   1      -4.397  -3.175 132.027  0.00  0.00    +0.123 C 
ATOM      2  C   LIG A   1      -3.439  -2.567 131.005  0.00  0.00    +0.032 C 
ATOM      3  C   LIG A   1      -4.005  -2.563 129.579  0.00  0.00    +0.010 C 
ATOM      4  C   LIG A   1      -5.401  -1.867 129.434  0.00  0.00    -0.025 C 
ATOM      5  C   LIG A   1      -6.353  -2.509 130.514  0.00  0.00    +0.006 C 
ATOM      6  C   LIG A   1      -5.816  -2.529 132.001  0.00  0.00    +0.020 C 
ATOM      7  C   LIG A   1      -6.747  -3.410 132.883  0.00  0.00    +0.016 C 
ATOM      8  C   LIG A   1      -7.792  -1.990 130.355  0.00  0.00    +0.005 C 
ATOM      9  C   LIG A   1      -8.373  -2.370 128.989  0.00  0.00    +0.008 C 
ATOM     10  C   LIG A   1      -7.548  -1.950 127.737  0.00  0.00    -0.019 C 
ATOM     11  C   LIG A   1      -6.006  -2.209 127.998  0.00  0.00    +0.006 C 
ATOM     12  C   LIG A   1      -5.164  -1.743 126.792  0.00  0.00    +0.031 C 
ATOM     13  C   LIG A   1      -5.597  -0.463 126.158  0.00  0.00    -0.026 C 
ATOM     14  C   LIG A   1      -6.773   0.161 126.340  0.00  0.00    -0.063 C 
ATOM     15  C   LIG A   1      -7.906  -0.446 127.196  0.00  0.00    -0.005 C 
ATOM     16  C   LIG A   1      -9.176  -0.461 126.272  0.00  0.00    +0.012 C 
ATOM     17  C   LIG A   1      -9.558   0.898 125.659  0.00  0.00    +0.019 C 
ATOM     18  C   LIG A   1      -8.393   1.577 124.898  0.00  0.00    +0.074 C 
ATOM     19  C   LIG A   1      -8.740   3.077 124.686  0.00  0.00    +0.019 C 
ATOM     20  C   LIG A   1      -7.642   3.852 123.951  0.00  0.00    +0.007 C 
ATOM     21  C   LIG A   1      -6.233   3.698 124.562  0.00  0.00    -0.034 C 
ATOM     22  C   LIG A   1      -6.092   4.593 125.811  0.00  0.00    +0.011 C 
ATOM     23  C   LIG A   1      -5.927   2.223 124.928  0.00  0.00    +0.015 C 
ATOM     24  C   LIG A   1      -7.072   1.534 125.716  0.00  0.00    +0.033 C 
ATOM     25  C   LIG A   1      -5.194   4.175 123.526  0.00  0.00    +0.011 C 
ATOM     26  C   LIG A   1      -8.247   0.523 128.360  0.00  0.00    +0.016 C 
ATOM     27  C   LIG A   1      -7.950  -3.000 126.635  0.00  0.00    +0.012 C 
ATOM     28  C   LIG A   1      -5.168  -0.351 129.612  0.00  0.00    +0.012 C 
ENDROOT
BRANCH   1  29
ATOM     29  O   LIG A   1      -4.453  -4.589 131.799  0.00  0.00    -0.391 OA
ATOM     30  H   LIG A   1      -4.339  -5.051 132.644  0.00  0.00    +0.210 HD
ENDBRANCH   1  29
BRANCH  18  31
ATOM     31  C   LIG A   1      -8.258   0.839 123.547  0.00  0.00    +0.314 C 
ATOM     32  O   LIG A   1      -7.339   0.085 123.248  0.00  0.00    -0.250 OA
BRANCH  31  33
ATOM     33  O   LIG A   1      -9.336   1.076 122.748  0.00  0.00    -0.468 OA
ATOM     34  C   LIG A   1     -10.116  -0.054 122.346  0.00  0.00    +0.280 C 
ENDBRANCH  31  33
ENDBRANCH  18  31
BRANCH   6  35
ATOM     35  C   LIG A   1      -5.774  -1.122 132.652  0.00  0.00    +0.165 C 
BRANCH  35  36
ATOM     36  O   LIG A   1      -6.797  -0.975 133.633  0.00  0.00    -0.394 OA
ATOM     37  H   LIG A   1      -6.398  -0.533 134.403  0.00  0.00    +0.209 HD
ENDBRANCH  35  36
ENDBRANCH   6  35
TORSDOF 5
ENDMDL
MODEL 7
REMARK VINA RESULT:      -8.1      2.959      4.922
REMARK  Name = NuBBE_480
REMARK  12 active torsions:
REMARK  status: ('A' for Active; 'I' for Inactive)
REMARK    1  A    between atoms: O_1  and  C_2
REMARK    2  A    between atoms: C_6  and  C_39
REMARK    3  A    between atoms: C_8  and  C_9
REMARK    4  A    between atoms: C_8  and  C_10
REMARK    5  A    between atoms: C_10  and  O_11
REMARK    6  A    between atoms: C_15  and  C_38
REMARK    7  A    between atoms: C_20  and  C_36
REMARK    8  A    between atoms: C_23  and  C_32
REMARK    9  A    between atoms: C_26  and  C_27
REMARK   10  A    between atoms: C_26  and  C_31
REMARK   11  A    between atoms: C_32  and  O_33
REMARK   12  A    between atoms: O_33  and  C_34
REMARK                            x       y       z     vdW  Elec       q    Type
REMARK                         _______ _______ _______ _____ _____    ______ ____
ROOT
ATOM      1  C   LIG A   1      -7.000  -2.741 123.695  0.00  0.00    +0.123 C 
ATOM      2  C   LIG A   1      -5.689  -2.644 124.473  0.00  0.00    +0.032 C 
ATOM      3  C   LIG A   1      -5.315  -1.203 124.843  0.00  0.00    +0.010 C 
ATOM      4  C   LIG A   1      -6.424  -0.424 125.630  0.00  0.00    -0.025 C 
ATOM      5  C   LIG A   1      -7.761  -0.562 124.806  0.00  0.00    +0.006 C 
ATOM      6  C   LIG A   1      -8.192  -2.030 124.407  0.00  0.00    +0.020 C 
ATOM      7  C   LIG A   1      -9.373  -1.974 123.396  0.00  0.00    +0.016 C 
ATOM      8  C   LIG A   1      -8.879   0.292 125.426  0.00  0.00    +0.005 C 
ATOM      9  C   LIG A   1      -8.516   1.781 125.410  0.00  0.00    +0.008 C 
ATOM     10  C   LIG A   1      -7.161   2.177 126.066  0.00  0.00    -0.019 C 
ATOM     11  C   LIG A   1      -6.043   1.125 125.669  0.00  0.00    +0.006 C 
ATOM     12  C   LIG A   1      -4.706   1.466 126.358  0.00  0.00    +0.031 C 
ATOM     13  C   LIG A   1      -4.808   1.928 127.773  0.00  0.00    -0.026 C 
ATOM     14  C   LIG A   1      -5.922   2.340 128.400  0.00  0.00    -0.063 C 
ATOM     15  C   LIG A   1      -7.278   2.474 127.673  0.00  0.00    -0.005 C 
ATOM     16  C   LIG A   1      -7.763   3.943 127.946  0.00  0.00    +0.012 C 
ATOM     17  C   LIG A   1      -7.844   4.343 129.430  0.00  0.00    +0.019 C 
ATOM     18  C   LIG A   1      -6.526   4.100 130.203  0.00  0.00    +0.074 C 
ATOM     19  C   LIG A   1      -6.825   4.136 131.728  0.00  0.00    +0.019 C 
ATOM     20  C   LIG A   1      -5.584   3.890 132.592  0.00  0.00    +0.007 C 
ATOM     21  C   LIG A   1      -4.787   2.621 132.222  0.00  0.00    -0.034 C 
ATOM     22  C   LIG A   1      -5.487   1.368 132.789  0.00  0.00    +0.011 C 
ATOM     23  C   LIG A   1      -4.614   2.484 130.687  0.00  0.00    +0.015 C 
ATOM     24  C   LIG A   1      -5.932   2.697 129.897  0.00  0.00    +0.033 C 
ATOM     25  C   LIG A   1      -3.391   2.710 132.870  0.00  0.00    +0.011 C 
ATOM     26  C   LIG A   1      -8.324   1.554 128.359  0.00  0.00    +0.016 C 
ATOM     27  C   LIG A   1      -6.743   3.504 125.329  0.00  0.00    +0.012 C 
ATOM     28  C   LIG A   1      -6.484  -1.036 127.046  0.00  0.00    +0.012 C 
ENDROOT
BRANCH   1  29
ATOM     29  O   LIG A   1      -6.778  -2.217 122.380  0.00  0.00    -0.391 OA
ATOM     30  H   LIG A   1      -6.558  -1.274 122.447  0.00  0.00    +0.210 HD
ENDBRANCH   1  29
BRANCH  18  31
ATOM     31  C   LIG A   1      -5.559   5.236 129.798  0.00  0.00    +0.314 C 
ATOM     32  O   LIG A   1      -4.568   5.094 129.090  0.00  0.00    -0.250 OA
BRANCH  31  33
ATOM     33  O   LIG A   1      -5.990   6.439 130.269  0.00  0.00    -0.468 OA
ATOM     34  C   LIG A   1      -4.993   7.364 130.714  0.00  0.00    +0.280 C 
ENDBRANCH  31  33
ENDBRANCH  18  31
BRANCH   6  35
ATOM     35  C   LIG A   1      -8.671  -2.873 125.617  0.00  0.00    +0.165 C 
BRANCH  35  36
ATOM     36  O   LIG A   1     -10.092  -2.980 125.642  0.00  0.00    -0.394 OA
ATOM     37  H   LIG A   1     -10.387  -2.694 126.524  0.00  0.00    +0.209 HD
ENDBRANCH  35  36
ENDBRANCH   6  35
TORSDOF 5
ENDMDL
MODEL 8
REMARK VINA RESULT:      -8.1      2.470      7.903
REMARK  Name = NuBBE_480
REMARK  12 active torsions:
REMARK  status: ('A' for Active; 'I' for Inactive)
REMARK    1  A    between atoms: O_1  and  C_2
REMARK    2  A    between atoms: C_6  and  C_39
REMARK    3  A    between atoms: C_8  and  C_9
REMARK    4  A    between atoms: C_8  and  C_10
REMARK    5  A    between atoms: C_10  and  O_11
REMARK    6  A    between atoms: C_15  and  C_38
REMARK    7  A    between atoms: C_20  and  C_36
REMARK    8  A    between atoms: C_23  and  C_32
REMARK    9  A    between atoms: C_26  and  C_27
REMARK   10  A    between atoms: C_26  and  C_31
REMARK   11  A    between atoms: C_32  and  O_33
REMARK   12  A    between atoms: O_33  and  C_34
REMARK                            x       y       z     vdW  Elec       q    Type
REMARK                         _______ _______ _______ _____ _____    ______ ____
ROOT
ATOM      1  C   LIG A   1      -8.334   5.665 133.642  0.00  0.00    +0.123 C 
ATOM      2  C   LIG A   1      -8.652   4.329 134.310  0.00  0.00    +0.032 C 
ATOM      3  C   LIG A   1      -8.992   3.221 133.305  0.00  0.00    +0.010 C 
ATOM      4  C   LIG A   1      -7.904   2.984 132.203  0.00  0.00    -0.025 C 
ATOM      5  C   LIG A   1      -7.593   4.385 131.551  0.00  0.00    +0.006 C 
ATOM      6  C   LIG A   1      -7.229   5.558 132.547  0.00  0.00    +0.020 C 
ATOM      7  C   LIG A   1      -7.202   6.910 131.777  0.00  0.00    +0.016 C 
ATOM      8  C   LIG A   1      -6.637   4.235 130.356  0.00  0.00    +0.005 C 
ATOM      9  C   LIG A   1      -7.260   3.375 129.250  0.00  0.00    +0.008 C 
ATOM     10  C   LIG A   1      -7.768   1.963 129.666  0.00  0.00    -0.019 C 
ATOM     11  C   LIG A   1      -8.514   2.050 131.062  0.00  0.00    +0.006 C 
ATOM     12  C   LIG A   1      -8.974   0.651 131.522  0.00  0.00    +0.031 C 
ATOM     13  C   LIG A   1      -8.010  -0.460 131.273  0.00  0.00    -0.026 C 
ATOM     14  C   LIG A   1      -6.939  -0.422 130.462  0.00  0.00    -0.063 C 
ATOM     15  C   LIG A   1      -6.615   0.803 129.580  0.00  0.00    -0.005 C 
ATOM     16  C   LIG A   1      -6.474   0.249 128.116  0.00  0.00    +0.012 C 
ATOM     17  C   LIG A   1      -5.458  -0.894 127.942  0.00  0.00    +0.019 C 
ATOM     18  C   LIG A   1      -5.698  -2.080 128.906  0.00  0.00    +0.074 C 
ATOM     19  C   LIG A   1      -4.419  -2.962 128.943  0.00  0.00    +0.019 C 
ATOM     20  C   LIG A   1      -4.542  -4.164 129.884  0.00  0.00    +0.007 C 
ATOM     21  C   LIG A   1      -5.005  -3.813 131.314  0.00  0.00    -0.034 C 
ATOM     22  C   LIG A   1      -3.828  -3.238 132.130  0.00  0.00    +0.011 C 
ATOM     23  C   LIG A   1      -6.184  -2.807 131.301  0.00  0.00    +0.015 C 
ATOM     24  C   LIG A   1      -5.950  -1.595 130.361  0.00  0.00    +0.033 C 
ATOM     25  C   LIG A   1      -5.469  -5.108 132.013  0.00  0.00    +0.011 C 
ATOM     26  C   LIG A   1      -5.212   1.352 129.955  0.00  0.00    +0.016 C 
ATOM     27  C   LIG A   1      -8.904   1.635 128.625  0.00  0.00    +0.012 C 
ATOM     28  C   LIG A   1      -6.695   2.324 132.899  0.00  0.00    +0.012 C 
ENDROOT
BRANCH   1  29
ATOM     29  O   LIG A   1      -9.555   6.201 133.114  0.00  0.00    -0.391 OA
ATOM     30  H   LIG A   1      -9.536   7.168 133.193  0.00  0.00    +0.210 HD
ENDBRANCH   1  29
BRANCH  18  31
ATOM     31  C   LIG A   1      -6.903  -2.869 128.345  0.00  0.00    +0.314 C 
ATOM     32  O   LIG A   1      -7.745  -3.443 129.028  0.00  0.00    -0.250 OA
BRANCH  31  33
ATOM     33  O   LIG A   1      -6.955  -2.786 126.986  0.00  0.00    -0.468 OA
ATOM     34  C   LIG A   1      -8.247  -2.862 126.374  0.00  0.00    +0.280 C 
ENDBRANCH  31  33
ENDBRANCH  18  31
BRANCH   6  35
ATOM     35  C   LIG A   1      -5.837   5.385 133.208  0.00  0.00    +0.165 C 
BRANCH  35  36
ATOM     36  O   LIG A   1      -4.905   6.339 132.707  0.00  0.00    -0.394 OA
ATOM     37  H   LIG A   1      -5.289   7.222 132.852  0.00  0.00    +0.209 HD
ENDBRANCH  35  36
ENDBRANCH   6  35
TORSDOF 5
ENDMDL
MODEL 9
REMARK VINA RESULT:      -7.9      2.896      4.619
REMARK  Name = NuBBE_480
REMARK  12 active torsions:
REMARK  status: ('A' for Active; 'I' for Inactive)
REMARK    1  A    between atoms: O_1  and  C_2
REMARK    2  A    between atoms: C_6  and  C_39
REMARK    3  A    between atoms: C_8  and  C_9
REMARK    4  A    between atoms: C_8  and  C_10
REMARK    5  A    between atoms: C_10  and  O_11
REMARK    6  A    between atoms: C_15  and  C_38
REMARK    7  A    between atoms: C_20  and  C_36
REMARK    8  A    between atoms: C_23  and  C_32
REMARK    9  A    between atoms: C_26  and  C_27
REMARK   10  A    between atoms: C_26  and  C_31
REMARK   11  A    between atoms: C_32  and  O_33
REMARK   12  A    between atoms: O_33  and  C_34
REMARK                            x       y       z     vdW  Elec       q    Type
REMARK                         _______ _______ _______ _____ _____    ______ ____
ROOT
ATOM      1  C   LIG A   1      -7.860   2.253 126.005  0.00  0.00    +0.123 C 
ATOM      2  C   LIG A   1      -7.923   2.728 127.454  0.00  0.00    +0.032 C 
ATOM      3  C   LIG A   1      -8.246   1.600 128.443  0.00  0.00    +0.010 C 
ATOM      4  C   LIG A   1      -7.285   0.366 128.361  0.00  0.00    -0.025 C 
ATOM      5  C   LIG A   1      -7.234  -0.083 126.850  0.00  0.00    +0.006 C 
ATOM      6  C   LIG A   1      -6.897   1.045 125.794  0.00  0.00    +0.020 C 
ATOM      7  C   LIG A   1      -7.134   0.503 124.356  0.00  0.00    +0.016 C 
ATOM      8  C   LIG A   1      -6.425  -1.380 126.690  0.00  0.00    +0.005 C 
ATOM      9  C   LIG A   1      -7.070  -2.537 127.460  0.00  0.00    +0.008 C 
ATOM     10  C   LIG A   1      -7.343  -2.302 128.975  0.00  0.00    -0.019 C 
ATOM     11  C   LIG A   1      -7.913  -0.839 129.198  0.00  0.00    +0.006 C 
ATOM     12  C   LIG A   1      -8.133  -0.564 130.699  0.00  0.00    +0.031 C 
ATOM     13  C   LIG A   1      -7.077  -1.087 131.614  0.00  0.00    -0.026 C 
ATOM     14  C   LIG A   1      -6.131  -1.990 131.308  0.00  0.00    -0.063 C 
ATOM     15  C   LIG A   1      -6.074  -2.693 129.934  0.00  0.00    -0.005 C 
ATOM     16  C   LIG A   1      -6.051  -4.233 130.246  0.00  0.00    +0.012 C 
ATOM     17  C   LIG A   1      -4.931  -4.694 131.195  0.00  0.00    +0.019 C 
ATOM     18  C   LIG A   1      -4.898  -3.912 132.531  0.00  0.00    +0.074 C 
ATOM     19  C   LIG A   1      -3.525  -4.152 133.218  0.00  0.00    +0.019 C 
ATOM     20  C   LIG A   1      -3.379  -3.408 134.549  0.00  0.00    +0.007 C 
ATOM     21  C   LIG A   1      -3.699  -1.899 134.477  0.00  0.00    -0.034 C 
ATOM     22  C   LIG A   1      -2.509  -1.130 133.865  0.00  0.00    +0.011 C 
ATOM     23  C   LIG A   1      -4.986  -1.627 133.657  0.00  0.00    +0.015 C 
ATOM     24  C   LIG A   1      -5.023  -2.380 132.302  0.00  0.00    +0.033 C 
ATOM     25  C   LIG A   1      -3.907  -1.372 135.912  0.00  0.00    +0.011 C 
ATOM     26  C   LIG A   1      -4.714  -2.385 129.252  0.00  0.00    +0.016 C 
ATOM     27  C   LIG A   1      -8.550  -3.256 129.307  0.00  0.00    +0.012 C 
ATOM     28  C   LIG A   1      -5.924   0.817 128.937  0.00  0.00    +0.012 C 
ENDROOT
BRANCH   1  29
ATOM     29  O   LIG A   1      -9.194   1.949 125.577  0.00  0.00    -0.391 OA
ATOM     30  H   LIG A   1      -9.395   1.026 125.797  0.00  0.00    +0.210 HD
ENDBRANCH   1  29
BRANCH  18  31
ATOM     31  C   LIG A   1      -6.057  -4.463 133.393  0.00  0.00    +0.314 C 
ATOM     32  O   LIG A   1      -7.144  -3.914 133.540  0.00  0.00    -0.250 OA
BRANCH  31  33
ATOM     33  O   LIG A   1      -5.745  -5.681 133.916  0.00  0.00    -0.468 OA
ATOM     34  C   LIG A   1      -6.141  -5.936 135.268  0.00  0.00    +0.280 C 
ENDBRANCH  31  33
ENDBRANCH  18  31
BRANCH   6  35
ATOM     35  C   LIG A   1      -5.422   1.519 125.862  0.00  0.00    +0.165 C 
BRANCH  35  36
ATOM     36  O   LIG A   1      -5.270   2.818 125.295  0.00  0.00    -0.394 OA
ATOM     37  H   LIG A   1      -5.064   2.699 124.351  0.00  0.00    +0.209 HD
ENDBRANCH  35  36
ENDBRANCH   6  35
TORSDOF 5
ENDMDL
