MODEL 1
REMARK VINA RESULT:      -8.5      0.000      0.000
REMARK  Name = NuBBE_161
REMARK  11 active torsions:
REMARK  status: ('A' for Active; 'I' for Inactive)
REMARK    1  A    between atoms: O_1  and  C_2
REMARK    2  A    between atoms: C_4  and  O_5
REMARK    3  A    between atoms: C_8  and  O_9
REMARK    4  A    between atoms: O_9  and  C_10
REMARK    5  A    between atoms: C_12  and  O_24
REMARK    6  A    between atoms: C_14  and  O_23
REMARK    7  A    between atoms: C_16  and  O_22
REMARK    8  A    between atoms: C_18  and  C_21
REMARK    9  A    between atoms: C_25  and  C_29
REMARK   10  A    between atoms: C_31  and  O_32
REMARK   11  A    between atoms: C_33  and  O_36
REMARK                            x       y       z     vdW  Elec       q    Type
REMARK                         _______ _______ _______ _____ _____    ______ ____
ROOT
ATOM      1  C   LIG A   1      -3.134   3.954 127.393  0.00  0.00    +0.124 A 
ATOM      2  C   LIG A   1      -3.397   2.836 128.180  0.00  0.00    +0.091 A 
ATOM      3  C   LIG A   1      -4.438   1.982 127.813  0.00  0.00    +0.135 A 
ATOM      4  C   LIG A   1      -5.212   2.248 126.670  0.00  0.00    +0.109 A 
ATOM      5  C   LIG A   1      -6.394   1.458 126.291  0.00  0.00    +0.238 A 
ATOM      6  C   LIG A   1      -6.893   1.586 124.877  0.00  0.00    +0.214 A 
ATOM      7  C   LIG A   1      -6.475   2.695 124.219  0.00  0.00    +0.181 A 
ATOM      8  O   LIG A   1      -5.619   3.654 124.747  0.00  0.00    -0.451 OA
ATOM      9  C   LIG A   1      -4.915   3.352 125.881  0.00  0.00    +0.146 A 
ATOM     10  C   LIG A   1      -3.880   4.215 126.246  0.00  0.00    +0.092 A 
ATOM     11  O   LIG A   1      -6.974   0.799 127.152  0.00  0.00    -0.283 OA
ENDROOT
BRANCH   7  12
ATOM     12  C   LIG A   1      -6.915   3.072 122.858  0.00  0.00    +0.025 A 
ATOM     13  C   LIG A   1      -6.007   3.588 121.919  0.00  0.00    +0.060 A 
ATOM     14  C   LIG A   1      -6.470   4.018 120.673  0.00  0.00    +0.159 A 
ATOM     15  C   LIG A   1      -7.819   3.922 120.344  0.00  0.00    +0.158 A 
ATOM     16  C   LIG A   1      -8.733   3.434 121.263  0.00  0.00    +0.050 A 
ATOM     17  C   LIG A   1      -8.284   3.025 122.525  0.00  0.00    +0.015 A 
BRANCH  14  18
ATOM     18  O   LIG A   1      -5.634   4.567 119.738  0.00  0.00    -0.503 OA
ATOM     19  H   LIG A   1      -6.175   5.062 119.099  0.00  0.00    +0.292 HD
ENDBRANCH  14  18
BRANCH  15  20
ATOM     20  O   LIG A   1      -8.259   4.328 119.117  0.00  0.00    -0.503 OA
ATOM     21  H   LIG A   1      -8.301   3.511 118.580  0.00  0.00    +0.292 HD
ENDBRANCH  15  20
ENDBRANCH   7  12
BRANCH   1  22
ATOM     22  O   LIG A   1      -2.137   4.826 127.712  0.00  0.00    -0.506 OA
ATOM     23  H   LIG A   1      -1.373   4.332 128.058  0.00  0.00    +0.292 HD
ENDBRANCH   1  22
BRANCH   3  24
ATOM     24  O   LIG A   1      -4.665   0.864 128.565  0.00  0.00    -0.506 OA
ATOM     25  H   LIG A   1      -5.616   0.701 128.659  0.00  0.00    +0.292 HD
ENDBRANCH   3  24
BRANCH   6  26
ATOM     26  O   LIG A   1      -7.710   0.636 124.259  0.00  0.00    -0.453 OA
BRANCH  26  27
ATOM     27  C   LIG A   1      -7.114  -0.471 123.555  0.00  0.00    +0.340 C 
ATOM     28  C   LIG A   1      -6.083  -1.180 124.457  0.00  0.00    +0.214 C 
ATOM     29  C   LIG A   1      -6.788  -2.014 125.525  0.00  0.00    +0.180 C 
ATOM     30  C   LIG A   1      -7.799  -2.972 124.892  0.00  0.00    +0.174 C 
ATOM     31  C   LIG A   1      -8.782  -2.188 124.013  0.00  0.00    +0.150 C 
ATOM     32  O   LIG A   1      -8.124  -1.371 123.055  0.00  0.00    -0.334 OA
ATOM     33  C   LIG A   1      -9.676  -3.150 123.233  0.00  0.00    +0.040 C 
BRANCH  30  34
ATOM     34  O   LIG A   1      -8.465  -3.691 125.942  0.00  0.00    -0.387 OA
ATOM     35  H   LIG A   1      -9.390  -3.831 125.676  0.00  0.00    +0.210 HD
ENDBRANCH  30  34
BRANCH  29  36
ATOM     36  O   LIG A   1      -5.804  -2.775 126.252  0.00  0.00    -0.386 OA
ATOM     37  H   LIG A   1      -5.489  -2.182 126.964  0.00  0.00    +0.210 HD
ENDBRANCH  29  36
BRANCH  28  38
ATOM     38  O   LIG A   1      -5.230  -2.050 123.692  0.00  0.00    -0.383 OA
ATOM     39  H   LIG A   1      -4.527  -1.468 123.339  0.00  0.00    +0.210 HD
ENDBRANCH  28  38
ENDBRANCH  26  27
ENDBRANCH   6  26
TORSDOF 10
ENDMDL
MODEL 2
REMARK VINA RESULT:      -8.4      3.149      4.458
REMARK  Name = NuBBE_161
REMARK  11 active torsions:
REMARK  status: ('A' for Active; 'I' for Inactive)
REMARK    1  A    between atoms: O_1  and  C_2
REMARK    2  A    between atoms: C_4  and  O_5
REMARK    3  A    between atoms: C_8  and  O_9
REMARK    4  A    between atoms: O_9  and  C_10
REMARK    5  A    between atoms: C_12  and  O_24
REMARK    6  A    between atoms: C_14  and  O_23
REMARK    7  A    between atoms: C_16  and  O_22
REMARK    8  A    between atoms: C_18  and  C_21
REMARK    9  A    between atoms: C_25  and  C_29
REMARK   10  A    between atoms: C_31  and  O_32
REMARK   11  A    between atoms: C_33  and  O_36
REMARK                            x       y       z     vdW  Elec       q    Type
REMARK                         _______ _______ _______ _____ _____    ______ ____
ROOT
ATOM      1  C   LIG A   1      -9.311   2.814 131.678  0.00  0.00    +0.124 A 
ATOM      2  C   LIG A   1      -8.663   1.715 132.234  0.00  0.00    +0.091 A 
ATOM      3  C   LIG A   1      -8.116   0.753 131.384  0.00  0.00    +0.135 A 
ATOM      4  C   LIG A   1      -8.223   0.887 129.989  0.00  0.00    +0.109 A 
ATOM      5  C   LIG A   1      -7.775  -0.144 129.040  0.00  0.00    +0.238 A 
ATOM      6  C   LIG A   1      -7.582   0.268 127.605  0.00  0.00    +0.214 A 
ATOM      7  C   LIG A   1      -8.216   1.411 127.245  0.00  0.00    +0.181 A 
ATOM      8  O   LIG A   1      -8.967   2.204 128.104  0.00  0.00    -0.451 OA
ATOM      9  C   LIG A   1      -8.849   2.006 129.452  0.00  0.00    +0.146 A 
ATOM     10  C   LIG A   1      -9.404   2.969 130.297  0.00  0.00    +0.092 A 
ATOM     11  O   LIG A   1      -7.659  -1.305 129.428  0.00  0.00    -0.283 OA
ENDROOT
BRANCH   7  12
ATOM     12  C   LIG A   1      -8.242   1.951 125.868  0.00  0.00    +0.025 A 
ATOM     13  C   LIG A   1      -7.330   2.939 125.459  0.00  0.00    +0.060 A 
ATOM     14  C   LIG A   1      -7.438   3.492 124.182  0.00  0.00    +0.159 A 
ATOM     15  C   LIG A   1      -8.426   3.061 123.300  0.00  0.00    +0.158 A 
ATOM     16  C   LIG A   1      -9.347   2.103 123.692  0.00  0.00    +0.050 A 
ATOM     17  C   LIG A   1      -9.264   1.561 124.981  0.00  0.00    +0.015 A 
BRANCH  14  18
ATOM     18  O   LIG A   1      -6.602   4.486 123.748  0.00  0.00    -0.503 OA
ATOM     19  H   LIG A   1      -5.926   4.087 123.175  0.00  0.00    +0.292 HD
ENDBRANCH  14  18
BRANCH  15  20
ATOM     20  O   LIG A   1      -8.512   3.596 122.047  0.00  0.00    -0.503 OA
ATOM     21  H   LIG A   1      -7.586   3.763 121.779  0.00  0.00    +0.292 HD
ENDBRANCH  15  20
ENDBRANCH   7  12
BRANCH   1  22
ATOM     22  O   LIG A   1      -9.872   3.777 132.462  0.00  0.00    -0.506 OA
ATOM     23  H   LIG A   1     -10.728   4.044 132.086  0.00  0.00    +0.292 HD
ENDBRANCH   1  22
BRANCH   3  24
ATOM     24  O   LIG A   1      -7.444  -0.302 131.934  0.00  0.00    -0.506 OA
ATOM     25  H   LIG A   1      -7.051  -0.857 131.243  0.00  0.00    +0.292 HD
ENDBRANCH   3  24
BRANCH   6  26
ATOM     26  O   LIG A   1      -6.796  -0.447 126.697  0.00  0.00    -0.453 OA
BRANCH  26  27
ATOM     27  C   LIG A   1      -7.022  -1.859 126.512  0.00  0.00    +0.340 C 
ATOM     28  C   LIG A   1      -8.413  -2.097 125.892  0.00  0.00    +0.214 C 
ATOM     29  C   LIG A   1      -8.412  -1.726 124.411  0.00  0.00    +0.180 C 
ATOM     30  C   LIG A   1      -7.287  -2.449 123.668  0.00  0.00    +0.174 C 
ATOM     31  C   LIG A   1      -5.942  -2.160 124.348  0.00  0.00    +0.150 C 
ATOM     32  O   LIG A   1      -5.961  -2.455 125.737  0.00  0.00    -0.334 OA
ATOM     33  C   LIG A   1      -4.842  -3.021 123.729  0.00  0.00    +0.040 C 
BRANCH  30  34
ATOM     34  O   LIG A   1      -7.302  -2.025 122.296  0.00  0.00    -0.387 OA
ATOM     35  H   LIG A   1      -7.303  -1.052 122.277  0.00  0.00    +0.210 HD
ENDBRANCH  30  34
BRANCH  29  36
ATOM     36  O   LIG A   1      -9.678  -2.098 123.833  0.00  0.00    -0.386 OA
ATOM     37  H   LIG A   1      -9.729  -3.071 123.917  0.00  0.00    +0.210 HD
ENDBRANCH  29  36
BRANCH  28  38
ATOM     38  O   LIG A   1      -8.812  -3.474 126.015  0.00  0.00    -0.383 OA
ATOM     39  H   LIG A   1      -9.600  -3.560 125.442  0.00  0.00    +0.210 HD
ENDBRANCH  28  38
ENDBRANCH  26  27
ENDBRANCH   6  26
TORSDOF 10
ENDMDL
MODEL 3
REMARK VINA RESULT:      -8.3      3.214      6.721
REMARK  Name = NuBBE_161
REMARK  11 active torsions:
REMARK  status: ('A' for Active; 'I' for Inactive)
REMARK    1  A    between atoms: O_1  and  C_2
REMARK    2  A    between atoms: C_4  and  O_5
REMARK    3  A    between atoms: C_8  and  O_9
REMARK    4  A    between atoms: O_9  and  C_10
REMARK    5  A    between atoms: C_12  and  O_24
REMARK    6  A    between atoms: C_14  and  O_23
REMARK    7  A    between atoms: C_16  and  O_22
REMARK    8  A    between atoms: C_18  and  C_21
REMARK    9  A    between atoms: C_25  and  C_29
REMARK   10  A    between atoms: C_31  and  O_32
REMARK   11  A    between atoms: C_33  and  O_36
REMARK                            x       y       z     vdW  Elec       q    Type
REMARK                         _______ _______ _______ _____ _____    ______ ____
ROOT
ATOM      1  C   LIG A   1      -4.142  -2.950 131.046  0.00  0.00    +0.124 A 
ATOM      2  C   LIG A   1      -5.241  -3.524 130.413  0.00  0.00    +0.091 A 
ATOM      3  C   LIG A   1      -6.023  -2.734 129.570  0.00  0.00    +0.135 A 
ATOM      4  C   LIG A   1      -5.711  -1.378 129.366  0.00  0.00    +0.109 A 
ATOM      5  C   LIG A   1      -6.556  -0.461 128.588  0.00  0.00    +0.238 A 
ATOM      6  C   LIG A   1      -5.937   0.829 128.120  0.00  0.00    +0.214 A 
ATOM      7  C   LIG A   1      -4.820   1.205 128.790  0.00  0.00    +0.181 A 
ATOM      8  O   LIG A   1      -4.225   0.476 129.812  0.00  0.00    -0.451 OA
ATOM      9  C   LIG A   1      -4.593  -0.831 129.985  0.00  0.00    +0.146 A 
ATOM     10  C   LIG A   1      -3.810  -1.614 130.835  0.00  0.00    +0.092 A 
ATOM     11  O   LIG A   1      -7.743  -0.736 128.422  0.00  0.00    -0.283 OA
ENDROOT
BRANCH   7  12
ATOM     12  C   LIG A   1      -4.103   2.479 128.563  0.00  0.00    +0.025 A 
ATOM     13  C   LIG A   1      -3.182   2.616 127.510  0.00  0.00    +0.060 A 
ATOM     14  C   LIG A   1      -2.455   3.801 127.377  0.00  0.00    +0.159 A 
ATOM     15  C   LIG A   1      -2.647   4.857 128.264  0.00  0.00    +0.158 A 
ATOM     16  C   LIG A   1      -3.535   4.734 129.320  0.00  0.00    +0.050 A 
ATOM     17  C   LIG A   1      -4.249   3.540 129.479  0.00  0.00    +0.015 A 
BRANCH  14  18
ATOM     18  O   LIG A   1      -1.517   3.970 126.394  0.00  0.00    -0.503 OA
ATOM     19  H   LIG A   1      -0.918   4.686 126.666  0.00  0.00    +0.292 HD
ENDBRANCH  14  18
BRANCH  15  20
ATOM     20  O   LIG A   1      -1.945   6.018 128.114  0.00  0.00    -0.503 OA
ATOM     21  H   LIG A   1      -1.431   6.112 128.941  0.00  0.00    +0.292 HD
ENDBRANCH  15  20
ENDBRANCH   7  12
BRANCH   1  22
ATOM     22  O   LIG A   1      -3.352  -3.674 131.887  0.00  0.00    -0.506 OA
ATOM     23  H   LIG A   1      -2.585  -3.137 132.154  0.00  0.00    +0.292 HD
ENDBRANCH   1  22
BRANCH   3  24
ATOM     24  O   LIG A   1      -7.075  -3.313 128.918  0.00  0.00    -0.506 OA
ATOM     25  H   LIG A   1      -6.761  -3.903 128.215  0.00  0.00    +0.292 HD
ENDBRANCH   3  24
BRANCH   6  26
ATOM     26  O   LIG A   1      -6.445   1.589 127.063  0.00  0.00    -0.453 OA
BRANCH  26  27
ATOM     27  C   LIG A   1      -7.642   2.369 127.254  0.00  0.00    +0.340 C 
ATOM     28  C   LIG A   1      -7.356   3.858 126.970  0.00  0.00    +0.214 C 
ATOM     29  C   LIG A   1      -7.227   4.103 125.468  0.00  0.00    +0.180 C 
ATOM     30  C   LIG A   1      -8.450   3.568 124.720  0.00  0.00    +0.174 C 
ATOM     31  C   LIG A   1      -8.662   2.086 125.058  0.00  0.00    +0.150 C 
ATOM     32  O   LIG A   1      -8.729   1.852 126.457  0.00  0.00    -0.334 OA
ATOM     33  C   LIG A   1      -9.981   1.594 124.465  0.00  0.00    +0.040 C 
BRANCH  30  34
ATOM     34  O   LIG A   1      -8.251   3.779 123.313  0.00  0.00    -0.387 OA
ATOM     35  H   LIG A   1      -9.110   3.684 122.866  0.00  0.00    +0.210 HD
ENDBRANCH  30  34
BRANCH  29  36
ATOM     36  O   LIG A   1      -7.109   5.519 125.232  0.00  0.00    -0.386 OA
ATOM     37  H   LIG A   1      -7.080   5.621 124.259  0.00  0.00    +0.210 HD
ENDBRANCH  29  36
BRANCH  28  38
ATOM     38  O   LIG A   1      -8.408   4.698 127.478  0.00  0.00    -0.383 OA
ATOM     39  H   LIG A   1      -8.888   4.139 128.122  0.00  0.00    +0.210 HD
ENDBRANCH  28  38
ENDBRANCH  26  27
ENDBRANCH   6  26
TORSDOF 10
ENDMDL
MODEL 4
REMARK VINA RESULT:      -8.2      3.298      7.588
REMARK  Name = NuBBE_161
REMARK  11 active torsions:
REMARK  status: ('A' for Active; 'I' for Inactive)
REMARK    1  A    between atoms: O_1  and  C_2
REMARK    2  A    between atoms: C_4  and  O_5
REMARK    3  A    between atoms: C_8  and  O_9
REMARK    4  A    between atoms: O_9  and  C_10
REMARK    5  A    between atoms: C_12  and  O_24
REMARK    6  A    between atoms: C_14  and  O_23
REMARK    7  A    between atoms: C_16  and  O_22
REMARK    8  A    between atoms: C_18  and  C_21
REMARK    9  A    between atoms: C_25  and  C_29
REMARK   10  A    between atoms: C_31  and  O_32
REMARK   11  A    between atoms: C_33  and  O_36
REMARK                            x       y       z     vdW  Elec       q    Type
REMARK                         _______ _______ _______ _____ _____    ______ ____
ROOT
ATOM      1  C   LIG A   1      -7.377   3.461 121.743  0.00  0.00    +0.124 A 
ATOM      2  C   LIG A   1      -8.570   2.884 122.170  0.00  0.00    +0.091 A 
ATOM      3  C   LIG A   1      -8.743   2.619 123.528  0.00  0.00    +0.135 A 
ATOM      4  C   LIG A   1      -7.728   2.925 124.453  0.00  0.00    +0.109 A 
ATOM      5  C   LIG A   1      -7.796   2.567 125.877  0.00  0.00    +0.238 A 
ATOM      6  C   LIG A   1      -6.860   3.275 126.819  0.00  0.00    +0.214 A 
ATOM      7  C   LIG A   1      -5.787   3.860 126.229  0.00  0.00    +0.181 A 
ATOM      8  O   LIG A   1      -5.541   3.869 124.862  0.00  0.00    -0.451 OA
ATOM      9  C   LIG A   1      -6.557   3.528 124.011  0.00  0.00    +0.146 A 
ATOM     10  C   LIG A   1      -6.374   3.790 122.652  0.00  0.00    +0.092 A 
ATOM     11  O   LIG A   1      -8.542   1.656 126.230  0.00  0.00    -0.283 OA
ENDROOT
BRANCH   7  12
ATOM     12  C   LIG A   1      -4.692   4.527 126.968  0.00  0.00    +0.025 A 
ATOM     13  C   LIG A   1      -4.844   5.832 127.466  0.00  0.00    +0.060 A 
ATOM     14  C   LIG A   1      -3.762   6.467 128.079  0.00  0.00    +0.159 A 
ATOM     15  C   LIG A   1      -2.541   5.815 128.222  0.00  0.00    +0.158 A 
ATOM     16  C   LIG A   1      -2.365   4.536 127.719  0.00  0.00    +0.050 A 
ATOM     17  C   LIG A   1      -3.435   3.899 127.078  0.00  0.00    +0.015 A 
BRANCH  14  18
ATOM     18  O   LIG A   1      -3.844   7.752 128.545  0.00  0.00    -0.503 OA
ATOM     19  H   LIG A   1      -3.537   8.351 127.843  0.00  0.00    +0.292 HD
ENDBRANCH  14  18
BRANCH  15  20
ATOM     20  O   LIG A   1      -1.495   6.438 128.839  0.00  0.00    -0.503 OA
ATOM     21  H   LIG A   1      -1.897   6.934 129.580  0.00  0.00    +0.292 HD
ENDBRANCH  15  20
ENDBRANCH   7  12
BRANCH   1  22
ATOM     22  O   LIG A   1      -7.152   3.731 120.426  0.00  0.00    -0.506 OA
ATOM     23  H   LIG A   1      -6.229   3.520 120.206  0.00  0.00    +0.292 HD
ENDBRANCH   1  22
BRANCH   3  24
ATOM     24  O   LIG A   1      -9.932   2.090 123.947  0.00  0.00    -0.506 OA
ATOM     25  H   LIG A   1      -9.878   1.123 124.000  0.00  0.00    +0.292 HD
ENDBRANCH   3  24
BRANCH   6  26
ATOM     26  O   LIG A   1      -7.069   3.357 128.198  0.00  0.00    -0.453 OA
BRANCH  26  27
ATOM     27  C   LIG A   1      -8.183   4.116 128.708  0.00  0.00    +0.340 C 
ATOM     28  C   LIG A   1      -9.020   3.249 129.671  0.00  0.00    +0.214 C 
ATOM     29  C   LIG A   1      -8.298   3.081 131.006  0.00  0.00    +0.180 C 
ATOM     30  C   LIG A   1      -7.914   4.440 131.595  0.00  0.00    +0.174 C 
ATOM     31  C   LIG A   1      -7.087   5.235 130.576  0.00  0.00    +0.150 C 
ATOM     32  O   LIG A   1      -7.736   5.346 129.317  0.00  0.00    -0.334 OA
ATOM     33  C   LIG A   1      -6.857   6.659 131.080  0.00  0.00    +0.040 C 
BRANCH  30  34
ATOM     34  O   LIG A   1      -7.197   4.219 132.820  0.00  0.00    -0.387 OA
ATOM     35  H   LIG A   1      -7.643   4.714 133.528  0.00  0.00    +0.210 HD
ENDBRANCH  30  34
BRANCH  29  36
ATOM     36  O   LIG A   1      -9.168   2.394 131.926  0.00  0.00    -0.386 OA
ATOM     37  H   LIG A   1      -9.402   3.054 132.609  0.00  0.00    +0.210 HD
ENDBRANCH  29  36
BRANCH  28  38
ATOM     38  O   LIG A   1     -10.307   3.840 129.922  0.00  0.00    -0.383 OA
ATOM     39  H   LIG A   1     -10.138   4.803 129.963  0.00  0.00    +0.210 HD
ENDBRANCH  28  38
ENDBRANCH  26  27
ENDBRANCH   6  26
TORSDOF 10
ENDMDL
MODEL 5
REMARK VINA RESULT:      -8.1      3.427      8.541
REMARK  Name = NuBBE_161
REMARK  11 active torsions:
REMARK  status: ('A' for Active; 'I' for Inactive)
REMARK    1  A    between atoms: O_1  and  C_2
REMARK    2  A    between atoms: C_4  and  O_5
REMARK    3  A    between atoms: C_8  and  O_9
REMARK    4  A    between atoms: O_9  and  C_10
REMARK    5  A    between atoms: C_12  and  O_24
REMARK    6  A    between atoms: C_14  and  O_23
REMARK    7  A    between atoms: C_16  and  O_22
REMARK    8  A    between atoms: C_18  and  C_21
REMARK    9  A    between atoms: C_25  and  C_29
REMARK   10  A    between atoms: C_31  and  O_32
REMARK   11  A    between atoms: C_33  and  O_36
REMARK                            x       y       z     vdW  Elec       q    Type
REMARK                         _______ _______ _______ _____ _____    ______ ____
ROOT
ATOM      1  C   LIG A   1      -8.910   2.272 123.055  0.00  0.00    +0.124 A 
ATOM      2  C   LIG A   1      -7.882   3.051 122.532  0.00  0.00    +0.091 A 
ATOM      3  C   LIG A   1      -7.083   3.789 123.406  0.00  0.00    +0.135 A 
ATOM      4  C   LIG A   1      -7.315   3.752 124.792  0.00  0.00    +0.109 A 
ATOM      5  C   LIG A   1      -6.591   4.593 125.757  0.00  0.00    +0.238 A 
ATOM      6  C   LIG A   1      -6.644   4.193 127.207  0.00  0.00    +0.214 A 
ATOM      7  C   LIG A   1      -7.662   3.360 127.536  0.00  0.00    +0.181 A 
ATOM      8  O   LIG A   1      -8.592   2.852 126.637  0.00  0.00    -0.451 OA
ATOM      9  C   LIG A   1      -8.328   2.946 125.297  0.00  0.00    +0.146 A 
ATOM     10  C   LIG A   1      -9.136   2.211 124.428  0.00  0.00    +0.092 A 
ATOM     11  O   LIG A   1      -6.048   5.623 125.364  0.00  0.00    -0.283 OA
ENDROOT
BRANCH   7  12
ATOM     12  C   LIG A   1      -7.963   2.915 128.914  0.00  0.00    +0.025 A 
ATOM     13  C   LIG A   1      -8.905   3.593 129.706  0.00  0.00    +0.060 A 
ATOM     14  C   LIG A   1      -9.101   3.204 131.033  0.00  0.00    +0.159 A 
ATOM     15  C   LIG A   1      -8.387   2.139 131.575  0.00  0.00    +0.158 A 
ATOM     16  C   LIG A   1      -7.439   1.471 130.817  0.00  0.00    +0.050 A 
ATOM     17  C   LIG A   1      -7.216   1.870 129.493  0.00  0.00    +0.015 A 
BRANCH  14  18
ATOM     18  O   LIG A   1      -9.976   3.857 131.859  0.00  0.00    -0.503 OA
ATOM     19  H   LIG A   1     -10.632   3.214 132.177  0.00  0.00    +0.292 HD
ENDBRANCH  14  18
BRANCH  15  20
ATOM     20  O   LIG A   1      -8.599   1.755 132.868  0.00  0.00    -0.503 OA
ATOM     21  H   LIG A   1      -7.738   1.880 133.313  0.00  0.00    +0.292 HD
ENDBRANCH  15  20
ENDBRANCH   7  12
BRANCH   1  22
ATOM     22  O   LIG A   1      -9.726   1.540 122.245  0.00  0.00    -0.506 OA
ATOM     23  H   LIG A   1      -9.726   1.925 121.352  0.00  0.00    +0.292 HD
ENDBRANCH   1  22
BRANCH   3  24
ATOM     24  O   LIG A   1      -6.048   4.518 122.891  0.00  0.00    -0.506 OA
ATOM     25  H   LIG A   1      -5.318   3.938 122.625  0.00  0.00    +0.292 HD
ENDBRANCH   3  24
BRANCH   6  26
ATOM     26  O   LIG A   1      -5.713   4.617 128.159  0.00  0.00    -0.453 OA
BRANCH  26  27
ATOM     27  C   LIG A   1      -4.404   4.015 128.197  0.00  0.00    +0.340 C 
ATOM     28  C   LIG A   1      -3.365   4.964 127.565  0.00  0.00    +0.214 C 
ATOM     29  C   LIG A   1      -3.051   6.122 128.510  0.00  0.00    +0.180 C 
ATOM     30  C   LIG A   1      -2.638   5.605 129.890  0.00  0.00    +0.174 C 
ATOM     31  C   LIG A   1      -3.722   4.671 130.443  0.00  0.00    +0.150 C 
ATOM     32  O   LIG A   1      -4.052   3.625 129.541  0.00  0.00    -0.334 OA
ATOM     33  C   LIG A   1      -3.239   4.007 131.731  0.00  0.00    +0.040 C 
BRANCH  30  34
ATOM     34  O   LIG A   1      -2.405   6.733 130.747  0.00  0.00    -0.387 OA
ATOM     35  H   LIG A   1      -2.991   7.457 130.465  0.00  0.00    +0.210 HD
ENDBRANCH  30  34
BRANCH  29  36
ATOM     36  O   LIG A   1      -1.975   6.902 127.954  0.00  0.00    -0.386 OA
ATOM     37  H   LIG A   1      -2.384   7.454 127.258  0.00  0.00    +0.210 HD
ENDBRANCH  29  36
BRANCH  28  38
ATOM     38  O   LIG A   1      -2.138   4.273 127.269  0.00  0.00    -0.383 OA
ATOM     39  H   LIG A   1      -1.865   4.609 126.392  0.00  0.00    +0.210 HD
ENDBRANCH  28  38
ENDBRANCH  26  27
ENDBRANCH   6  26
TORSDOF 10
ENDMDL
MODEL 6
REMARK VINA RESULT:      -8.0      4.684      8.517
REMARK  Name = NuBBE_161
REMARK  11 active torsions:
REMARK  status: ('A' for Active; 'I' for Inactive)
REMARK    1  A    between atoms: O_1  and  C_2
REMARK    2  A    between atoms: C_4  and  O_5
REMARK    3  A    between atoms: C_8  and  O_9
REMARK    4  A    between atoms: O_9  and  C_10
REMARK    5  A    between atoms: C_12  and  O_24
REMARK    6  A    between atoms: C_14  and  O_23
REMARK    7  A    between atoms: C_16  and  O_22
REMARK    8  A    between atoms: C_18  and  C_21
REMARK    9  A    between atoms: C_25  and  C_29
REMARK   10  A    between atoms: C_31  and  O_32
REMARK   11  A    between atoms: C_33  and  O_36
REMARK                            x       y       z     vdW  Elec       q    Type
REMARK                         _______ _______ _______ _____ _____    ______ ____
ROOT
ATOM      1  C   LIG A   1      -6.030   3.978 123.701  0.00  0.00    +0.124 A 
ATOM      2  C   LIG A   1      -7.354   3.553 123.727  0.00  0.00    +0.091 A 
ATOM      3  C   LIG A   1      -7.960   3.305 124.960  0.00  0.00    +0.135 A 
ATOM      4  C   LIG A   1      -7.242   3.478 126.157  0.00  0.00    +0.109 A 
ATOM      5  C   LIG A   1      -7.778   3.125 127.480  0.00  0.00    +0.238 A 
ATOM      6  C   LIG A   1      -7.093   3.707 128.687  0.00  0.00    +0.214 A 
ATOM      7  C   LIG A   1      -5.832   4.154 128.470  0.00  0.00    +0.181 A 
ATOM      8  O   LIG A   1      -5.185   4.139 127.240  0.00  0.00    -0.451 OA
ATOM      9  C   LIG A   1      -5.930   3.932 126.111  0.00  0.00    +0.146 A 
ATOM     10  C   LIG A   1      -5.316   4.174 124.881  0.00  0.00    +0.092 A 
ATOM     11  O   LIG A   1      -8.698   2.313 127.555  0.00  0.00    -0.283 OA
ENDROOT
BRANCH   7  12
ATOM     12  C   LIG A   1      -4.940   4.676 129.529  0.00  0.00    +0.025 A 
ATOM     13  C   LIG A   1      -4.852   6.054 129.789  0.00  0.00    +0.060 A 
ATOM     14  C   LIG A   1      -3.936   6.523 130.733  0.00  0.00    +0.159 A 
ATOM     15  C   LIG A   1      -3.122   5.638 131.434  0.00  0.00    +0.158 A 
ATOM     16  C   LIG A   1      -3.179   4.277 131.178  0.00  0.00    +0.050 A 
ATOM     17  C   LIG A   1      -4.075   3.799 130.214  0.00  0.00    +0.015 A 
BRANCH  14  18
ATOM     18  O   LIG A   1      -3.781   7.858 130.994  0.00  0.00    -0.503 OA
ATOM     19  H   LIG A   1      -4.651   8.225 131.225  0.00  0.00    +0.292 HD
ENDBRANCH  14  18
BRANCH  15  20
ATOM     20  O   LIG A   1      -2.241   6.104 132.368  0.00  0.00    -0.503 OA
ATOM     21  H   LIG A   1      -2.800   6.483 133.076  0.00  0.00    +0.292 HD
ENDBRANCH  15  20
ENDBRANCH   7  12
BRANCH   1  22
ATOM     22  O   LIG A   1      -5.388   4.224 122.524  0.00  0.00    -0.506 OA
ATOM     23  H   LIG A   1      -4.441   4.368 122.695  0.00  0.00    +0.292 HD
ENDBRANCH   1  22
BRANCH   3  24
ATOM     24  O   LIG A   1      -9.273   2.928 124.982  0.00  0.00    -0.506 OA
ATOM     25  H   LIG A   1      -9.536   2.551 124.128  0.00  0.00    +0.292 HD
ENDBRANCH   3  24
BRANCH   6  26
ATOM     26  O   LIG A   1      -7.697   3.808 129.943  0.00  0.00    -0.453 OA
BRANCH  26  27
ATOM     27  C   LIG A   1      -9.127   3.671 130.061  0.00  0.00    +0.340 C 
ATOM     28  C   LIG A   1      -9.496   3.146 131.464  0.00  0.00    +0.214 C 
ATOM     29  C   LIG A   1      -9.340   4.250 132.508  0.00  0.00    +0.180 C 
ATOM     30  C   LIG A   1     -10.125   5.499 132.104  0.00  0.00    +0.174 C 
ATOM     31  C   LIG A   1      -9.700   5.952 130.701  0.00  0.00    +0.150 C 
ATOM     32  O   LIG A   1      -9.794   4.910 129.741  0.00  0.00    -0.334 OA
ATOM     33  C   LIG A   1     -10.604   7.083 130.215  0.00  0.00    +0.040 C 
BRANCH  30  34
ATOM     34  O   LIG A   1      -9.902   6.517 133.092  0.00  0.00    -0.387 OA
ATOM     35  H   LIG A   1     -10.215   6.182 133.951  0.00  0.00    +0.210 HD
ENDBRANCH  30  34
BRANCH  29  36
ATOM     36  O   LIG A   1      -9.831   3.770 133.774  0.00  0.00    -0.386 OA
ATOM     37  H   LIG A   1      -9.676   2.804 133.766  0.00  0.00    +0.210 HD
ENDBRANCH  29  36
BRANCH  28  38
ATOM     38  O   LIG A   1     -10.854   2.671 131.504  0.00  0.00    -0.383 OA
ATOM     39  H   LIG A   1     -10.778   1.700 131.596  0.00  0.00    +0.210 HD
ENDBRANCH  28  38
ENDBRANCH  26  27
ENDBRANCH   6  26
TORSDOF 10
ENDMDL
MODEL 7
REMARK VINA RESULT:      -8.0      2.804      6.368
REMARK  Name = NuBBE_161
REMARK  11 active torsions:
REMARK  status: ('A' for Active; 'I' for Inactive)
REMARK    1  A    between atoms: O_1  and  C_2
REMARK    2  A    between atoms: C_4  and  O_5
REMARK    3  A    between atoms: C_8  and  O_9
REMARK    4  A    between atoms: O_9  and  C_10
REMARK    5  A    between atoms: C_12  and  O_24
REMARK    6  A    between atoms: C_14  and  O_23
REMARK    7  A    between atoms: C_16  and  O_22
REMARK    8  A    between atoms: C_18  and  C_21
REMARK    9  A    between atoms: C_25  and  C_29
REMARK   10  A    between atoms: C_31  and  O_32
REMARK   11  A    between atoms: C_33  and  O_36
REMARK                            x       y       z     vdW  Elec       q    Type
REMARK                         _______ _______ _______ _____ _____    ______ ____
ROOT
ATOM      1  C   LIG A   1      -3.837  -2.917 131.098  0.00  0.00    +0.124 A 
ATOM      2  C   LIG A   1      -3.607  -1.605 131.502  0.00  0.00    +0.091 A 
ATOM      3  C   LIG A   1      -4.087  -0.561 130.710  0.00  0.00    +0.135 A 
ATOM      4  C   LIG A   1      -4.787  -0.828 129.521  0.00  0.00    +0.109 A 
ATOM      5  C   LIG A   1      -5.218   0.218 128.582  0.00  0.00    +0.238 A 
ATOM      6  C   LIG A   1      -6.275  -0.142 127.573  0.00  0.00    +0.214 A 
ATOM      7  C   LIG A   1      -6.431  -1.472 127.356  0.00  0.00    +0.181 A 
ATOM      8  O   LIG A   1      -5.724  -2.471 128.015  0.00  0.00    -0.451 OA
ATOM      9  C   LIG A   1      -5.032  -2.145 129.150  0.00  0.00    +0.146 A 
ATOM     10  C   LIG A   1      -4.549  -3.194 129.933  0.00  0.00    +0.092 A 
ATOM     11  O   LIG A   1      -4.647   1.308 128.598  0.00  0.00    -0.283 OA
ENDROOT
BRANCH   7  12
ATOM     12  C   LIG A   1      -7.342  -2.049 126.343  0.00  0.00    +0.025 A 
ATOM     13  C   LIG A   1      -6.999  -2.056 124.981  0.00  0.00    +0.060 A 
ATOM     14  C   LIG A   1      -7.918  -2.525 124.040  0.00  0.00    +0.159 A 
ATOM     15  C   LIG A   1      -9.162  -3.007 124.438  0.00  0.00    +0.158 A 
ATOM     16  C   LIG A   1      -9.526  -2.990 125.775  0.00  0.00    +0.050 A 
ATOM     17  C   LIG A   1      -8.622  -2.496 126.724  0.00  0.00    +0.015 A 
BRANCH  14  18
ATOM     18  O   LIG A   1      -7.651  -2.515 122.697  0.00  0.00    -0.503 OA
ATOM     19  H   LIG A   1      -8.479  -2.699 122.220  0.00  0.00    +0.292 HD
ENDBRANCH  14  18
BRANCH  15  20
ATOM     20  O   LIG A   1     -10.046  -3.481 123.513  0.00  0.00    -0.503 OA
ATOM     21  H   LIG A   1     -10.227  -4.403 123.784  0.00  0.00    +0.292 HD
ENDBRANCH  15  20
ENDBRANCH   7  12
BRANCH   1  22
ATOM     22  O   LIG A   1      -3.381  -3.973 131.828  0.00  0.00    -0.506 OA
ATOM     23  H   LIG A   1      -2.957  -4.618 131.236  0.00  0.00    +0.292 HD
ENDBRANCH   1  22
BRANCH   3  24
ATOM     24  O   LIG A   1      -3.895   0.725 131.133  0.00  0.00    -0.506 OA
ATOM     25  H   LIG A   1      -4.432   0.911 131.919  0.00  0.00    +0.292 HD
ENDBRANCH   3  24
BRANCH   6  26
ATOM     26  O   LIG A   1      -7.063   0.802 126.911  0.00  0.00    -0.453 OA
BRANCH  26  27
ATOM     27  C   LIG A   1      -6.677   1.266 125.602  0.00  0.00    +0.340 C 
ATOM     28  C   LIG A   1      -7.916   1.375 124.690  0.00  0.00    +0.214 C 
ATOM     29  C   LIG A   1      -8.753   2.595 125.066  0.00  0.00    +0.180 C 
ATOM     30  C   LIG A   1      -7.896   3.863 125.078  0.00  0.00    +0.174 C 
ATOM     31  C   LIG A   1      -6.689   3.669 126.005  0.00  0.00    +0.150 C 
ATOM     32  O   LIG A   1      -5.941   2.504 125.688  0.00  0.00    -0.334 OA
ATOM     33  C   LIG A   1      -5.733   4.855 125.880  0.00  0.00    +0.040 C 
BRANCH  30  34
ATOM     34  O   LIG A   1      -8.721   4.966 125.485  0.00  0.00    -0.387 OA
ATOM     35  H   LIG A   1      -8.378   5.307 126.330  0.00  0.00    +0.210 HD
ENDBRANCH  30  34
BRANCH  29  36
ATOM     36  O   LIG A   1      -9.816   2.750 124.106  0.00  0.00    -0.386 OA
ATOM     37  H   LIG A   1      -9.374   2.829 123.236  0.00  0.00    +0.210 HD
ENDBRANCH  29  36
BRANCH  28  38
ATOM     38  O   LIG A   1      -7.538   1.492 123.307  0.00  0.00    -0.383 OA
ATOM     39  H   LIG A   1      -8.119   0.863 122.833  0.00  0.00    +0.210 HD
ENDBRANCH  28  38
ENDBRANCH  26  27
ENDBRANCH   6  26
TORSDOF 10
ENDMDL
MODEL 8
REMARK VINA RESULT:      -7.9      3.056      6.424
REMARK  Name = NuBBE_161
REMARK  11 active torsions:
REMARK  status: ('A' for Active; 'I' for Inactive)
REMARK    1  A    between atoms: O_1  and  C_2
REMARK    2  A    between atoms: C_4  and  O_5
REMARK    3  A    between atoms: C_8  and  O_9
REMARK    4  A    between atoms: O_9  and  C_10
REMARK    5  A    between atoms: C_12  and  O_24
REMARK    6  A    between atoms: C_14  and  O_23
REMARK    7  A    between atoms: C_16  and  O_22
REMARK    8  A    between atoms: C_18  and  C_21
REMARK    9  A    between atoms: C_25  and  C_29
REMARK   10  A    between atoms: C_31  and  O_32
REMARK   11  A    between atoms: C_33  and  O_36
REMARK                            x       y       z     vdW  Elec       q    Type
REMARK                         _______ _______ _______ _____ _____    ______ ____
ROOT
ATOM      1  C   LIG A   1      -5.590  -3.673 131.312  0.00  0.00    +0.124 A 
ATOM      2  C   LIG A   1      -5.296  -2.513 132.023  0.00  0.00    +0.091 A 
ATOM      3  C   LIG A   1      -5.258  -1.295 131.344  0.00  0.00    +0.135 A 
ATOM      4  C   LIG A   1      -5.508  -1.240 129.961  0.00  0.00    +0.109 A 
ATOM      5  C   LIG A   1      -5.370  -0.013 129.162  0.00  0.00    +0.238 A 
ATOM      6  C   LIG A   1      -6.028   0.014 127.808  0.00  0.00    +0.214 A 
ATOM      7  C   LIG A   1      -6.326  -1.203 127.291  0.00  0.00    +0.181 A 
ATOM      8  O   LIG A   1      -6.101  -2.414 127.933  0.00  0.00    -0.451 OA
ATOM      9  C   LIG A   1      -5.829  -2.405 129.274  0.00  0.00    +0.146 A 
ATOM     10  C   LIG A   1      -5.861  -3.627 129.947  0.00  0.00    +0.092 A 
ATOM     11  O   LIG A   1      -4.662   0.899 129.584  0.00  0.00    -0.283 OA
ENDROOT
BRANCH   7  12
ATOM     12  C   LIG A   1      -6.888  -1.418 125.939  0.00  0.00    +0.025 A 
ATOM     13  C   LIG A   1      -8.158  -1.992 125.765  0.00  0.00    +0.060 A 
ATOM     14  C   LIG A   1      -8.623  -2.264 124.476  0.00  0.00    +0.159 A 
ATOM     15  C   LIG A   1      -7.850  -1.954 123.361  0.00  0.00    +0.158 A 
ATOM     16  C   LIG A   1      -6.586  -1.407 123.512  0.00  0.00    +0.050 A 
ATOM     17  C   LIG A   1      -6.099  -1.154 124.801  0.00  0.00    +0.015 A 
BRANCH  14  18
ATOM     18  O   LIG A   1      -9.835  -2.860 124.252  0.00  0.00    -0.503 OA
ATOM     19  H   LIG A   1     -10.534  -2.227 124.490  0.00  0.00    +0.292 HD
ENDBRANCH  14  18
BRANCH  15  20
ATOM     20  O   LIG A   1      -8.320  -2.208 122.104  0.00  0.00    -0.503 OA
ATOM     21  H   LIG A   1      -9.238  -2.519 122.235  0.00  0.00    +0.292 HD
ENDBRANCH  15  20
ENDBRANCH   7  12
BRANCH   1  22
ATOM     22  O   LIG A   1      -5.629  -4.889 131.926  0.00  0.00    -0.506 OA
ATOM     23  H   LIG A   1      -6.268  -4.862 132.659  0.00  0.00    +0.292 HD
ENDBRANCH   1  22
BRANCH   3  24
ATOM     24  O   LIG A   1      -5.010  -0.155 132.054  0.00  0.00    -0.506 OA
ATOM     25  H   LIG A   1      -4.599   0.519 131.489  0.00  0.00    +0.292 HD
ENDBRANCH   3  24
BRANCH   6  26
ATOM     26  O   LIG A   1      -6.337   1.193 127.125  0.00  0.00    -0.453 OA
BRANCH  26  27
ATOM     27  C   LIG A   1      -7.570   1.883 127.411  0.00  0.00    +0.340 C 
ATOM     28  C   LIG A   1      -7.361   3.408 127.315  0.00  0.00    +0.214 C 
ATOM     29  C   LIG A   1      -7.253   3.844 125.856  0.00  0.00    +0.180 C 
ATOM     30  C   LIG A   1      -8.451   3.345 125.045  0.00  0.00    +0.174 C 
ATOM     31  C   LIG A   1      -8.588   1.825 125.197  0.00  0.00    +0.150 C 
ATOM     32  O   LIG A   1      -8.634   1.415 126.556  0.00  0.00    -0.334 OA
ATOM     33  C   LIG A   1      -9.884   1.344 124.546  0.00  0.00    +0.040 C 
BRANCH  30  34
ATOM     34  O   LIG A   1      -8.271   3.740 123.676  0.00  0.00    -0.387 OA
ATOM     35  H   LIG A   1      -7.552   4.394 123.639  0.00  0.00    +0.210 HD
ENDBRANCH  30  34
BRANCH  29  36
ATOM     36  O   LIG A   1      -7.206   5.283 125.798  0.00  0.00    -0.386 OA
ATOM     37  H   LIG A   1      -8.137   5.577 125.850  0.00  0.00    +0.210 HD
ENDBRANCH  29  36
BRANCH  28  38
ATOM     38  O   LIG A   1      -8.450   4.125 127.923  0.00  0.00    -0.383 OA
ATOM     39  H   LIG A   1      -9.033   3.431 128.292  0.00  0.00    +0.210 HD
ENDBRANCH  28  38
ENDBRANCH  26  27
ENDBRANCH   6  26
TORSDOF 10
ENDMDL
MODEL 9
REMARK VINA RESULT:      -7.9      3.083      8.264
REMARK  Name = NuBBE_161
REMARK  11 active torsions:
REMARK  status: ('A' for Active; 'I' for Inactive)
REMARK    1  A    between atoms: O_1  and  C_2
REMARK    2  A    between atoms: C_4  and  O_5
REMARK    3  A    between atoms: C_8  and  O_9
REMARK    4  A    between atoms: O_9  and  C_10
REMARK    5  A    between atoms: C_12  and  O_24
REMARK    6  A    between atoms: C_14  and  O_23
REMARK    7  A    between atoms: C_16  and  O_22
REMARK    8  A    between atoms: C_18  and  C_21
REMARK    9  A    between atoms: C_25  and  C_29
REMARK   10  A    between atoms: C_31  and  O_32
REMARK   11  A    between atoms: C_33  and  O_36
REMARK                            x       y       z     vdW  Elec       q    Type
REMARK                         _______ _______ _______ _____ _____    ______ ____
ROOT
ATOM      1  C   LIG A   1      -9.961   1.217 123.210  0.00  0.00    +0.124 A 
ATOM      2  C   LIG A   1      -9.134   2.180 122.641  0.00  0.00    +0.091 A 
ATOM      3  C   LIG A   1      -8.297   2.927 123.472  0.00  0.00    +0.135 A 
ATOM      4  C   LIG A   1      -8.292   2.713 124.862  0.00  0.00    +0.109 A 
ATOM      5  C   LIG A   1      -7.525   3.540 125.805  0.00  0.00    +0.238 A 
ATOM      6  C   LIG A   1      -7.291   2.986 127.185  0.00  0.00    +0.214 A 
ATOM      7  C   LIG A   1      -8.134   1.991 127.555  0.00  0.00    +0.181 A 
ATOM      8  O   LIG A   1      -9.131   1.456 126.748  0.00  0.00    -0.451 OA
ATOM      9  C   LIG A   1      -9.104   1.726 125.407  0.00  0.00    +0.146 A 
ATOM     10  C   LIG A   1      -9.949   0.981 124.582  0.00  0.00    +0.092 A 
ATOM     11  O   LIG A   1      -7.182   4.671 125.467  0.00  0.00    -0.283 OA
ENDROOT
BRANCH   7  12
ATOM     12  C   LIG A   1      -8.148   1.367 128.896  0.00  0.00    +0.025 A 
ATOM     13  C   LIG A   1      -7.694   0.051 129.088  0.00  0.00    +0.060 A 
ATOM     14  C   LIG A   1      -7.804  -0.541 130.348  0.00  0.00    +0.159 A 
ATOM     15  C   LIG A   1      -8.338   0.165 131.422  0.00  0.00    +0.158 A 
ATOM     16  C   LIG A   1      -8.809   1.456 131.249  0.00  0.00    +0.050 A 
ATOM     17  C   LIG A   1      -8.729   2.050 129.982  0.00  0.00    +0.015 A 
BRANCH  14  18
ATOM     18  O   LIG A   1      -7.415  -1.834 130.579  0.00  0.00    -0.503 OA
ATOM     19  H   LIG A   1      -7.407  -2.305 129.729  0.00  0.00    +0.292 HD
ENDBRANCH  14  18
BRANCH  15  20
ATOM     20  O   LIG A   1      -8.424  -0.416 132.654  0.00  0.00    -0.503 OA
ATOM     21  H   LIG A   1      -9.382  -0.477 132.840  0.00  0.00    +0.292 HD
ENDBRANCH  15  20
ENDBRANCH   7  12
BRANCH   1  22
ATOM     22  O   LIG A   1     -10.805   0.468 122.446  0.00  0.00    -0.506 OA
ATOM     23  H   LIG A   1     -11.554   1.017 122.157  0.00  0.00    +0.292 HD
ENDBRANCH   1  22
BRANCH   3  24
ATOM     24  O   LIG A   1      -7.456   3.842 122.904  0.00  0.00    -0.506 OA
ATOM     25  H   LIG A   1      -6.772   4.117 123.534  0.00  0.00    +0.292 HD
ENDBRANCH   3  24
BRANCH   6  26
ATOM     26  O   LIG A   1      -6.274   3.434 128.033  0.00  0.00    -0.453 OA
BRANCH  26  27
ATOM     27  C   LIG A   1      -5.059   2.669 128.157  0.00  0.00    +0.340 C 
ATOM     28  C   LIG A   1      -3.898   3.398 127.449  0.00  0.00    +0.214 C 
ATOM     29  C   LIG A   1      -3.434   4.596 128.274  0.00  0.00    +0.180 C 
ATOM     30  C   LIG A   1      -3.101   4.177 129.708  0.00  0.00    +0.174 C 
ATOM     31  C   LIG A   1      -4.304   3.461 130.335  0.00  0.00    +0.150 C 
ATOM     32  O   LIG A   1      -4.769   2.379 129.541  0.00  0.00    -0.334 OA
ATOM     33  C   LIG A   1      -3.921   2.877 131.694  0.00  0.00    +0.040 C 
BRANCH  30  34
ATOM     34  O   LIG A   1      -2.721   5.348 130.448  0.00  0.00    -0.387 OA
ATOM     35  H   LIG A   1      -2.255   5.062 131.253  0.00  0.00    +0.210 HD
ENDBRANCH  30  34
BRANCH  29  36
ATOM     36  O   LIG A   1      -2.260   5.162 127.660  0.00  0.00    -0.386 OA
ATOM     37  H   LIG A   1      -1.645   4.413 127.531  0.00  0.00    +0.210 HD
ENDBRANCH  29  36
BRANCH  28  38
ATOM     38  O   LIG A   1      -2.775   2.521 127.250  0.00  0.00    -0.383 OA
ATOM     39  H   LIG A   1      -1.987   3.088 127.378  0.00  0.00    +0.210 HD
ENDBRANCH  28  38
ENDBRANCH  26  27
ENDBRANCH   6  26
TORSDOF 10
ENDMDL
