MODEL 1
REMARK VINA RESULT:      -8.2      0.000      0.000
REMARK  Name = NuBBE_508
REMARK  10 active torsions:
REMARK  status: ('A' for Active; 'I' for Inactive)
REMARK    1  A    between atoms: C_1  and  C_2
REMARK    2  A    between atoms: C_8  and  C_9
REMARK    3  A    between atoms: C_10  and  O_11
REMARK    4  A    between atoms: C_12  and  C_13
REMARK    5  A    between atoms: C_13  and  C_14
REMARK    6  A    between atoms: C_16  and  C_17
REMARK    7  A    between atoms: C_16  and  O_21
REMARK    8  A    between atoms: C_18  and  O_20
REMARK    9  A    between atoms: C_27  and  C_28
REMARK   10  A    between atoms: C_30  and  O_31
REMARK                            x       y       z     vdW  Elec       q    Type
REMARK                         _______ _______ _______ _____ _____    ______ ____
ROOT
ATOM      1  C   LIG A   1      -5.708   0.685 126.857  0.00  0.00    +0.081 C 
ENDROOT
BRANCH   1  12
ATOM      2  C   LIG A   1      -7.740  -3.331 133.464  0.00  0.00    +0.086 C 
ATOM      3  C   LIG A   1      -7.155  -2.886 132.161  0.00  0.00    +0.106 A 
ATOM      4  C   LIG A   1      -6.247  -3.610 131.494  0.00  0.00    +0.093 A 
ATOM      5  C   LIG A   1      -5.721  -3.098 130.222  0.00  0.00    +0.196 A 
ATOM      6  C   LIG A   1      -6.219  -1.793 129.763  0.00  0.00    +0.106 A 
ATOM      7  C   LIG A   1      -7.166  -1.133 130.546  0.00  0.00    +0.149 A 
ATOM      8  O   LIG A   1      -7.641  -1.668 131.722  0.00  0.00    -0.459 OA
ATOM      9  C   LIG A   1      -7.653   0.124 130.160  0.00  0.00    +0.034 A 
ATOM     10  C   LIG A   1      -8.680   0.841 130.997  0.00  0.00    +0.051 C 
ATOM     11  C   LIG A   1      -7.130   0.709 128.988  0.00  0.00    +0.130 A 
ATOM     12  C   LIG A   1      -6.201   0.049 128.158  0.00  0.00    +0.041 A 
ATOM     13  C   LIG A   1      -5.747  -1.212 128.574  0.00  0.00    +0.138 A 
ATOM     14  O   LIG A   1      -4.895  -3.731 129.576  0.00  0.00    -0.287 OA
BRANCH  11  15
ATOM     15  O   LIG A   1      -7.474   1.983 128.637  0.00  0.00    -0.506 OA
ATOM     16  H   LIG A   1      -8.189   2.004 127.985  0.00  0.00    +0.292 HD
ENDBRANCH  11  15
BRANCH  13  17
ATOM     17  O   LIG A   1      -4.803  -1.846 127.807  0.00  0.00    -0.505 OA
ATOM     18  H   LIG A   1      -4.910  -2.820 127.913  0.00  0.00    +0.292 HD
ENDBRANCH  13  17
ENDBRANCH   1  12
BRANCH   1  19
ATOM     19  C   LIG A   1      -6.659   0.499 125.681  0.00  0.00    +0.010 C 
ATOM     20  C   LIG A   1      -7.580   1.669 125.416  0.00  0.00    +0.194 C 
ATOM     21  C   LIG A   1      -8.618   1.598 124.295  0.00  0.00    +0.155 C 
ATOM     22  C   LIG A   1      -8.091   2.330 123.057  0.00  0.00    +0.053 C 
ATOM     23  C   LIG A   1      -8.995   0.142 124.049  0.00  0.00    +0.187 C 
ATOM     24  O   LIG A   1      -7.469   2.735 126.028  0.00  0.00    -0.289 OA
ATOM     25  C   LIG A   1      -6.672  -0.531 124.795  0.00  0.00    -0.006 C 
ATOM     26  C   LIG A   1      -7.765  -0.682 123.819  0.00  0.00    +0.026 C 
ATOM     27  C   LIG A   1      -7.623  -1.589 122.839  0.00  0.00    +0.202 C 
ATOM     28  O   LIG A   1      -6.538  -2.432 122.713  0.00  0.00    -0.468 OA
ATOM     29  C   LIG A   1      -5.602  -2.449 123.745  0.00  0.00    +0.102 C 
ATOM     30  C   LIG A   1      -4.576  -3.528 123.621  0.00  0.00    +0.086 C 
ATOM     31  C   LIG A   1      -5.637  -1.567 124.762  0.00  0.00    +0.050 C 
BRANCH  23  32
ATOM     32  O   LIG A   1      -9.917   0.036 122.961  0.00  0.00    -0.384 OA
ATOM     33  H   LIG A   1      -9.524   0.577 122.247  0.00  0.00    +0.210 HD
ENDBRANCH  23  32
BRANCH  21  34
ATOM     34  O   LIG A   1      -9.805   2.302 124.718  0.00  0.00    -0.378 OA
ATOM     35  H   LIG A   1      -9.937   2.041 125.653  0.00  0.00    +0.211 HD
ENDBRANCH  21  34
ENDBRANCH   1  19
TORSDOF 6
ENDMDL
MODEL 2
REMARK VINA RESULT:      -8.0      2.360      7.415
REMARK  Name = NuBBE_508
REMARK  10 active torsions:
REMARK  status: ('A' for Active; 'I' for Inactive)
REMARK    1  A    between atoms: C_1  and  C_2
REMARK    2  A    between atoms: C_8  and  C_9
REMARK    3  A    between atoms: C_10  and  O_11
REMARK    4  A    between atoms: C_12  and  C_13
REMARK    5  A    between atoms: C_13  and  C_14
REMARK    6  A    between atoms: C_16  and  C_17
REMARK    7  A    between atoms: C_16  and  O_21
REMARK    8  A    between atoms: C_18  and  O_20
REMARK    9  A    between atoms: C_27  and  C_28
REMARK   10  A    between atoms: C_30  and  O_31
REMARK                            x       y       z     vdW  Elec       q    Type
REMARK                         _______ _______ _______ _____ _____    ______ ____
ROOT
ATOM      1  C   LIG A   1      -8.898   1.601 126.495  0.00  0.00    +0.081 C 
ENDROOT
BRANCH   1  12
ATOM      2  C   LIG A   1      -5.192   4.941 120.249  0.00  0.00    +0.086 C 
ATOM      3  C   LIG A   1      -6.151   4.245 121.163  0.00  0.00    +0.106 A 
ATOM      4  C   LIG A   1      -7.358   3.829 120.759  0.00  0.00    +0.093 A 
ATOM      5  C   LIG A   1      -8.239   3.157 121.722  0.00  0.00    +0.196 A 
ATOM      6  C   LIG A   1      -7.739   2.995 123.096  0.00  0.00    +0.106 A 
ATOM      7  C   LIG A   1      -6.462   3.471 123.395  0.00  0.00    +0.149 A 
ATOM      8  O   LIG A   1      -5.668   4.076 122.448  0.00  0.00    -0.459 OA
ATOM      9  C   LIG A   1      -5.952   3.359 124.697  0.00  0.00    +0.034 A 
ATOM     10  C   LIG A   1      -4.572   3.865 125.027  0.00  0.00    +0.051 C 
ATOM     11  C   LIG A   1      -6.779   2.793 125.689  0.00  0.00    +0.130 A 
ATOM     12  C   LIG A   1      -8.057   2.271 125.407  0.00  0.00    +0.041 A 
ATOM     13  C   LIG A   1      -8.527   2.392 124.090  0.00  0.00    +0.138 A 
ATOM     14  O   LIG A   1      -9.349   2.754 121.395  0.00  0.00    -0.287 OA
BRANCH  11  15
ATOM     15  O   LIG A   1      -6.381   2.778 126.996  0.00  0.00    -0.506 OA
ATOM     16  H   LIG A   1      -7.107   2.979 127.603  0.00  0.00    +0.292 HD
ENDBRANCH  11  15
BRANCH  13  17
ATOM     17  O   LIG A   1      -9.790   1.937 123.809  0.00  0.00    -0.505 OA
ATOM     18  H   LIG A   1      -9.921   1.950 122.832  0.00  0.00    +0.292 HD
ENDBRANCH  13  17
ENDBRANCH   1  12
BRANCH   1  19
ATOM     19  C   LIG A   1      -8.266   0.341 127.074  0.00  0.00    +0.010 C 
ATOM     20  C   LIG A   1      -7.818   0.457 128.514  0.00  0.00    +0.194 C 
ATOM     21  C   LIG A   1      -7.124  -0.719 129.205  0.00  0.00    +0.155 C 
ATOM     22  C   LIG A   1      -8.136  -1.478 130.067  0.00  0.00    +0.053 C 
ATOM     23  C   LIG A   1      -6.423  -1.576 128.158  0.00  0.00    +0.187 C 
ATOM     24  O   LIG A   1      -8.068   1.456 129.194  0.00  0.00    -0.289 OA
ATOM     25  C   LIG A   1      -8.187  -0.880 126.481  0.00  0.00    -0.006 C 
ATOM     26  C   LIG A   1      -7.383  -1.962 127.075  0.00  0.00    +0.026 C 
ATOM     27  C   LIG A   1      -7.505  -3.198 126.565  0.00  0.00    +0.202 C 
ATOM     28  O   LIG A   1      -8.299  -3.516 125.482  0.00  0.00    -0.468 OA
ATOM     29  C   LIG A   1      -8.895  -2.471 124.781  0.00  0.00    +0.102 C 
ATOM     30  C   LIG A   1      -9.567  -2.890 123.513  0.00  0.00    +0.086 C 
ATOM     31  C   LIG A   1      -8.855  -1.197 125.218  0.00  0.00    +0.050 C 
BRANCH  23  32
ATOM     32  O   LIG A   1      -5.819  -2.721 128.767  0.00  0.00    -0.384 OA
ATOM     33  H   LIG A   1      -5.450  -2.389 129.610  0.00  0.00    +0.210 HD
ENDBRANCH  23  32
BRANCH  21  34
ATOM     34  O   LIG A   1      -6.121  -0.200 130.104  0.00  0.00    -0.378 OA
ATOM     35  H   LIG A   1      -5.689   0.527 129.611  0.00  0.00    +0.211 HD
ENDBRANCH  21  34
ENDBRANCH   1  19
TORSDOF 6
ENDMDL
MODEL 3
REMARK VINA RESULT:      -8.0      5.646      8.976
REMARK  Name = NuBBE_508
REMARK  10 active torsions:
REMARK  status: ('A' for Active; 'I' for Inactive)
REMARK    1  A    between atoms: C_1  and  C_2
REMARK    2  A    between atoms: C_8  and  C_9
REMARK    3  A    between atoms: C_10  and  O_11
REMARK    4  A    between atoms: C_12  and  C_13
REMARK    5  A    between atoms: C_13  and  C_14
REMARK    6  A    between atoms: C_16  and  C_17
REMARK    7  A    between atoms: C_16  and  O_21
REMARK    8  A    between atoms: C_18  and  O_20
REMARK    9  A    between atoms: C_27  and  C_28
REMARK   10  A    between atoms: C_30  and  O_31
REMARK                            x       y       z     vdW  Elec       q    Type
REMARK                         _______ _______ _______ _____ _____    ______ ____
ROOT
ATOM      1  C   LIG A   1      -7.650   3.502 129.829  0.00  0.00    +0.081 C 
ENDROOT
BRANCH   1  12
ATOM      2  C   LIG A   1     -12.988   9.411 129.121  0.00  0.00    +0.086 C 
ATOM      3  C   LIG A   1     -11.942   8.366 128.887  0.00  0.00    +0.106 A 
ATOM      4  C   LIG A   1     -11.453   8.097 127.670  0.00  0.00    +0.093 A 
ATOM      5  C   LIG A   1     -10.430   7.052 127.527  0.00  0.00    +0.196 A 
ATOM      6  C   LIG A   1     -10.013   6.346 128.748  0.00  0.00    +0.106 A 
ATOM      7  C   LIG A   1     -10.597   6.717 129.959  0.00  0.00    +0.149 A 
ATOM      8  O   LIG A   1     -11.537   7.718 130.040  0.00  0.00    -0.459 OA
ATOM      9  C   LIG A   1     -10.247   6.056 131.146  0.00  0.00    +0.034 A 
ATOM     10  C   LIG A   1     -10.867   6.455 132.459  0.00  0.00    +0.051 C 
ATOM     11  C   LIG A   1      -9.328   4.990 131.067  0.00  0.00    +0.130 A 
ATOM     12  C   LIG A   1      -8.695   4.618 129.864  0.00  0.00    +0.041 A 
ATOM     13  C   LIG A   1      -9.064   5.311 128.701  0.00  0.00    +0.138 A 
ATOM     14  O   LIG A   1      -9.950   6.778 126.434  0.00  0.00    -0.287 OA
BRANCH  11  15
ATOM     15  O   LIG A   1      -9.051   4.231 132.169  0.00  0.00    -0.506 OA
ATOM     16  H   LIG A   1      -9.668   4.399 132.895  0.00  0.00    +0.292 HD
ENDBRANCH  11  15
BRANCH  13  17
ATOM     17  O   LIG A   1      -8.499   4.928 127.511  0.00  0.00    -0.505 OA
ATOM     18  H   LIG A   1      -7.545   4.729 127.663  0.00  0.00    +0.292 HD
ENDBRANCH  13  17
ENDBRANCH   1  12
BRANCH   1  19
ATOM     19  C   LIG A   1      -6.221   3.988 130.039  0.00  0.00    +0.010 C 
ATOM     20  C   LIG A   1      -5.752   3.983 131.478  0.00  0.00    +0.194 C 
ATOM     21  C   LIG A   1      -4.355   4.491 131.837  0.00  0.00    +0.155 C 
ATOM     22  C   LIG A   1      -3.404   3.303 132.009  0.00  0.00    +0.053 C 
ATOM     23  C   LIG A   1      -3.906   5.509 130.796  0.00  0.00    +0.187 C 
ATOM     24  O   LIG A   1      -6.437   3.498 132.382  0.00  0.00    -0.289 OA
ATOM     25  C   LIG A   1      -5.312   4.294 129.077  0.00  0.00    -0.006 C 
ATOM     26  C   LIG A   1      -4.029   4.933 129.419  0.00  0.00    +0.026 C 
ATOM     27  C   LIG A   1      -3.089   5.022 128.464  0.00  0.00    +0.202 C 
ATOM     28  O   LIG A   1      -3.263   4.601 127.162  0.00  0.00    -0.468 OA
ATOM     29  C   LIG A   1      -4.537   4.194 126.772  0.00  0.00    +0.102 C 
ATOM     30  C   LIG A   1      -4.677   3.949 125.304  0.00  0.00    +0.086 C 
ATOM     31  C   LIG A   1      -5.545   4.046 127.653  0.00  0.00    +0.050 C 
BRANCH  23  32
ATOM     32  O   LIG A   1      -2.574   5.955 131.069  0.00  0.00    -0.384 OA
ATOM     33  H   LIG A   1      -2.138   5.192 131.498  0.00  0.00    +0.210 HD
ENDBRANCH  23  32
BRANCH  21  34
ATOM     34  O   LIG A   1      -4.420   5.158 133.116  0.00  0.00    -0.378 OA
ATOM     35  H   LIG A   1      -4.716   6.069 132.913  0.00  0.00    +0.211 HD
ENDBRANCH  21  34
ENDBRANCH   1  19
TORSDOF 6
ENDMDL
MODEL 4
REMARK VINA RESULT:      -7.9      2.799      6.920
REMARK  Name = NuBBE_508
REMARK  10 active torsions:
REMARK  status: ('A' for Active; 'I' for Inactive)
REMARK    1  A    between atoms: C_1  and  C_2
REMARK    2  A    between atoms: C_8  and  C_9
REMARK    3  A    between atoms: C_10  and  O_11
REMARK    4  A    between atoms: C_12  and  C_13
REMARK    5  A    between atoms: C_13  and  C_14
REMARK    6  A    between atoms: C_16  and  C_17
REMARK    7  A    between atoms: C_16  and  O_21
REMARK    8  A    between atoms: C_18  and  O_20
REMARK    9  A    between atoms: C_27  and  C_28
REMARK   10  A    between atoms: C_30  and  O_31
REMARK                            x       y       z     vdW  Elec       q    Type
REMARK                         _______ _______ _______ _____ _____    ______ ____
ROOT
ATOM      1  C   LIG A   1      -6.503   0.243 129.820  0.00  0.00    +0.081 C 
ENDROOT
BRANCH   1  12
ATOM      2  C   LIG A   1      -9.590  -3.416 123.418  0.00  0.00    +0.086 C 
ATOM      3  C   LIG A   1      -8.946  -2.457 124.370  0.00  0.00    +0.106 A 
ATOM      4  C   LIG A   1      -8.429  -1.287 123.974  0.00  0.00    +0.093 A 
ATOM      5  C   LIG A   1      -7.812  -0.405 124.973  0.00  0.00    +0.196 A 
ATOM      6  C   LIG A   1      -7.786  -0.878 126.366  0.00  0.00    +0.106 A 
ATOM      7  C   LIG A   1      -8.358  -2.117 126.654  0.00  0.00    +0.149 A 
ATOM      8  O   LIG A   1      -8.942  -2.896 125.682  0.00  0.00    -0.459 OA
ATOM      9  C   LIG A   1      -8.337  -2.619 127.964  0.00  0.00    +0.034 A 
ATOM     10  C   LIG A   1      -8.958  -3.953 128.285  0.00  0.00    +0.051 C 
ATOM     11  C   LIG A   1      -7.689  -1.857 128.957  0.00  0.00    +0.130 A 
ATOM     12  C   LIG A   1      -7.135  -0.586 128.702  0.00  0.00    +0.041 A 
ATOM     13  C   LIG A   1      -7.187  -0.114 127.381  0.00  0.00    +0.138 A 
ATOM     14  O   LIG A   1      -7.332   0.677 124.656  0.00  0.00    -0.287 OA
BRANCH  11  15
ATOM     15  O   LIG A   1      -7.527  -2.357 130.219  0.00  0.00    -0.506 OA
ATOM     16  H   LIG A   1      -6.779  -1.954 130.680  0.00  0.00    +0.292 HD
ENDBRANCH  11  15
BRANCH  13  17
ATOM     17  O   LIG A   1      -6.607   1.097 127.103  0.00  0.00    -0.505 OA
ATOM     18  H   LIG A   1      -7.239   1.638 126.576  0.00  0.00    +0.292 HD
ENDBRANCH  13  17
ENDBRANCH   1  12
BRANCH   1  19
ATOM     19  C   LIG A   1      -7.363   1.413 130.283  0.00  0.00    +0.010 C 
ATOM     20  C   LIG A   1      -8.443   1.054 131.280  0.00  0.00    +0.194 C 
ATOM     21  C   LIG A   1      -9.410   2.123 131.791  0.00  0.00    +0.155 C 
ATOM     22  C   LIG A   1      -8.951   2.615 133.167  0.00  0.00    +0.053 C 
ATOM     23  C   LIG A   1      -9.544   3.223 130.745  0.00  0.00    +0.187 C 
ATOM     24  O   LIG A   1      -8.525  -0.076 131.770  0.00  0.00    -0.289 OA
ATOM     25  C   LIG A   1      -7.178   2.728 129.995  0.00  0.00    -0.006 C 
ATOM     26  C   LIG A   1      -8.193   3.735 130.352  0.00  0.00    +0.026 C 
ATOM     27  C   LIG A   1      -7.871   5.033 130.233  0.00  0.00    +0.202 C 
ATOM     28  O   LIG A   1      -6.663   5.491 129.748  0.00  0.00    -0.468 OA
ATOM     29  C   LIG A   1      -5.780   4.558 129.209  0.00  0.00    +0.102 C 
ATOM     30  C   LIG A   1      -4.594   5.162 128.529  0.00  0.00    +0.086 C 
ATOM     31  C   LIG A   1      -5.995   3.231 129.296  0.00  0.00    +0.050 C 
BRANCH  23  32
ATOM     32  O   LIG A   1     -10.393   4.271 131.222  0.00  0.00    -0.384 OA
ATOM     33  H   LIG A   1     -10.717   4.717 130.414  0.00  0.00    +0.210 HD
ENDBRANCH  23  32
BRANCH  21  34
ATOM     34  O   LIG A   1     -10.709   1.521 131.979  0.00  0.00    -0.378 OA
ATOM     35  H   LIG A   1     -11.250   2.213 132.411  0.00  0.00    +0.211 HD
ENDBRANCH  21  34
ENDBRANCH   1  19
TORSDOF 6
ENDMDL
MODEL 5
REMARK VINA RESULT:      -7.8      1.994      3.350
REMARK  Name = NuBBE_508
REMARK  10 active torsions:
REMARK  status: ('A' for Active; 'I' for Inactive)
REMARK    1  A    between atoms: C_1  and  C_2
REMARK    2  A    between atoms: C_8  and  C_9
REMARK    3  A    between atoms: C_10  and  O_11
REMARK    4  A    between atoms: C_12  and  C_13
REMARK    5  A    between atoms: C_13  and  C_14
REMARK    6  A    between atoms: C_16  and  C_17
REMARK    7  A    between atoms: C_16  and  O_21
REMARK    8  A    between atoms: C_18  and  O_20
REMARK    9  A    between atoms: C_27  and  C_28
REMARK   10  A    between atoms: C_30  and  O_31
REMARK                            x       y       z     vdW  Elec       q    Type
REMARK                         _______ _______ _______ _____ _____    ______ ____
ROOT
ATOM      1  C   LIG A   1      -5.510  -0.324 125.873  0.00  0.00    +0.081 C 
ENDROOT
BRANCH   1  12
ATOM      2  C   LIG A   1      -7.710  -2.921 133.107  0.00  0.00    +0.086 C 
ATOM      3  C   LIG A   1      -7.061  -2.225 131.952  0.00  0.00    +0.106 A 
ATOM      4  C   LIG A   1      -6.144  -1.262 132.115  0.00  0.00    +0.093 A 
ATOM      5  C   LIG A   1      -5.559  -0.627 130.927  0.00  0.00    +0.196 A 
ATOM      6  C   LIG A   1      -6.036  -1.085 129.613  0.00  0.00    +0.106 A 
ATOM      7  C   LIG A   1      -6.995  -2.096 129.574  0.00  0.00    +0.149 A 
ATOM      8  O   LIG A   1      -7.497  -2.672 130.718  0.00  0.00    -0.459 OA
ATOM      9  C   LIG A   1      -7.497  -2.550 128.344  0.00  0.00    +0.034 A 
ATOM     10  C   LIG A   1      -8.529  -3.646 128.293  0.00  0.00    +0.051 C 
ATOM     11  C   LIG A   1      -7.034  -1.927 127.167  0.00  0.00    +0.130 A 
ATOM     12  C   LIG A   1      -6.039  -0.928 127.175  0.00  0.00    +0.041 A 
ATOM     13  C   LIG A   1      -5.554  -0.511 128.425  0.00  0.00    +0.138 A 
ATOM     14  O   LIG A   1      -4.712   0.252 131.029  0.00  0.00    -0.287 OA
BRANCH  11  15
ATOM     15  O   LIG A   1      -7.583  -2.240 125.956  0.00  0.00    -0.506 OA
ATOM     16  H   LIG A   1      -7.553  -1.498 125.336  0.00  0.00    +0.292 HD
ENDBRANCH  11  15
BRANCH  13  17
ATOM     17  O   LIG A   1      -4.624   0.496 128.455  0.00  0.00    -0.505 OA
ATOM     18  H   LIG A   1      -4.131   0.498 127.602  0.00  0.00    +0.292 HD
ENDBRANCH  13  17
ENDBRANCH   1  12
BRANCH   1  19
ATOM     19  C   LIG A   1      -6.205   0.970 125.468  0.00  0.00    +0.010 C 
ATOM     20  C   LIG A   1      -5.446   2.234 125.807  0.00  0.00    +0.194 C 
ATOM     21  C   LIG A   1      -6.049   3.605 125.499  0.00  0.00    +0.155 C 
ATOM     22  C   LIG A   1      -5.453   4.149 124.198  0.00  0.00    +0.053 C 
ATOM     23  C   LIG A   1      -7.569   3.497 125.495  0.00  0.00    +0.187 C 
ATOM     24  O   LIG A   1      -4.297   2.200 126.257  0.00  0.00    -0.289 OA
ATOM     25  C   LIG A   1      -7.345   1.092 124.738  0.00  0.00    -0.006 C 
ATOM     26  C   LIG A   1      -8.010   2.397 124.579  0.00  0.00    +0.026 C 
ATOM     27  C   LIG A   1      -9.007   2.498 123.685  0.00  0.00    +0.202 C 
ATOM     28  O   LIG A   1      -9.489   1.443 122.938  0.00  0.00    -0.468 OA
ATOM     29  C   LIG A   1      -9.017   0.166 123.232  0.00  0.00    +0.102 C 
ATOM     30  C   LIG A   1      -9.737  -0.931 122.516  0.00  0.00    +0.086 C 
ATOM     31  C   LIG A   1      -8.003  -0.046 124.093  0.00  0.00    +0.050 C 
BRANCH  23  32
ATOM     32  O   LIG A   1      -8.163   4.751 125.146  0.00  0.00    -0.384 OA
ATOM     33  H   LIG A   1      -9.081   4.693 125.478  0.00  0.00    +0.210 HD
ENDBRANCH  23  32
BRANCH  21  34
ATOM     34  O   LIG A   1      -5.668   4.524 126.545  0.00  0.00    -0.378 OA
ATOM     35  H   LIG A   1      -5.836   5.415 126.174  0.00  0.00    +0.211 HD
ENDBRANCH  21  34
ENDBRANCH   1  19
TORSDOF 6
ENDMDL
MODEL 6
REMARK VINA RESULT:      -7.8      3.795      5.399
REMARK  Name = NuBBE_508
REMARK  10 active torsions:
REMARK  status: ('A' for Active; 'I' for Inactive)
REMARK    1  A    between atoms: C_1  and  C_2
REMARK    2  A    between atoms: C_8  and  C_9
REMARK    3  A    between atoms: C_10  and  O_11
REMARK    4  A    between atoms: C_12  and  C_13
REMARK    5  A    between atoms: C_13  and  C_14
REMARK    6  A    between atoms: C_16  and  C_17
REMARK    7  A    between atoms: C_16  and  O_21
REMARK    8  A    between atoms: C_18  and  O_20
REMARK    9  A    between atoms: C_27  and  C_28
REMARK   10  A    between atoms: C_30  and  O_31
REMARK                            x       y       z     vdW  Elec       q    Type
REMARK                         _______ _______ _______ _____ _____    ______ ____
ROOT
ATOM      1  C   LIG A   1      -4.208   2.661 126.287  0.00  0.00    +0.081 C 
ENDROOT
BRANCH   1  12
ATOM      2  C   LIG A   1      -4.242   6.068 133.519  0.00  0.00    +0.086 C 
ATOM      3  C   LIG A   1      -4.216   5.786 132.049  0.00  0.00    +0.106 A 
ATOM      4  C   LIG A   1      -4.224   6.758 131.129  0.00  0.00    +0.093 A 
ATOM      5  C   LIG A   1      -4.201   6.395 129.706  0.00  0.00    +0.196 A 
ATOM      6  C   LIG A   1      -4.186   4.961 129.377  0.00  0.00    +0.106 A 
ATOM      7  C   LIG A   1      -4.179   4.042 130.426  0.00  0.00    +0.149 A 
ATOM      8  O   LIG A   1      -4.181   4.437 131.744  0.00  0.00    -0.459 OA
ATOM      9  C   LIG A   1      -4.188   2.664 130.160  0.00  0.00    +0.034 A 
ATOM     10  C   LIG A   1      -4.174   1.665 131.287  0.00  0.00    +0.051 C 
ATOM     11  C   LIG A   1      -4.245   2.247 128.815  0.00  0.00    +0.130 A 
ATOM     12  C   LIG A   1      -4.216   3.152 127.735  0.00  0.00    +0.041 A 
ATOM     13  C   LIG A   1      -4.195   4.522 128.043  0.00  0.00    +0.138 A 
ATOM     14  O   LIG A   1      -4.200   7.252 128.831  0.00  0.00    -0.287 OA
BRANCH  11  15
ATOM     15  O   LIG A   1      -4.385   0.923 128.505  0.00  0.00    -0.506 OA
ATOM     16  H   LIG A   1      -5.304   0.627 128.567  0.00  0.00    +0.292 HD
ENDBRANCH  11  15
BRANCH  13  17
ATOM     17  O   LIG A   1      -4.220   5.419 127.006  0.00  0.00    -0.505 OA
ATOM     18  H   LIG A   1      -4.377   4.929 126.165  0.00  0.00    +0.292 HD
ENDBRANCH  13  17
ENDBRANCH   1  12
BRANCH   1  19
ATOM     19  C   LIG A   1      -5.598   2.407 125.715  0.00  0.00    +0.010 C 
ATOM     20  C   LIG A   1      -6.248   3.608 125.064  0.00  0.00    +0.194 C 
ATOM     21  C   LIG A   1      -7.663   3.507 124.491  0.00  0.00    +0.155 C 
ATOM     22  C   LIG A   1      -7.590   3.306 122.975  0.00  0.00    +0.053 C 
ATOM     23  C   LIG A   1      -8.429   2.417 125.232  0.00  0.00    +0.187 C 
ATOM     24  O   LIG A   1      -5.637   4.668 124.900  0.00  0.00    -0.289 OA
ATOM     25  C   LIG A   1      -6.238   1.212 125.621  0.00  0.00    -0.006 C 
ATOM     26  C   LIG A   1      -7.653   1.136 125.220  0.00  0.00    +0.026 C 
ATOM     27  C   LIG A   1      -8.172  -0.071 124.943  0.00  0.00    +0.202 C 
ATOM     28  O   LIG A   1      -7.480  -1.259 125.060  0.00  0.00    -0.468 OA
ATOM     29  C   LIG A   1      -6.214  -1.222 125.640  0.00  0.00    +0.102 C 
ATOM     30  C   LIG A   1      -5.626  -2.569 125.909  0.00  0.00    +0.086 C 
ATOM     31  C   LIG A   1      -5.591  -0.064 125.933  0.00  0.00    +0.050 C 
BRANCH  23  32
ATOM     32  O   LIG A   1      -9.736   2.253 124.675  0.00  0.00    -0.384 OA
ATOM     33  H   LIG A   1     -10.247   3.019 125.007  0.00  0.00    +0.210 HD
ENDBRANCH  23  32
BRANCH  21  34
ATOM     34  O   LIG A   1      -8.342   4.761 124.711  0.00  0.00    -0.378 OA
ATOM     35  H   LIG A   1      -9.213   4.516 125.087  0.00  0.00    +0.211 HD
ENDBRANCH  21  34
ENDBRANCH   1  19
TORSDOF 6
ENDMDL
MODEL 7
REMARK VINA RESULT:      -7.8      3.433      5.845
REMARK  Name = NuBBE_508
REMARK  10 active torsions:
REMARK  status: ('A' for Active; 'I' for Inactive)
REMARK    1  A    between atoms: C_1  and  C_2
REMARK    2  A    between atoms: C_8  and  C_9
REMARK    3  A    between atoms: C_10  and  O_11
REMARK    4  A    between atoms: C_12  and  C_13
REMARK    5  A    between atoms: C_13  and  C_14
REMARK    6  A    between atoms: C_16  and  C_17
REMARK    7  A    between atoms: C_16  and  O_21
REMARK    8  A    between atoms: C_18  and  O_20
REMARK    9  A    between atoms: C_27  and  C_28
REMARK   10  A    between atoms: C_30  and  O_31
REMARK                            x       y       z     vdW  Elec       q    Type
REMARK                         _______ _______ _______ _____ _____    ______ ____
ROOT
ATOM      1  C   LIG A   1      -6.968   2.469 127.943  0.00  0.00    +0.081 C 
ENDROOT
BRANCH   1  12
ATOM      2  C   LIG A   1     -12.242   6.939 131.956  0.00  0.00    +0.086 C 
ATOM      3  C   LIG A   1     -11.267   6.388 130.963  0.00  0.00    +0.106 A 
ATOM      4  C   LIG A   1     -10.988   7.007 129.809  0.00  0.00    +0.093 A 
ATOM      5  C   LIG A   1     -10.021   6.396 128.888  0.00  0.00    +0.196 A 
ATOM      6  C   LIG A   1      -9.423   5.113 129.291  0.00  0.00    +0.106 A 
ATOM      7  C   LIG A   1      -9.795   4.568 130.519  0.00  0.00    +0.149 A 
ATOM      8  O   LIG A   1     -10.692   5.193 131.355  0.00  0.00    -0.459 OA
ATOM      9  C   LIG A   1      -9.269   3.335 130.936  0.00  0.00    +0.034 A 
ATOM     10  C   LIG A   1      -9.661   2.742 132.264  0.00  0.00    +0.051 C 
ATOM     11  C   LIG A   1      -8.394   2.657 130.063  0.00  0.00    +0.130 A 
ATOM     12  C   LIG A   1      -7.972   3.202 128.833  0.00  0.00    +0.041 A 
ATOM     13  C   LIG A   1      -8.513   4.442 128.458  0.00  0.00    +0.138 A 
ATOM     14  O   LIG A   1      -9.730   6.930 127.825  0.00  0.00    -0.287 OA
BRANCH  11  15
ATOM     15  O   LIG A   1      -7.955   1.398 130.362  0.00  0.00    -0.506 OA
ATOM     16  H   LIG A   1      -7.039   1.254 130.087  0.00  0.00    +0.292 HD
ENDBRANCH  11  15
BRANCH  13  17
ATOM     17  O   LIG A   1      -8.156   4.963 127.241  0.00  0.00    -0.505 OA
ATOM     18  H   LIG A   1      -8.501   5.883 127.176  0.00  0.00    +0.292 HD
ENDBRANCH  13  17
ENDBRANCH   1  12
BRANCH   1  19
ATOM     19  C   LIG A   1      -7.613   1.629 126.847  0.00  0.00    +0.010 C 
ATOM     20  C   LIG A   1      -7.695   2.301 125.494  0.00  0.00    +0.194 C 
ATOM     21  C   LIG A   1      -8.362   1.589 124.317  0.00  0.00    +0.155 C 
ATOM     22  C   LIG A   1      -7.290   0.960 123.422  0.00  0.00    +0.053 C 
ATOM     23  C   LIG A   1      -9.396   0.602 124.845  0.00  0.00    +0.187 C 
ATOM     24  O   LIG A   1      -7.161   3.392 125.278  0.00  0.00    -0.289 OA
ATOM     25  C   LIG A   1      -7.992   0.327 126.932  0.00  0.00    -0.006 C 
ATOM     26  C   LIG A   1      -8.776  -0.309 125.859  0.00  0.00    +0.026 C 
ATOM     27  C   LIG A   1      -8.944  -1.640 125.896  0.00  0.00    +0.202 C 
ATOM     28  O   LIG A   1      -8.473  -2.454 126.907  0.00  0.00    -0.468 OA
ATOM     29  C   LIG A   1      -7.920  -1.844 128.031  0.00  0.00    +0.102 C 
ATOM     30  C   LIG A   1      -7.624  -2.786 129.153  0.00  0.00    +0.086 C 
ATOM     31  C   LIG A   1      -7.684  -0.519 128.087  0.00  0.00    +0.050 C 
BRANCH  23  32
ATOM     32  O   LIG A   1      -9.993  -0.127 123.768  0.00  0.00    -0.384 OA
ATOM     33  H   LIG A   1      -9.588  -1.016 123.815  0.00  0.00    +0.210 HD
ENDBRANCH  23  32
BRANCH  21  34
ATOM     34  O   LIG A   1      -9.050   2.571 123.512  0.00  0.00    -0.378 OA
ATOM     35  H   LIG A   1      -8.720   2.429 122.600  0.00  0.00    +0.211 HD
ENDBRANCH  21  34
ENDBRANCH   1  19
TORSDOF 6
ENDMDL
MODEL 8
REMARK VINA RESULT:      -7.7      1.913      2.417
REMARK  Name = NuBBE_508
REMARK  10 active torsions:
REMARK  status: ('A' for Active; 'I' for Inactive)
REMARK    1  A    between atoms: C_1  and  C_2
REMARK    2  A    between atoms: C_8  and  C_9
REMARK    3  A    between atoms: C_10  and  O_11
REMARK    4  A    between atoms: C_12  and  C_13
REMARK    5  A    between atoms: C_13  and  C_14
REMARK    6  A    between atoms: C_16  and  C_17
REMARK    7  A    between atoms: C_16  and  O_21
REMARK    8  A    between atoms: C_18  and  O_20
REMARK    9  A    between atoms: C_27  and  C_28
REMARK   10  A    between atoms: C_30  and  O_31
REMARK                            x       y       z     vdW  Elec       q    Type
REMARK                         _______ _______ _______ _____ _____    ______ ____
ROOT
ATOM      1  C   LIG A   1      -5.336  -0.335 126.144  0.00  0.00    +0.081 C 
ENDROOT
BRANCH   1  12
ATOM      2  C   LIG A   1      -6.943  -2.116 133.770  0.00  0.00    +0.086 C 
ATOM      3  C   LIG A   1      -6.857  -2.082 132.276  0.00  0.00    +0.106 A 
ATOM      4  C   LIG A   1      -7.413  -3.023 131.501  0.00  0.00    +0.093 A 
ATOM      5  C   LIG A   1      -7.279  -2.916 130.043  0.00  0.00    +0.196 A 
ATOM      6  C   LIG A   1      -6.515  -1.773 129.518  0.00  0.00    +0.106 A 
ATOM      7  C   LIG A   1      -5.984  -0.859 130.427  0.00  0.00    +0.149 A 
ATOM      8  O   LIG A   1      -6.157  -0.995 131.785  0.00  0.00    -0.459 OA
ATOM      9  C   LIG A   1      -5.230   0.234 129.974  0.00  0.00    +0.034 A 
ATOM     10  C   LIG A   1      -4.658   1.229 130.949  0.00  0.00    +0.051 C 
ATOM     11  C   LIG A   1      -4.997   0.352 128.589  0.00  0.00    +0.130 A 
ATOM     12  C   LIG A   1      -5.553  -0.535 127.644  0.00  0.00    +0.041 A 
ATOM     13  C   LIG A   1      -6.310  -1.609 128.138  0.00  0.00    +0.138 A 
ATOM     14  O   LIG A   1      -7.776  -3.749 129.296  0.00  0.00    -0.287 OA
BRANCH  11  15
ATOM     15  O   LIG A   1      -4.165   1.323 128.107  0.00  0.00    -0.506 OA
ATOM     16  H   LIG A   1      -4.642   2.128 127.863  0.00  0.00    +0.292 HD
ENDBRANCH  11  15
BRANCH  13  17
ATOM     17  O   LIG A   1      -6.814  -2.513 127.238  0.00  0.00    -0.505 OA
ATOM     18  H   LIG A   1      -6.546  -2.240 126.330  0.00  0.00    +0.292 HD
ENDBRANCH  13  17
ENDBRANCH   1  12
BRANCH   1  19
ATOM     19  C   LIG A   1      -6.392   0.540 125.480  0.00  0.00    +0.010 C 
ATOM     20  C   LIG A   1      -6.052   2.013 125.420  0.00  0.00    +0.194 C 
ATOM     21  C   LIG A   1      -7.044   3.012 124.822  0.00  0.00    +0.155 C 
ATOM     22  C   LIG A   1      -6.642   3.335 123.380  0.00  0.00    +0.053 C 
ATOM     23  C   LIG A   1      -8.459   2.467 124.972  0.00  0.00    +0.187 C 
ATOM     24  O   LIG A   1      -4.946   2.439 125.767  0.00  0.00    -0.289 OA
ATOM     25  C   LIG A   1      -7.516   0.123 124.841  0.00  0.00    -0.006 C 
ATOM     26  C   LIG A   1      -8.546   1.083 124.409  0.00  0.00    +0.026 C 
ATOM     27  C   LIG A   1      -9.528   0.644 123.604  0.00  0.00    +0.202 C 
ATOM     28  O   LIG A   1      -9.667  -0.667 123.195  0.00  0.00    -0.468 OA
ATOM     29  C   LIG A   1      -8.829  -1.622 123.766  0.00  0.00    +0.102 C 
ATOM     30  C   LIG A   1      -9.183  -3.031 123.417  0.00  0.00    +0.086 C 
ATOM     31  C   LIG A   1      -7.798  -1.287 124.565  0.00  0.00    +0.050 C 
BRANCH  23  32
ATOM     32  O   LIG A   1      -9.406   3.351 124.364  0.00  0.00    -0.384 OA
ATOM     33  H   LIG A   1     -10.280   2.996 124.623  0.00  0.00    +0.210 HD
ENDBRANCH  23  32
BRANCH  21  34
ATOM     34  O   LIG A   1      -6.958   4.248 125.563  0.00  0.00    -0.378 OA
ATOM     35  H   LIG A   1      -6.543   4.006 126.416  0.00  0.00    +0.211 HD
ENDBRANCH  21  34
ENDBRANCH   1  19
TORSDOF 6
ENDMDL
MODEL 9
REMARK VINA RESULT:      -7.7      2.913      4.205
REMARK  Name = NuBBE_508
REMARK  10 active torsions:
REMARK  status: ('A' for Active; 'I' for Inactive)
REMARK    1  A    between atoms: C_1  and  C_2
REMARK    2  A    between atoms: C_8  and  C_9
REMARK    3  A    between atoms: C_10  and  O_11
REMARK    4  A    between atoms: C_12  and  C_13
REMARK    5  A    between atoms: C_13  and  C_14
REMARK    6  A    between atoms: C_16  and  C_17
REMARK    7  A    between atoms: C_16  and  O_21
REMARK    8  A    between atoms: C_18  and  O_20
REMARK    9  A    between atoms: C_27  and  C_28
REMARK   10  A    between atoms: C_30  and  O_31
REMARK                            x       y       z     vdW  Elec       q    Type
REMARK                         _______ _______ _______ _____ _____    ______ ____
ROOT
ATOM      1  C   LIG A   1      -4.666   2.226 127.619  0.00  0.00    +0.081 C 
ENDROOT
BRANCH   1  12
ATOM      2  C   LIG A   1      -8.809   3.920 134.242  0.00  0.00    +0.086 C 
ATOM      3  C   LIG A   1      -8.275   3.317 132.981  0.00  0.00    +0.106 A 
ATOM      4  C   LIG A   1      -8.752   2.174 132.471  0.00  0.00    +0.093 A 
ATOM      5  C   LIG A   1      -8.168   1.649 131.230  0.00  0.00    +0.196 A 
ATOM      6  C   LIG A   1      -7.067   2.416 130.625  0.00  0.00    +0.106 A 
ATOM      7  C   LIG A   1      -6.660   3.593 131.251  0.00  0.00    +0.149 A 
ATOM      8  O   LIG A   1      -7.255   4.052 132.404  0.00  0.00    -0.459 OA
ATOM      9  C   LIG A   1      -5.600   4.346 130.723  0.00  0.00    +0.034 A 
ATOM     10  C   LIG A   1      -5.157   5.622 131.390  0.00  0.00    +0.051 C 
ATOM     11  C   LIG A   1      -4.944   3.856 129.576  0.00  0.00    +0.130 A 
ATOM     12  C   LIG A   1      -5.358   2.689 128.901  0.00  0.00    +0.041 A 
ATOM     13  C   LIG A   1      -6.430   1.971 129.455  0.00  0.00    +0.138 A 
ATOM     14  O   LIG A   1      -8.577   0.611 130.725  0.00  0.00    -0.287 OA
BRANCH  11  15
ATOM     15  O   LIG A   1      -3.826   4.480 129.097  0.00  0.00    -0.506 OA
ATOM     16  H   LIG A   1      -3.248   3.876 128.611  0.00  0.00    +0.292 HD
ENDBRANCH  11  15
BRANCH  13  17
ATOM     17  O   LIG A   1      -6.813   0.806 128.843  0.00  0.00    -0.505 OA
ATOM     18  H   LIG A   1      -7.685   0.528 129.208  0.00  0.00    +0.292 HD
ENDBRANCH  13  17
ENDBRANCH   1  12
BRANCH   1  19
ATOM     19  C   LIG A   1      -5.466   2.505 126.352  0.00  0.00    +0.010 C 
ATOM     20  C   LIG A   1      -5.469   3.950 125.906  0.00  0.00    +0.194 C 
ATOM     21  C   LIG A   1      -6.271   4.378 124.676  0.00  0.00    +0.155 C 
ATOM     22  C   LIG A   1      -5.338   4.491 123.467  0.00  0.00    +0.053 C 
ATOM     23  C   LIG A   1      -7.440   3.421 124.479  0.00  0.00    +0.187 C 
ATOM     24  O   LIG A   1      -4.768   4.802 126.459  0.00  0.00    -0.289 OA
ATOM     25  C   LIG A   1      -6.051   1.589 125.536  0.00  0.00    -0.006 C 
ATOM     26  C   LIG A   1      -6.953   2.005 124.449  0.00  0.00    +0.026 C 
ATOM     27  C   LIG A   1      -7.336   1.082 123.551  0.00  0.00    +0.202 C 
ATOM     28  O   LIG A   1      -6.981  -0.250 123.609  0.00  0.00    -0.468 OA
ATOM     29  C   LIG A   1      -6.309  -0.698 124.744  0.00  0.00    +0.102 C 
ATOM     30  C   LIG A   1      -6.145  -2.182 124.810  0.00  0.00    +0.086 C 
ATOM     31  C   LIG A   1      -5.859   0.146 125.692  0.00  0.00    +0.050 C 
BRANCH  23  32
ATOM     32  O   LIG A   1      -8.173   3.757 123.297  0.00  0.00    -0.384 OA
ATOM     33  H   LIG A   1      -7.925   3.071 122.646  0.00  0.00    +0.210 HD
ENDBRANCH  23  32
BRANCH  21  34
ATOM     34  O   LIG A   1      -6.807   5.698 124.910  0.00  0.00    -0.378 OA
ATOM     35  H   LIG A   1      -7.378   5.882 124.135  0.00  0.00    +0.211 HD
ENDBRANCH  21  34
ENDBRANCH   1  19
TORSDOF 6
ENDMDL
