MODEL 1
REMARK VINA RESULT:      -5.7      0.000      0.000
REMARK  Name = NuBBE_1750
REMARK  4 active torsions:
REMARK  status: ('A' for Active; 'I' for Inactive)
REMARK    1  A    between atoms: C_1  and  C_2
REMARK    2  A    between atoms: C_1  and  C_3
REMARK    3  A    between atoms: C_1  and  C_4
REMARK    4  A    between atoms: C_7  and  C_10
REMARK                            x       y       z     vdW  Elec       q    Type
REMARK                         _______ _______ _______ _____ _____    ______ ____
ROOT
ATOM      1  C   LIG A   1     -11.698   7.838 129.651  0.00  0.00    -0.067 C 
ATOM      2  C   LIG A   1     -10.365   7.711 129.495  0.00  0.00    -0.023 C 
ATOM      3  C   LIG A   1      -9.462   6.989 130.456  0.00  0.00    +0.057 C 
ATOM      4  C   LIG A   1     -10.176   6.397 131.646  0.00  0.00    -0.072 C 
ATOM      5  C   LIG A   1     -11.505   6.521 131.811  0.00  0.00    -0.023 C 
ATOM      6  C   LIG A   1     -12.409   7.244 130.851  0.00  0.00    +0.057 C 
ATOM      7  C   LIG A   1      -9.312   5.665 132.631  0.00  0.00    +0.039 C 
ENDROOT
BRANCH   1   8
ATOM      8  C   LIG A   1     -12.534   8.586 128.621  0.00  0.00    +0.009 C 
ATOM      9  C   LIG A   1     -13.592   7.685 127.979  0.00  0.00    +0.012 C 
ATOM     10  C   LIG A   1     -13.180   9.844 129.206  0.00  0.00    +0.012 C 
ENDBRANCH   1   8
TORSDOF 1
ENDMDL
MODEL 2
REMARK VINA RESULT:      -5.7      0.111      1.582
REMARK  Name = NuBBE_1750
REMARK  4 active torsions:
REMARK  status: ('A' for Active; 'I' for Inactive)
REMARK    1  A    between atoms: C_1  and  C_2
REMARK    2  A    between atoms: C_1  and  C_3
REMARK    3  A    between atoms: C_1  and  C_4
REMARK    4  A    between atoms: C_7  and  C_10
REMARK                            x       y       z     vdW  Elec       q    Type
REMARK                         _______ _______ _______ _____ _____    ______ ____
ROOT
ATOM      1  C   LIG A   1     -11.687   7.808 129.645  0.00  0.00    -0.067 C 
ATOM      2  C   LIG A   1     -12.259   7.253 130.732  0.00  0.00    -0.023 C 
ATOM      3  C   LIG A   1     -11.507   6.514 131.803  0.00  0.00    +0.057 C 
ATOM      4  C   LIG A   1     -10.020   6.434 131.569  0.00  0.00    -0.072 C 
ATOM      5  C   LIG A   1      -9.441   6.983 130.486  0.00  0.00    -0.023 C 
ATOM      6  C   LIG A   1     -10.192   7.722 129.413  0.00  0.00    +0.057 C 
ATOM      7  C   LIG A   1      -9.229   5.706 132.616  0.00  0.00    +0.039 C 
ENDROOT
BRANCH   1   8
ATOM      8  C   LIG A   1     -12.531   8.543 128.611  0.00  0.00    +0.009 C 
ATOM      9  C   LIG A   1     -13.595   7.635 127.990  0.00  0.00    +0.012 C 
ATOM     10  C   LIG A   1     -13.170   9.810 129.183  0.00  0.00    +0.012 C 
ENDBRANCH   1   8
TORSDOF 1
ENDMDL
MODEL 3
REMARK VINA RESULT:      -5.4      0.976      4.338
REMARK  Name = NuBBE_1750
REMARK  4 active torsions:
REMARK  status: ('A' for Active; 'I' for Inactive)
REMARK    1  A    between atoms: C_1  and  C_2
REMARK    2  A    between atoms: C_1  and  C_3
REMARK    3  A    between atoms: C_1  and  C_4
REMARK    4  A    between atoms: C_7  and  C_10
REMARK                            x       y       z     vdW  Elec       q    Type
REMARK                         _______ _______ _______ _____ _____    ______ ____
ROOT
ATOM      1  C   LIG A   1     -10.258   6.938 130.546  0.00  0.00    -0.067 C 
ATOM      2  C   LIG A   1      -9.975   7.646 129.434  0.00  0.00    -0.023 C 
ATOM      3  C   LIG A   1     -10.979   8.462 128.668  0.00  0.00    +0.057 C 
ATOM      4  C   LIG A   1     -12.370   8.432 129.250  0.00  0.00    -0.072 C 
ATOM      5  C   LIG A   1     -12.662   7.726 130.357  0.00  0.00    -0.023 C 
ATOM      6  C   LIG A   1     -11.658   6.909 131.123  0.00  0.00    +0.057 C 
ATOM      7  C   LIG A   1     -13.404   9.235 128.517  0.00  0.00    +0.039 C 
ENDROOT
BRANCH   1   8
ATOM      8  C   LIG A   1      -9.172   6.142 131.258  0.00  0.00    +0.009 C 
ATOM      9  C   LIG A   1      -7.794   6.790 131.106  0.00  0.00    +0.012 C 
ATOM     10  C   LIG A   1      -9.501   5.911 132.734  0.00  0.00    +0.012 C 
ENDBRANCH   1   8
TORSDOF 1
ENDMDL
MODEL 4
REMARK VINA RESULT:      -5.3      0.969      4.599
REMARK  Name = NuBBE_1750
REMARK  4 active torsions:
REMARK  status: ('A' for Active; 'I' for Inactive)
REMARK    1  A    between atoms: C_1  and  C_2
REMARK    2  A    between atoms: C_1  and  C_3
REMARK    3  A    between atoms: C_1  and  C_4
REMARK    4  A    between atoms: C_7  and  C_10
REMARK                            x       y       z     vdW  Elec       q    Type
REMARK                         _______ _______ _______ _____ _____    ______ ____
ROOT
ATOM      1  C   LIG A   1     -10.372   7.010 130.498  0.00  0.00    -0.067 C 
ATOM      2  C   LIG A   1     -11.614   7.081 131.019  0.00  0.00    -0.023 C 
ATOM      3  C   LIG A   1     -12.746   7.860 130.412  0.00  0.00    +0.057 C 
ATOM      4  C   LIG A   1     -12.384   8.581 129.138  0.00  0.00    -0.072 C 
ATOM      5  C   LIG A   1     -11.148   8.519 128.612  0.00  0.00    -0.023 C 
ATOM      6  C   LIG A   1     -10.014   7.740 129.219  0.00  0.00    +0.057 C 
ATOM      7  C   LIG A   1     -13.488   9.371 128.496  0.00  0.00    +0.039 C 
ENDROOT
BRANCH   1   8
ATOM      8  C   LIG A   1      -9.286   6.190 131.184  0.00  0.00    +0.009 C 
ATOM      9  C   LIG A   1      -7.906   6.837 131.042  0.00  0.00    +0.012 C 
ATOM     10  C   LIG A   1      -9.608   5.921 132.655  0.00  0.00    +0.012 C 
ENDBRANCH   1   8
TORSDOF 1
ENDMDL
MODEL 5
REMARK VINA RESULT:      -5.3      1.061      2.211
REMARK  Name = NuBBE_1750
REMARK  4 active torsions:
REMARK  status: ('A' for Active; 'I' for Inactive)
REMARK    1  A    between atoms: C_1  and  C_2
REMARK    2  A    between atoms: C_1  and  C_3
REMARK    3  A    between atoms: C_1  and  C_4
REMARK    4  A    between atoms: C_7  and  C_10
REMARK                            x       y       z     vdW  Elec       q    Type
REMARK                         _______ _______ _______ _____ _____    ______ ____
ROOT
ATOM      1  C   LIG A   1     -10.880   7.293 130.105  0.00  0.00    -0.067 C 
ATOM      2  C   LIG A   1     -11.455   6.722 131.182  0.00  0.00    -0.023 C 
ATOM      3  C   LIG A   1     -10.696   6.118 132.330  0.00  0.00    +0.057 C 
ATOM      4  C   LIG A   1      -9.197   6.199 132.188  0.00  0.00    -0.072 C 
ATOM      5  C   LIG A   1      -8.614   6.764 131.116  0.00  0.00    -0.023 C 
ATOM      6  C   LIG A   1      -9.373   7.368 129.966  0.00  0.00    +0.057 C 
ATOM      7  C   LIG A   1      -8.399   5.609 133.314  0.00  0.00    +0.039 C 
ENDROOT
BRANCH   1   8
ATOM      8  C   LIG A   1     -11.733   7.883 128.989  0.00  0.00    +0.009 C 
ATOM      9  C   LIG A   1     -12.668   8.980 129.503  0.00  0.00    +0.012 C 
ATOM     10  C   LIG A   1     -10.883   8.399 127.826  0.00  0.00    +0.012 C 
ENDBRANCH   1   8
TORSDOF 1
ENDMDL
MODEL 6
REMARK VINA RESULT:      -5.1     11.182     11.864
REMARK  Name = NuBBE_1750
REMARK  4 active torsions:
REMARK  status: ('A' for Active; 'I' for Inactive)
REMARK    1  A    between atoms: C_1  and  C_2
REMARK    2  A    between atoms: C_1  and  C_3
REMARK    3  A    between atoms: C_1  and  C_4
REMARK    4  A    between atoms: C_7  and  C_10
REMARK                            x       y       z     vdW  Elec       q    Type
REMARK                         _______ _______ _______ _____ _____    ______ ____
ROOT
ATOM      1  C   LIG A   1      -7.912  -3.067 125.524  0.00  0.00    -0.067 C 
ATOM      2  C   LIG A   1      -8.857  -3.698 126.250  0.00  0.00    -0.023 C 
ATOM      3  C   LIG A   1      -8.903  -3.717 127.752  0.00  0.00    +0.057 C 
ATOM      4  C   LIG A   1      -7.781  -2.955 128.412  0.00  0.00    -0.072 C 
ATOM      5  C   LIG A   1      -6.833  -2.324 127.697  0.00  0.00    -0.023 C 
ATOM      6  C   LIG A   1      -6.786  -2.305 126.194  0.00  0.00    +0.057 C 
ATOM      7  C   LIG A   1      -7.789  -2.946 129.913  0.00  0.00    +0.039 C 
ENDROOT
BRANCH   1   8
ATOM      8  C   LIG A   1      -7.949  -3.099 124.002  0.00  0.00    +0.009 C 
ATOM      9  C   LIG A   1      -9.379  -3.194 123.466  0.00  0.00    +0.012 C 
ATOM     10  C   LIG A   1      -7.217  -1.908 123.381  0.00  0.00    +0.012 C 
ENDBRANCH   1   8
TORSDOF 1
ENDMDL
MODEL 7
REMARK VINA RESULT:      -4.9      1.600      4.040
REMARK  Name = NuBBE_1750
REMARK  4 active torsions:
REMARK  status: ('A' for Active; 'I' for Inactive)
REMARK    1  A    between atoms: C_1  and  C_2
REMARK    2  A    between atoms: C_1  and  C_3
REMARK    3  A    between atoms: C_1  and  C_4
REMARK    4  A    between atoms: C_7  and  C_10
REMARK                            x       y       z     vdW  Elec       q    Type
REMARK                         _______ _______ _______ _____ _____    ______ ____
ROOT
ATOM      1  C   LIG A   1     -12.037   7.104 129.811  0.00  0.00    -0.067 C 
ATOM      2  C   LIG A   1     -10.851   7.633 129.449  0.00  0.00    -0.023 C 
ATOM      3  C   LIG A   1     -10.450   7.932 128.032  0.00  0.00    +0.057 C 
ATOM      4  C   LIG A   1     -11.503   7.588 127.009  0.00  0.00    -0.072 C 
ATOM      5  C   LIG A   1     -12.688   7.057 127.359  0.00  0.00    -0.023 C 
ATOM      6  C   LIG A   1     -13.090   6.757 128.777  0.00  0.00    +0.057 C 
ATOM      7  C   LIG A   1     -11.145   7.873 125.579  0.00  0.00    +0.039 C 
ENDROOT
BRANCH   1   8
ATOM      8  C   LIG A   1     -12.357   6.838 131.276  0.00  0.00    +0.009 C 
ATOM      9  C   LIG A   1     -11.117   6.406 132.063  0.00  0.00    +0.012 C 
ATOM     10  C   LIG A   1     -13.032   8.036 131.946  0.00  0.00    +0.012 C 
ENDBRANCH   1   8
TORSDOF 1
ENDMDL
MODEL 8
REMARK VINA RESULT:      -4.8     11.136     12.331
REMARK  Name = NuBBE_1750
REMARK  4 active torsions:
REMARK  status: ('A' for Active; 'I' for Inactive)
REMARK    1  A    between atoms: C_1  and  C_2
REMARK    2  A    between atoms: C_1  and  C_3
REMARK    3  A    between atoms: C_1  and  C_4
REMARK    4  A    between atoms: C_7  and  C_10
REMARK                            x       y       z     vdW  Elec       q    Type
REMARK                         _______ _______ _______ _____ _____    ______ ____
ROOT
ATOM      1  C   LIG A   1      -7.146  -3.181 129.113  0.00  0.00    -0.067 C 
ATOM      2  C   LIG A   1      -8.307  -3.843 128.938  0.00  0.00    -0.023 C 
ATOM      3  C   LIG A   1      -9.108  -3.834 127.667  0.00  0.00    +0.057 C 
ATOM      4  C   LIG A   1      -8.501  -3.005 126.563  0.00  0.00    -0.072 C 
ATOM      5  C   LIG A   1      -7.345  -2.339 126.727  0.00  0.00    -0.023 C 
ATOM      6  C   LIG A   1      -6.543  -2.346 128.000  0.00  0.00    +0.057 C 
ATOM      7  C   LIG A   1      -9.268  -2.970 125.272  0.00  0.00    +0.039 C 
ENDROOT
BRANCH   1   8
ATOM      8  C   LIG A   1      -6.401  -3.251 130.439  0.00  0.00    +0.009 C 
ATOM      9  C   LIG A   1      -7.315  -2.938 131.626  0.00  0.00    +0.012 C 
ATOM     10  C   LIG A   1      -5.700  -4.596 130.637  0.00  0.00    +0.012 C 
ENDBRANCH   1   8
TORSDOF 1
ENDMDL
MODEL 9
REMARK VINA RESULT:      -4.8     11.304     12.139
REMARK  Name = NuBBE_1750
REMARK  4 active torsions:
REMARK  status: ('A' for Active; 'I' for Inactive)
REMARK    1  A    between atoms: C_1  and  C_2
REMARK    2  A    between atoms: C_1  and  C_3
REMARK    3  A    between atoms: C_1  and  C_4
REMARK    4  A    between atoms: C_7  and  C_10
REMARK                            x       y       z     vdW  Elec       q    Type
REMARK                         _______ _______ _______ _____ _____    ______ ____
ROOT
ATOM      1  C   LIG A   1      -6.751  -0.737 124.061  0.00  0.00    -0.067 C 
ATOM      2  C   LIG A   1      -6.520  -1.265 122.842  0.00  0.00    -0.023 C 
ATOM      3  C   LIG A   1      -5.733  -2.522 122.596  0.00  0.00    +0.057 C 
ATOM      4  C   LIG A   1      -5.203  -3.172 123.848  0.00  0.00    -0.072 C 
ATOM      5  C   LIG A   1      -5.426  -2.652 125.069  0.00  0.00    -0.023 C 
ATOM      6  C   LIG A   1      -6.212  -1.394 125.316  0.00  0.00    +0.057 C 
ATOM      7  C   LIG A   1      -4.412  -4.432 123.648  0.00  0.00    +0.039 C 
ENDROOT
BRANCH   1   8
ATOM      8  C   LIG A   1      -7.565   0.542 124.215  0.00  0.00    +0.009 C 
ATOM      9  C   LIG A   1      -7.095   1.637 123.255  0.00  0.00    +0.012 C 
ATOM     10  C   LIG A   1      -9.066   0.293 124.057  0.00  0.00    +0.012 C 
ENDBRANCH   1   8
TORSDOF 1
ENDMDL
