MODEL 1
REMARK VINA RESULT:      -8.0      0.000      0.000
REMARK  Name = NuBBE_418
REMARK  18 active torsions:
REMARK  status: ('A' for Active; 'I' for Inactive)
REMARK    1  A    between atoms: C_4  and  O_12
REMARK    2  A    between atoms: C_8  and  C_9
REMARK    3  A    between atoms: C_9  and  O_10
REMARK    4  A    between atoms: O_12  and  C_13
REMARK    5  A    between atoms: C_16  and  C_24
REMARK    6  A    between atoms: C_18  and  O_23
REMARK    7  A    between atoms: C_20  and  O_22
REMARK    8  A    between atoms: C_24  and  O_25
REMARK    9  A    between atoms: C_26  and  O_28
REMARK   10  A    between atoms: O_28  and  C_29
REMARK   11  A    between atoms: C_29  and  C_30
REMARK   12  A    between atoms: C_31  and  C_32
REMARK   13  A    between atoms: C_34  and  O_35
REMARK   14  A    between atoms: O_35  and  C_36
REMARK   15  A    between atoms: C_37  and  O_40
REMARK   16  A    between atoms: O_40  and  C_41
REMARK   17  A    between atoms: C_45  and  O_50
REMARK   18  A    between atoms: C_47  and  C_49
REMARK                            x       y       z     vdW  Elec       q    Type
REMARK                         _______ _______ _______ _____ _____    ______ ____
ROOT
ATOM      1  C   LIG A   1      -7.064   2.171 129.999  0.00  0.00    +0.298 C 
ATOM      2  O   LIG A   1      -6.545   0.982 130.607  0.00  0.00    -0.339 OA
ATOM      3  C   LIG A   1      -7.396   0.312 131.546  0.00  0.00    +0.178 C 
ATOM      4  C   LIG A   1      -8.856   0.789 131.487  0.00  0.00    +0.178 C 
ATOM      5  C   LIG A   1      -8.847   2.279 131.851  0.00  0.00    +0.191 C 
ATOM      6  C   LIG A   1      -7.824   3.071 131.008  0.00  0.00    +0.263 C 
ENDROOT
BRANCH   5   7
ATOM      7  O   LIG A   1     -10.168   2.823 131.708  0.00  0.00    -0.385 OA
ATOM      8  H   LIG A   1     -10.743   2.227 132.229  0.00  0.00    +0.210 HD
ENDBRANCH   5   7
BRANCH   4   9
ATOM      9  O   LIG A   1      -9.735   0.120 132.395  0.00  0.00    -0.386 OA
ATOM     10  H   LIG A   1      -9.168  -0.226 133.120  0.00  0.00    +0.210 HD
ENDBRANCH   4   9
BRANCH   1  11
ATOM     11  O   LIG A   1      -7.870   1.872 128.846  0.00  0.00    -0.308 OA
BRANCH  11  14
ATOM     12  C   LIG A   1      -8.785   1.468 125.992  0.00  0.00    +0.041 C 
ATOM     13  C   LIG A   1      -8.185   0.387 126.925  0.00  0.00    +0.071 C 
ATOM     14  C   LIG A   1      -7.192   0.991 127.924  0.00  0.00    +0.313 C 
ATOM     15  O   LIG A   1      -6.128   1.636 127.201  0.00  0.00    -0.470 OA
ATOM     16  C   LIG A   1      -6.572   2.562 126.283  0.00  0.00    +0.201 C 
ATOM     17  C   LIG A   1      -7.802   2.605 125.768  0.00  0.00    +0.074 C 
ATOM     18  C   LIG A   1      -9.131   0.707 124.675  0.00  0.00    +0.040 C 
ATOM     19  C   LIG A   1      -8.667  -0.736 124.875  0.00  0.00    +0.118 C 
ATOM     20  C   LIG A   1      -7.558  -0.608 125.917  0.00  0.00    +0.024 C 
ATOM     21  C   LIG A   1      -7.111  -1.926 126.527  0.00  0.00    +0.010 C 
BRANCH  17  22
ATOM     22  C   LIG A   1      -8.318   3.764 124.964  0.00  0.00    +0.336 C 
ATOM     23  O   LIG A   1      -8.901   4.687 125.488  0.00  0.00    -0.245 OA
BRANCH  22  24
ATOM     24  O   LIG A   1      -8.066   3.726 123.648  0.00  0.00    -0.477 OA
ATOM     25  H   LIG A   1      -8.063   4.574 123.189  0.00  0.00    +0.295 HD
ENDBRANCH  22  24
ENDBRANCH  17  22
BRANCH  19  26
ATOM     26  O   LIG A   1      -9.739  -1.520 125.388  0.00  0.00    -0.392 OA
ATOM     27  H   LIG A   1      -9.393  -2.414 125.560  0.00  0.00    +0.210 HD
ENDBRANCH  19  26
ENDBRANCH  11  14
ENDBRANCH   1  11
BRANCH   3  28
ATOM     28  C   LIG A   1      -7.196  -1.194 131.326  0.00  0.00    +0.190 C 
BRANCH  28  29
ATOM     29  O   LIG A   1      -7.542  -1.966 132.468  0.00  0.00    -0.392 OA
ATOM     30  H   LIG A   1      -7.872  -2.822 132.133  0.00  0.00    +0.209 HD
ENDBRANCH  28  29
ENDBRANCH   3  28
BRANCH   6  31
ATOM     31  O   LIG A   1      -6.916   3.639 131.977  0.00  0.00    -0.450 OA
BRANCH  31  32
ATOM     32  C   LIG A   1      -6.791   4.992 131.965  0.00  0.00    +0.332 C 
ATOM     33  O   LIG A   1      -5.902   5.642 132.446  0.00  0.00    -0.246 OA
BRANCH  32  34
ATOM     34  C   LIG A   1      -7.921   5.603 131.222  0.00  0.00    +0.092 C 
ATOM     35  C   LIG A   1      -8.930   6.239 131.814  0.00  0.00    +0.015 C 
BRANCH  35  36
ATOM     36  C   LIG A   1     -10.080   6.765 131.074  0.00  0.00    -0.021 A 
ATOM     37  C   LIG A   1      -9.892   7.437 129.859  0.00  0.00    +0.057 A 
ATOM     38  C   LIG A   1     -10.985   7.888 129.103  0.00  0.00    +0.162 A 
ATOM     39  C   LIG A   1     -12.283   7.666 129.590  0.00  0.00    +0.162 A 
ATOM     40  C   LIG A   1     -12.457   7.092 130.854  0.00  0.00    +0.050 A 
ATOM     41  C   LIG A   1     -11.370   6.636 131.584  0.00  0.00    +0.012 A 
BRANCH  38  42
ATOM     42  O   LIG A   1     -10.612   8.480 127.921  0.00  0.00    -0.491 OA
ATOM     43  C   LIG A   1     -10.661   7.690 126.740  0.00  0.00    +0.277 C 
ENDBRANCH  38  42
BRANCH  39  44
ATOM     44  O   LIG A   1     -13.376   8.022 128.844  0.00  0.00    -0.491 OA
ATOM     45  C   LIG A   1     -13.883   6.980 128.012  0.00  0.00    +0.277 C 
ENDBRANCH  39  44
ENDBRANCH  35  36
ENDBRANCH  32  34
ENDBRANCH  31  32
ENDBRANCH   6  31
TORSDOF 15
ENDMDL
MODEL 2
REMARK VINA RESULT:      -8.0      2.408      8.759
REMARK  Name = NuBBE_418
REMARK  18 active torsions:
REMARK  status: ('A' for Active; 'I' for Inactive)
REMARK    1  A    between atoms: C_4  and  O_12
REMARK    2  A    between atoms: C_8  and  C_9
REMARK    3  A    between atoms: C_9  and  O_10
REMARK    4  A    between atoms: O_12  and  C_13
REMARK    5  A    between atoms: C_16  and  C_24
REMARK    6  A    between atoms: C_18  and  O_23
REMARK    7  A    between atoms: C_20  and  O_22
REMARK    8  A    between atoms: C_24  and  O_25
REMARK    9  A    between atoms: C_26  and  O_28
REMARK   10  A    between atoms: O_28  and  C_29
REMARK   11  A    between atoms: C_29  and  C_30
REMARK   12  A    between atoms: C_31  and  C_32
REMARK   13  A    between atoms: C_34  and  O_35
REMARK   14  A    between atoms: O_35  and  C_36
REMARK   15  A    between atoms: C_37  and  O_40
REMARK   16  A    between atoms: O_40  and  C_41
REMARK   17  A    between atoms: C_45  and  O_50
REMARK   18  A    between atoms: C_47  and  C_49
REMARK                            x       y       z     vdW  Elec       q    Type
REMARK                         _______ _______ _______ _____ _____    ______ ____
ROOT
ATOM      1  C   LIG A   1      -7.814   1.977 127.423  0.00  0.00    +0.298 C 
ATOM      2  O   LIG A   1      -6.620   2.563 126.890  0.00  0.00    -0.339 OA
ATOM      3  C   LIG A   1      -6.713   3.143 125.581  0.00  0.00    +0.178 C 
ATOM      4  C   LIG A   1      -8.163   3.345 125.111  0.00  0.00    +0.178 C 
ATOM      5  C   LIG A   1      -8.802   1.953 125.047  0.00  0.00    +0.191 C 
ATOM      6  C   LIG A   1      -8.604   1.167 126.360  0.00  0.00    +0.263 C 
ENDROOT
BRANCH   5   7
ATOM      7  O   LIG A   1     -10.195   2.073 124.720  0.00  0.00    -0.385 OA
ATOM      8  H   LIG A   1     -10.220   2.651 123.931  0.00  0.00    +0.210 HD
ENDBRANCH   5   7
BRANCH   4   9
ATOM      9  O   LIG A   1      -8.288   3.947 123.819  0.00  0.00    -0.386 OA
ATOM     10  H   LIG A   1      -7.526   4.562 123.729  0.00  0.00    +0.210 HD
ENDBRANCH   4   9
BRANCH   1  11
ATOM     11  O   LIG A   1      -8.647   2.957 128.066  0.00  0.00    -0.308 OA
BRANCH  11  14
ATOM     12  C   LIG A   1      -7.600   3.675 130.811  0.00  0.00    +0.041 C 
ATOM     13  C   LIG A   1      -8.170   2.301 130.377  0.00  0.00    +0.071 C 
ATOM     14  C   LIG A   1      -9.235   2.452 129.285  0.00  0.00    +0.313 C 
ATOM     15  O   LIG A   1     -10.307   3.274 129.781  0.00  0.00    -0.470 OA
ATOM     16  C   LIG A   1      -9.884   4.492 130.268  0.00  0.00    +0.201 C 
ATOM     17  C   LIG A   1      -8.640   4.773 130.658  0.00  0.00    +0.074 C 
ATOM     18  C   LIG A   1      -7.158   3.469 132.292  0.00  0.00    +0.040 C 
ATOM     19  C   LIG A   1      -7.543   2.036 132.664  0.00  0.00    +0.118 C 
ATOM     20  C   LIG A   1      -8.697   1.724 131.714  0.00  0.00    +0.024 C 
ATOM     21  C   LIG A   1      -9.088   0.258 131.658  0.00  0.00    +0.010 C 
BRANCH  17  22
ATOM     22  C   LIG A   1      -8.163   6.167 130.950  0.00  0.00    +0.336 C 
ATOM     23  O   LIG A   1      -7.142   6.599 130.463  0.00  0.00    -0.245 OA
BRANCH  22  24
ATOM     24  O   LIG A   1      -8.948   6.903 131.749  0.00  0.00    -0.477 OA
ATOM     25  H   LIG A   1      -9.896   6.751 131.674  0.00  0.00    +0.295 HD
ENDBRANCH  22  24
ENDBRANCH  17  22
BRANCH  19  26
ATOM     26  O   LIG A   1      -6.447   1.163 132.413  0.00  0.00    -0.392 OA
ATOM     27  H   LIG A   1      -6.668   0.634 131.626  0.00  0.00    +0.210 HD
ENDBRANCH  19  26
ENDBRANCH  11  14
ENDBRANCH   1  11
BRANCH   3  28
ATOM     28  C   LIG A   1      -5.854   4.415 125.601  0.00  0.00    +0.190 C 
BRANCH  28  29
ATOM     29  O   LIG A   1      -6.579   5.572 125.208  0.00  0.00    -0.392 OA
ATOM     30  H   LIG A   1      -7.235   5.739 125.912  0.00  0.00    +0.209 HD
ENDBRANCH  28  29
ENDBRANCH   3  28
BRANCH   6  31
ATOM     31  O   LIG A   1      -7.875  -0.017 125.969  0.00  0.00    -0.450 OA
BRANCH  31  32
ATOM     32  C   LIG A   1      -8.487  -1.207 126.205  0.00  0.00    +0.332 C 
ATOM     33  O   LIG A   1      -9.473  -1.635 125.668  0.00  0.00    -0.246 OA
BRANCH  32  34
ATOM     34  C   LIG A   1      -7.739  -1.969 127.236  0.00  0.00    +0.092 C 
ATOM     35  C   LIG A   1      -7.727  -1.642 128.526  0.00  0.00    +0.015 C 
BRANCH  35  36
ATOM     36  C   LIG A   1      -6.919  -2.356 129.519  0.00  0.00    -0.021 A 
ATOM     37  C   LIG A   1      -6.219  -1.648 130.504  0.00  0.00    +0.057 A 
ATOM     38  C   LIG A   1      -5.494  -2.317 131.503  0.00  0.00    +0.162 A 
ATOM     39  C   LIG A   1      -5.470  -3.721 131.494  0.00  0.00    +0.162 A 
ATOM     40  C   LIG A   1      -6.079  -4.416 130.445  0.00  0.00    +0.050 A 
ATOM     41  C   LIG A   1      -6.806  -3.744 129.473  0.00  0.00    +0.012 A 
BRANCH  38  42
ATOM     42  O   LIG A   1      -4.915  -1.464 132.409  0.00  0.00    -0.491 OA
ATOM     43  C   LIG A   1      -3.563  -1.084 132.191  0.00  0.00    +0.277 C 
ENDBRANCH  38  42
BRANCH  39  44
ATOM     44  O   LIG A   1      -4.838  -4.411 132.496  0.00  0.00    -0.491 OA
ATOM     45  C   LIG A   1      -5.721  -4.985 133.459  0.00  0.00    +0.277 C 
ENDBRANCH  39  44
ENDBRANCH  35  36
ENDBRANCH  32  34
ENDBRANCH  31  32
ENDBRANCH   6  31
TORSDOF 15
ENDMDL
MODEL 3
REMARK VINA RESULT:      -8.0      2.147      9.028
REMARK  Name = NuBBE_418
REMARK  18 active torsions:
REMARK  status: ('A' for Active; 'I' for Inactive)
REMARK    1  A    between atoms: C_4  and  O_12
REMARK    2  A    between atoms: C_8  and  C_9
REMARK    3  A    between atoms: C_9  and  O_10
REMARK    4  A    between atoms: O_12  and  C_13
REMARK    5  A    between atoms: C_16  and  C_24
REMARK    6  A    between atoms: C_18  and  O_23
REMARK    7  A    between atoms: C_20  and  O_22
REMARK    8  A    between atoms: C_24  and  O_25
REMARK    9  A    between atoms: C_26  and  O_28
REMARK   10  A    between atoms: O_28  and  C_29
REMARK   11  A    between atoms: C_29  and  C_30
REMARK   12  A    between atoms: C_31  and  C_32
REMARK   13  A    between atoms: C_34  and  O_35
REMARK   14  A    between atoms: O_35  and  C_36
REMARK   15  A    between atoms: C_37  and  O_40
REMARK   16  A    between atoms: O_40  and  C_41
REMARK   17  A    between atoms: C_45  and  O_50
REMARK   18  A    between atoms: C_47  and  C_49
REMARK                            x       y       z     vdW  Elec       q    Type
REMARK                         _______ _______ _______ _____ _____    ______ ____
ROOT
ATOM      1  C   LIG A   1      -7.673   2.264 127.640  0.00  0.00    +0.298 C 
ATOM      2  O   LIG A   1      -6.516   2.886 127.069  0.00  0.00    -0.339 OA
ATOM      3  C   LIG A   1      -6.649   3.399 125.736  0.00  0.00    +0.178 C 
ATOM      4  C   LIG A   1      -8.112   3.502 125.271  0.00  0.00    +0.178 C 
ATOM      5  C   LIG A   1      -8.677   2.077 125.278  0.00  0.00    +0.191 C 
ATOM      6  C   LIG A   1      -8.426   1.364 126.625  0.00  0.00    +0.263 C 
ENDROOT
BRANCH   5   7
ATOM      7  O   LIG A   1     -10.076   2.107 124.961  0.00  0.00    -0.385 OA
ATOM      8  H   LIG A   1     -10.289   1.196 124.673  0.00  0.00    +0.210 HD
ENDBRANCH   5   7
BRANCH   4   9
ATOM      9  O   LIG A   1      -8.279   4.035 123.955  0.00  0.00    -0.386 OA
ATOM     10  H   LIG A   1      -7.679   4.812 123.896  0.00  0.00    +0.210 HD
ENDBRANCH   4   9
BRANCH   1  11
ATOM     11  O   LIG A   1      -8.552   3.227 128.246  0.00  0.00    -0.308 OA
BRANCH  11  14
ATOM     12  C   LIG A   1      -9.105   5.844 129.658  0.00  0.00    +0.041 C 
ATOM     13  C   LIG A   1      -7.885   4.918 129.888  0.00  0.00    +0.071 C 
ATOM     14  C   LIG A   1      -8.238   3.447 129.639  0.00  0.00    +0.313 C 
ATOM     15  O   LIG A   1      -9.301   3.059 130.528  0.00  0.00    -0.470 OA
ATOM     16  C   LIG A   1     -10.405   3.879 130.453  0.00  0.00    +0.201 C 
ATOM     17  C   LIG A   1     -10.406   5.124 129.972  0.00  0.00    +0.074 C 
ATOM     18  C   LIG A   1      -8.855   7.066 130.594  0.00  0.00    +0.040 C 
ATOM     19  C   LIG A   1      -7.563   6.771 131.356  0.00  0.00    +0.118 C 
ATOM     20  C   LIG A   1      -7.491   5.245 131.350  0.00  0.00    +0.024 C 
ATOM     21  C   LIG A   1      -6.152   4.675 131.785  0.00  0.00    +0.010 C 
BRANCH  17  22
ATOM     22  C   LIG A   1     -11.663   5.894 129.683  0.00  0.00    +0.336 C 
ATOM     23  O   LIG A   1     -12.041   6.080 128.548  0.00  0.00    -0.245 OA
BRANCH  22  24
ATOM     24  O   LIG A   1     -12.348   6.328 130.750  0.00  0.00    -0.477 OA
ATOM     25  H   LIG A   1     -12.779   7.185 130.662  0.00  0.00    +0.295 HD
ENDBRANCH  22  24
ENDBRANCH  17  22
BRANCH  19  26
ATOM     26  O   LIG A   1      -6.454   7.320 130.654  0.00  0.00    -0.392 OA
ATOM     27  H   LIG A   1      -6.773   7.610 129.781  0.00  0.00    +0.210 HD
ENDBRANCH  19  26
ENDBRANCH  11  14
ENDBRANCH   1  11
BRANCH   3  28
ATOM     28  C   LIG A   1      -5.860   4.714 125.688  0.00  0.00    +0.190 C 
BRANCH  28  29
ATOM     29  O   LIG A   1      -6.604   5.781 125.116  0.00  0.00    -0.392 OA
ATOM     30  H   LIG A   1      -7.316   5.992 125.751  0.00  0.00    +0.209 HD
ENDBRANCH  28  29
ENDBRANCH   3  28
BRANCH   6  31
ATOM     31  O   LIG A   1      -7.639   0.204 126.281  0.00  0.00    -0.450 OA
BRANCH  31  32
ATOM     32  C   LIG A   1      -8.170  -1.003 126.609  0.00  0.00    +0.332 C 
ATOM     33  O   LIG A   1      -9.082  -1.565 126.066  0.00  0.00    -0.246 OA
BRANCH  32  34
ATOM     34  C   LIG A   1      -7.433  -1.591 127.755  0.00  0.00    +0.092 C 
ATOM     35  C   LIG A   1      -7.981  -2.439 128.623  0.00  0.00    +0.015 C 
BRANCH  35  36
ATOM     36  C   LIG A   1      -7.264  -2.947 129.796  0.00  0.00    -0.021 A 
ATOM     37  C   LIG A   1      -7.543  -2.438 131.071  0.00  0.00    +0.057 A 
ATOM     38  C   LIG A   1      -6.915  -2.958 132.214  0.00  0.00    +0.162 A 
ATOM     39  C   LIG A   1      -5.985  -3.999 132.060  0.00  0.00    +0.162 A 
ATOM     40  C   LIG A   1      -5.633  -4.426 130.776  0.00  0.00    +0.050 A 
ATOM     41  C   LIG A   1      -6.272  -3.915 129.656  0.00  0.00    +0.012 A 
BRANCH  38  42
ATOM     42  O   LIG A   1      -7.347  -2.371 133.377  0.00  0.00    -0.491 OA
ATOM     43  C   LIG A   1      -8.310  -3.070 134.154  0.00  0.00    +0.277 C 
ENDBRANCH  38  42
BRANCH  39  44
ATOM     44  O   LIG A   1      -5.411  -4.585 133.158  0.00  0.00    -0.491 OA
ATOM     45  C   LIG A   1      -4.211  -3.952 133.600  0.00  0.00    +0.277 C 
ENDBRANCH  39  44
ENDBRANCH  35  36
ENDBRANCH  32  34
ENDBRANCH  31  32
ENDBRANCH   6  31
TORSDOF 15
ENDMDL
MODEL 4
REMARK VINA RESULT:      -7.9      2.392      9.099
REMARK  Name = NuBBE_418
REMARK  18 active torsions:
REMARK  status: ('A' for Active; 'I' for Inactive)
REMARK    1  A    between atoms: C_4  and  O_12
REMARK    2  A    between atoms: C_8  and  C_9
REMARK    3  A    between atoms: C_9  and  O_10
REMARK    4  A    between atoms: O_12  and  C_13
REMARK    5  A    between atoms: C_16  and  C_24
REMARK    6  A    between atoms: C_18  and  O_23
REMARK    7  A    between atoms: C_20  and  O_22
REMARK    8  A    between atoms: C_24  and  O_25
REMARK    9  A    between atoms: C_26  and  O_28
REMARK   10  A    between atoms: O_28  and  C_29
REMARK   11  A    between atoms: C_29  and  C_30
REMARK   12  A    between atoms: C_31  and  C_32
REMARK   13  A    between atoms: C_34  and  O_35
REMARK   14  A    between atoms: O_35  and  C_36
REMARK   15  A    between atoms: C_37  and  O_40
REMARK   16  A    between atoms: O_40  and  C_41
REMARK   17  A    between atoms: C_45  and  O_50
REMARK   18  A    between atoms: C_47  and  C_49
REMARK                            x       y       z     vdW  Elec       q    Type
REMARK                         _______ _______ _______ _____ _____    ______ ____
ROOT
ATOM      1  C   LIG A   1      -7.769   2.160 127.586  0.00  0.00    +0.298 C 
ATOM      2  O   LIG A   1      -6.579   2.750 127.050  0.00  0.00    -0.339 OA
ATOM      3  C   LIG A   1      -6.674   3.318 125.736  0.00  0.00    +0.178 C 
ATOM      4  C   LIG A   1      -8.125   3.505 125.262  0.00  0.00    +0.178 C 
ATOM      5  C   LIG A   1      -8.753   2.108 125.209  0.00  0.00    +0.191 C 
ATOM      6  C   LIG A   1      -8.551   1.334 126.530  0.00  0.00    +0.263 C 
ENDROOT
BRANCH   5   7
ATOM      7  O   LIG A   1     -10.147   2.214 124.879  0.00  0.00    -0.385 OA
ATOM      8  H   LIG A   1     -10.163   2.540 123.957  0.00  0.00    +0.210 HD
ENDBRANCH   5   7
BRANCH   4   9
ATOM      9  O   LIG A   1      -8.252   4.094 123.965  0.00  0.00    -0.386 OA
ATOM     10  H   LIG A   1      -7.521   3.722 123.423  0.00  0.00    +0.210 HD
ENDBRANCH   4   9
BRANCH   1  11
ATOM     11  O   LIG A   1      -8.611   3.139 128.220  0.00  0.00    -0.308 OA
BRANCH  11  14
ATOM     12  C   LIG A   1      -9.098   5.764 129.639  0.00  0.00    +0.041 C 
ATOM     13  C   LIG A   1      -7.870   4.837 129.821  0.00  0.00    +0.071 C 
ATOM     14  C   LIG A   1      -8.236   3.366 129.597  0.00  0.00    +0.313 C 
ATOM     15  O   LIG A   1      -9.260   2.985 130.533  0.00  0.00    -0.470 OA
ATOM     16  C   LIG A   1     -10.365   3.807 130.502  0.00  0.00    +0.201 C 
ATOM     17  C   LIG A   1     -10.385   5.049 130.014  0.00  0.00    +0.074 C 
ATOM     18  C   LIG A   1      -8.805   6.992 130.556  0.00  0.00    +0.040 C 
ATOM     19  C   LIG A   1      -7.481   6.698 131.264  0.00  0.00    +0.118 C 
ATOM     20  C   LIG A   1      -7.413   5.172 131.263  0.00  0.00    +0.024 C 
ATOM     21  C   LIG A   1      -6.057   4.602 131.643  0.00  0.00    +0.010 C 
BRANCH  17  22
ATOM     22  C   LIG A   1     -11.652   5.820 129.775  0.00  0.00    +0.336 C 
ATOM     23  O   LIG A   1     -12.073   6.010 128.655  0.00  0.00    -0.245 OA
BRANCH  22  24
ATOM     24  O   LIG A   1     -12.296   6.250 130.869  0.00  0.00    -0.477 OA
ATOM     25  H   LIG A   1     -12.388   5.616 131.587  0.00  0.00    +0.295 HD
ENDBRANCH  22  24
ENDBRANCH  17  22
BRANCH  19  26
ATOM     26  O   LIG A   1      -6.403   7.241 130.511  0.00  0.00    -0.392 OA
ATOM     27  H   LIG A   1      -6.234   8.140 130.845  0.00  0.00    +0.210 HD
ENDBRANCH  19  26
ENDBRANCH  11  14
ENDBRANCH   1  11
BRANCH   3  28
ATOM     28  C   LIG A   1      -5.825   4.596 125.746  0.00  0.00    +0.190 C 
BRANCH  28  29
ATOM     29  O   LIG A   1      -6.530   5.727 125.253  0.00  0.00    -0.392 OA
ATOM     30  H   LIG A   1      -5.877   6.273 124.774  0.00  0.00    +0.209 HD
ENDBRANCH  28  29
ENDBRANCH   3  28
BRANCH   6  31
ATOM     31  O   LIG A   1      -7.813   0.153 126.150  0.00  0.00    -0.450 OA
BRANCH  31  32
ATOM     32  C   LIG A   1      -8.455  -1.035 126.305  0.00  0.00    +0.332 C 
ATOM     33  O   LIG A   1      -9.347  -1.470 125.629  0.00  0.00    -0.246 OA
BRANCH  32  34
ATOM     34  C   LIG A   1      -7.874  -1.784 127.447  0.00  0.00    +0.092 C 
ATOM     35  C   LIG A   1      -6.593  -1.703 127.802  0.00  0.00    +0.015 C 
BRANCH  35  36
ATOM     36  C   LIG A   1      -6.017  -2.511 128.881  0.00  0.00    -0.021 A 
ATOM     37  C   LIG A   1      -4.780  -2.167 129.439  0.00  0.00    +0.057 A 
ATOM     38  C   LIG A   1      -4.244  -2.888 130.518  0.00  0.00    +0.162 A 
ATOM     39  C   LIG A   1      -4.967  -3.978 131.028  0.00  0.00    +0.162 A 
ATOM     40  C   LIG A   1      -6.148  -4.381 130.395  0.00  0.00    +0.050 A 
ATOM     41  C   LIG A   1      -6.674  -3.650 129.341  0.00  0.00    +0.012 A 
BRANCH  38  42
ATOM     42  O   LIG A   1      -3.050  -2.379 130.964  0.00  0.00    -0.491 OA
ATOM     43  C   LIG A   1      -3.077  -1.519 132.095  0.00  0.00    +0.277 C 
ENDBRANCH  38  42
BRANCH  39  44
ATOM     44  O   LIG A   1      -4.515  -4.658 132.129  0.00  0.00    -0.491 OA
ATOM     45  C   LIG A   1      -5.268  -4.419 133.317  0.00  0.00    +0.277 C 
ENDBRANCH  39  44
ENDBRANCH  35  36
ENDBRANCH  32  34
ENDBRANCH  31  32
ENDBRANCH   6  31
TORSDOF 15
ENDMDL
MODEL 5
REMARK VINA RESULT:      -7.8      3.097      8.159
REMARK  Name = NuBBE_418
REMARK  18 active torsions:
REMARK  status: ('A' for Active; 'I' for Inactive)
REMARK    1  A    between atoms: C_4  and  O_12
REMARK    2  A    between atoms: C_8  and  C_9
REMARK    3  A    between atoms: C_9  and  O_10
REMARK    4  A    between atoms: O_12  and  C_13
REMARK    5  A    between atoms: C_16  and  C_24
REMARK    6  A    between atoms: C_18  and  O_23
REMARK    7  A    between atoms: C_20  and  O_22
REMARK    8  A    between atoms: C_24  and  O_25
REMARK    9  A    between atoms: C_26  and  O_28
REMARK   10  A    between atoms: O_28  and  C_29
REMARK   11  A    between atoms: C_29  and  C_30
REMARK   12  A    between atoms: C_31  and  C_32
REMARK   13  A    between atoms: C_34  and  O_35
REMARK   14  A    between atoms: O_35  and  C_36
REMARK   15  A    between atoms: C_37  and  O_40
REMARK   16  A    between atoms: O_40  and  C_41
REMARK   17  A    between atoms: C_45  and  O_50
REMARK   18  A    between atoms: C_47  and  C_49
REMARK                            x       y       z     vdW  Elec       q    Type
REMARK                         _______ _______ _______ _____ _____    ______ ____
ROOT
ATOM      1  C   LIG A   1      -7.900   4.546 129.079  0.00  0.00    +0.298 C 
ATOM      2  O   LIG A   1      -8.872   5.492 128.617  0.00  0.00    -0.339 OA
ATOM      3  C   LIG A   1      -9.945   5.808 129.516  0.00  0.00    +0.178 C 
ATOM      4  C   LIG A   1      -9.684   5.339 130.957  0.00  0.00    +0.178 C 
ATOM      5  C   LIG A   1      -9.556   3.812 130.906  0.00  0.00    +0.191 C 
ATOM      6  C   LIG A   1      -8.543   3.354 129.834  0.00  0.00    +0.263 C 
ENDROOT
BRANCH   5   7
ATOM      7  O   LIG A   1      -9.201   3.310 132.203  0.00  0.00    -0.385 OA
ATOM      8  H   LIG A   1     -10.034   3.321 132.715  0.00  0.00    +0.210 HD
ENDBRANCH   5   7
BRANCH   4   9
ATOM      9  O   LIG A   1     -10.725   5.663 131.882  0.00  0.00    -0.386 OA
ATOM     10  H   LIG A   1     -10.276   5.963 132.704  0.00  0.00    +0.210 HD
ENDBRANCH   4   9
BRANCH   1  11
ATOM     11  O   LIG A   1      -6.873   5.178 129.864  0.00  0.00    -0.308 OA
BRANCH  11  14
ATOM     12  C   LIG A   1      -4.348   4.924 128.220  0.00  0.00    +0.041 C 
ATOM     13  C   LIG A   1      -5.096   3.772 128.935  0.00  0.00    +0.071 C 
ATOM     14  C   LIG A   1      -5.809   4.262 130.201  0.00  0.00    +0.313 C 
ATOM     15  O   LIG A   1      -4.838   4.826 131.101  0.00  0.00    -0.470 OA
ATOM     16  C   LIG A   1      -4.064   5.810 130.526  0.00  0.00    +0.201 C 
ATOM     17  C   LIG A   1      -3.880   5.974 129.214  0.00  0.00    +0.074 C 
ATOM     18  C   LIG A   1      -3.163   4.228 127.482  0.00  0.00    +0.040 C 
ATOM     19  C   LIG A   1      -3.238   2.744 127.847  0.00  0.00    +0.118 C 
ATOM     20  C   LIG A   1      -3.962   2.749 129.192  0.00  0.00    +0.024 C 
ATOM     21  C   LIG A   1      -4.437   1.383 129.656  0.00  0.00    +0.010 C 
BRANCH  17  22
ATOM     22  C   LIG A   1      -3.234   7.192 128.619  0.00  0.00    +0.336 C 
ATOM     23  O   LIG A   1      -2.161   7.128 128.061  0.00  0.00    -0.245 OA
BRANCH  22  24
ATOM     24  O   LIG A   1      -3.928   8.335 128.717  0.00  0.00    -0.477 OA
ATOM     25  H   LIG A   1      -4.884   8.249 128.794  0.00  0.00    +0.295 HD
ENDBRANCH  22  24
ENDBRANCH  17  22
BRANCH  19  26
ATOM     26  O   LIG A   1      -4.008   2.048 126.874  0.00  0.00    -0.392 OA
ATOM     27  H   LIG A   1      -3.446   1.922 126.089  0.00  0.00    +0.210 HD
ENDBRANCH  19  26
ENDBRANCH  11  14
ENDBRANCH   1  11
BRANCH   3  28
ATOM     28  C   LIG A   1     -10.221   7.310 129.363  0.00  0.00    +0.190 C 
BRANCH  28  29
ATOM     29  O   LIG A   1     -11.464   7.700 129.932  0.00  0.00    -0.392 OA
ATOM     30  H   LIG A   1     -11.416   7.474 130.881  0.00  0.00    +0.209 HD
ENDBRANCH  28  29
ENDBRANCH   3  28
BRANCH   6  31
ATOM     31  O   LIG A   1      -9.314   2.529 128.934  0.00  0.00    -0.450 OA
BRANCH  31  32
ATOM     32  C   LIG A   1      -8.617   1.877 127.967  0.00  0.00    +0.332 C 
ATOM     33  O   LIG A   1      -8.534   2.175 126.806  0.00  0.00    -0.246 OA
BRANCH  32  34
ATOM     34  C   LIG A   1      -7.907   0.711 128.549  0.00  0.00    +0.092 C 
ATOM     35  C   LIG A   1      -7.807  -0.468 127.937  0.00  0.00    +0.015 C 
BRANCH  35  36
ATOM     36  C   LIG A   1      -7.174  -1.633 128.560  0.00  0.00    -0.021 A 
ATOM     37  C   LIG A   1      -5.780  -1.769 128.554  0.00  0.00    +0.057 A 
ATOM     38  C   LIG A   1      -5.152  -2.844 129.204  0.00  0.00    +0.162 A 
ATOM     39  C   LIG A   1      -5.949  -3.798 129.857  0.00  0.00    +0.162 A 
ATOM     40  C   LIG A   1      -7.342  -3.714 129.765  0.00  0.00    +0.050 A 
ATOM     41  C   LIG A   1      -7.950  -2.638 129.134  0.00  0.00    +0.012 A 
BRANCH  38  42
ATOM     42  O   LIG A   1      -3.782  -2.786 129.135  0.00  0.00    -0.491 OA
ATOM     43  C   LIG A   1      -3.093  -2.115 130.181  0.00  0.00    +0.277 C 
ENDBRANCH  38  42
BRANCH  39  44
ATOM     44  O   LIG A   1      -5.370  -4.817 130.568  0.00  0.00    -0.491 OA
ATOM     45  C   LIG A   1      -5.381  -4.626 131.982  0.00  0.00    +0.277 C 
ENDBRANCH  39  44
ENDBRANCH  35  36
ENDBRANCH  32  34
ENDBRANCH  31  32
ENDBRANCH   6  31
TORSDOF 15
ENDMDL
MODEL 6
REMARK VINA RESULT:      -7.7      2.775      4.687
REMARK  Name = NuBBE_418
REMARK  18 active torsions:
REMARK  status: ('A' for Active; 'I' for Inactive)
REMARK    1  A    between atoms: C_4  and  O_12
REMARK    2  A    between atoms: C_8  and  C_9
REMARK    3  A    between atoms: C_9  and  O_10
REMARK    4  A    between atoms: O_12  and  C_13
REMARK    5  A    between atoms: C_16  and  C_24
REMARK    6  A    between atoms: C_18  and  O_23
REMARK    7  A    between atoms: C_20  and  O_22
REMARK    8  A    between atoms: C_24  and  O_25
REMARK    9  A    between atoms: C_26  and  O_28
REMARK   10  A    between atoms: O_28  and  C_29
REMARK   11  A    between atoms: C_29  and  C_30
REMARK   12  A    between atoms: C_31  and  C_32
REMARK   13  A    between atoms: C_34  and  O_35
REMARK   14  A    between atoms: O_35  and  C_36
REMARK   15  A    between atoms: C_37  and  O_40
REMARK   16  A    between atoms: O_40  and  C_41
REMARK   17  A    between atoms: C_45  and  O_50
REMARK   18  A    between atoms: C_47  and  C_49
REMARK                            x       y       z     vdW  Elec       q    Type
REMARK                         _______ _______ _______ _____ _____    ______ ____
ROOT
ATOM      1  C   LIG A   1      -6.002   2.297 131.849  0.00  0.00    +0.298 C 
ATOM      2  O   LIG A   1      -5.778   0.911 132.138  0.00  0.00    -0.339 OA
ATOM      3  C   LIG A   1      -6.496  -0.040 131.340  0.00  0.00    +0.178 C 
ATOM      4  C   LIG A   1      -7.124   0.579 130.080  0.00  0.00    +0.178 C 
ATOM      5  C   LIG A   1      -8.129   1.632 130.563  0.00  0.00    +0.191 C 
ATOM      6  C   LIG A   1      -7.497   2.612 131.574  0.00  0.00    +0.263 C 
ENDROOT
BRANCH   5   7
ATOM      7  O   LIG A   1      -8.678   2.333 129.436  0.00  0.00    -0.385 OA
ATOM      8  H   LIG A   1      -7.988   2.978 129.181  0.00  0.00    +0.210 HD
ENDBRANCH   5   7
BRANCH   4   9
ATOM      9  O   LIG A   1      -7.826  -0.351 129.250  0.00  0.00    -0.386 OA
ATOM     10  H   LIG A   1      -8.624  -0.621 129.757  0.00  0.00    +0.210 HD
ENDBRANCH   4   9
BRANCH   1  11
ATOM     11  O   LIG A   1      -5.159   2.762 130.781  0.00  0.00    -0.308 OA
BRANCH  11  14
ATOM     12  C   LIG A   1      -3.331   4.333 128.955  0.00  0.00    +0.041 C 
ATOM     13  C   LIG A   1      -3.967   4.840 130.273  0.00  0.00    +0.071 C 
ATOM     14  C   LIG A   1      -5.323   4.176 130.538  0.00  0.00    +0.313 C 
ATOM     15  O   LIG A   1      -6.211   4.464 129.443  0.00  0.00    -0.470 OA
ATOM     16  C   LIG A   1      -5.695   4.121 128.213  0.00  0.00    +0.201 C 
ATOM     17  C   LIG A   1      -4.399   3.944 127.946  0.00  0.00    +0.074 C 
ATOM     18  C   LIG A   1      -2.445   5.518 128.462  0.00  0.00    +0.040 C 
ATOM     19  C   LIG A   1      -2.652   6.658 129.461  0.00  0.00    +0.118 C 
ATOM     20  C   LIG A   1      -4.035   6.370 130.042  0.00  0.00    +0.024 C 
ATOM     21  C   LIG A   1      -4.380   7.180 131.279  0.00  0.00    +0.010 C 
BRANCH  17  22
ATOM     22  C   LIG A   1      -3.897   3.338 126.667  0.00  0.00    +0.336 C 
ATOM     23  O   LIG A   1      -4.010   3.915 125.608  0.00  0.00    -0.245 OA
BRANCH  22  24
ATOM     24  O   LIG A   1      -3.294   2.146 126.777  0.00  0.00    -0.477 OA
ATOM     25  H   LIG A   1      -3.823   1.376 126.542  0.00  0.00    +0.295 HD
ENDBRANCH  22  24
ENDBRANCH  17  22
BRANCH  19  26
ATOM     26  O   LIG A   1      -1.663   6.588 130.483  0.00  0.00    -0.392 OA
ATOM     27  H   LIG A   1      -1.976   5.953 131.151  0.00  0.00    +0.210 HD
ENDBRANCH  19  26
ENDBRANCH  11  14
ENDBRANCH   1  11
BRANCH   3  28
ATOM     28  C   LIG A   1      -5.538  -1.210 131.078  0.00  0.00    +0.190 C 
BRANCH  28  29
ATOM     29  O   LIG A   1      -6.219  -2.432 130.828  0.00  0.00    -0.392 OA
ATOM     30  H   LIG A   1      -6.989  -2.209 130.271  0.00  0.00    +0.209 HD
ENDBRANCH  28  29
ENDBRANCH   3  28
BRANCH   6  31
ATOM     31  O   LIG A   1      -8.285   2.456 132.774  0.00  0.00    -0.450 OA
BRANCH  31  32
ATOM     32  C   LIG A   1      -8.652   3.601 133.407  0.00  0.00    +0.332 C 
ATOM     33  O   LIG A   1      -8.295   3.976 134.492  0.00  0.00    -0.246 OA
BRANCH  32  34
ATOM     34  C   LIG A   1      -9.568   4.389 132.546  0.00  0.00    +0.092 C 
ATOM     35  C   LIG A   1      -9.334   5.650 132.188  0.00  0.00    +0.015 C 
BRANCH  35  36
ATOM     36  C   LIG A   1     -10.287   6.441 131.405  0.00  0.00    -0.021 A 
ATOM     37  C   LIG A   1      -9.884   7.061 130.215  0.00  0.00    +0.057 A 
ATOM     38  C   LIG A   1     -10.799   7.766 129.418  0.00  0.00    +0.162 A 
ATOM     39  C   LIG A   1     -12.136   7.854 129.839  0.00  0.00    +0.162 A 
ATOM     40  C   LIG A   1     -12.505   7.327 131.080  0.00  0.00    +0.050 A 
ATOM     41  C   LIG A   1     -11.595   6.618 131.851  0.00  0.00    +0.012 A 
BRANCH  38  42
ATOM     42  O   LIG A   1     -10.238   8.263 128.268  0.00  0.00    -0.491 OA
ATOM     43  C   LIG A   1     -10.596   7.651 127.036  0.00  0.00    +0.277 C 
ENDBRANCH  38  42
BRANCH  39  44
ATOM     44  O   LIG A   1     -13.074   8.467 129.049  0.00  0.00    -0.491 OA
ATOM     45  C   LIG A   1     -13.220   9.866 129.291  0.00  0.00    +0.277 C 
ENDBRANCH  39  44
ENDBRANCH  35  36
ENDBRANCH  32  34
ENDBRANCH  31  32
ENDBRANCH   6  31
TORSDOF 15
ENDMDL
MODEL 7
REMARK VINA RESULT:      -7.7      2.554      6.040
REMARK  Name = NuBBE_418
REMARK  18 active torsions:
REMARK  status: ('A' for Active; 'I' for Inactive)
REMARK    1  A    between atoms: C_4  and  O_12
REMARK    2  A    between atoms: C_8  and  C_9
REMARK    3  A    between atoms: C_9  and  O_10
REMARK    4  A    between atoms: O_12  and  C_13
REMARK    5  A    between atoms: C_16  and  C_24
REMARK    6  A    between atoms: C_18  and  O_23
REMARK    7  A    between atoms: C_20  and  O_22
REMARK    8  A    between atoms: C_24  and  O_25
REMARK    9  A    between atoms: C_26  and  O_28
REMARK   10  A    between atoms: O_28  and  C_29
REMARK   11  A    between atoms: C_29  and  C_30
REMARK   12  A    between atoms: C_31  and  C_32
REMARK   13  A    between atoms: C_34  and  O_35
REMARK   14  A    between atoms: O_35  and  C_36
REMARK   15  A    between atoms: C_37  and  O_40
REMARK   16  A    between atoms: O_40  and  C_41
REMARK   17  A    between atoms: C_45  and  O_50
REMARK   18  A    between atoms: C_47  and  C_49
REMARK                            x       y       z     vdW  Elec       q    Type
REMARK                         _______ _______ _______ _____ _____    ______ ____
ROOT
ATOM      1  C   LIG A   1      -6.735  -0.531 126.172  0.00  0.00    +0.298 C 
ATOM      2  O   LIG A   1      -5.766  -1.336 125.490  0.00  0.00    -0.339 OA
ATOM      3  C   LIG A   1      -6.260  -2.485 124.787  0.00  0.00    +0.178 C 
ATOM      4  C   LIG A   1      -7.785  -2.468 124.597  0.00  0.00    +0.178 C 
ATOM      5  C   LIG A   1      -8.403  -2.482 126.001  0.00  0.00    +0.191 C 
ATOM      6  C   LIG A   1      -7.806  -1.383 126.904  0.00  0.00    +0.263 C 
ENDROOT
BRANCH   5   7
ATOM      7  O   LIG A   1      -9.830  -2.356 125.905  0.00  0.00    -0.385 OA
ATOM      8  H   LIG A   1     -10.172  -3.266 126.019  0.00  0.00    +0.210 HD
ENDBRANCH   5   7
BRANCH   4   9
ATOM      9  O   LIG A   1      -8.305  -3.589 123.877  0.00  0.00    -0.386 OA
ATOM     10  H   LIG A   1      -7.531  -4.154 123.656  0.00  0.00    +0.210 HD
ENDBRANCH   4   9
BRANCH   1  11
ATOM     11  O   LIG A   1      -7.339   0.436 125.295  0.00  0.00    -0.308 OA
BRANCH  11  14
ATOM     12  C   LIG A   1      -6.262   3.074 124.283  0.00  0.00    +0.041 C 
ATOM     13  C   LIG A   1      -6.413   2.654 125.766  0.00  0.00    +0.071 C 
ATOM     14  C   LIG A   1      -7.591   1.692 125.962  0.00  0.00    +0.313 C 
ATOM     15  O   LIG A   1      -8.802   2.333 125.526  0.00  0.00    -0.470 OA
ATOM     16  C   LIG A   1      -8.734   2.816 124.238  0.00  0.00    +0.201 C 
ATOM     17  C   LIG A   1      -7.607   3.078 123.574  0.00  0.00    +0.074 C 
ATOM     18  C   LIG A   1      -5.609   4.490 124.338  0.00  0.00    +0.040 C 
ATOM     19  C   LIG A   1      -5.474   4.846 125.819  0.00  0.00    +0.118 C 
ATOM     20  C   LIG A   1      -6.572   4.017 126.483  0.00  0.00    +0.024 C 
ATOM     21  C   LIG A   1      -6.481   3.948 127.997  0.00  0.00    +0.010 C 
BRANCH  17  22
ATOM     22  C   LIG A   1      -7.566   3.369 122.101  0.00  0.00    +0.336 C 
ATOM     23  O   LIG A   1      -6.568   3.167 121.446  0.00  0.00    -0.245 OA
BRANCH  22  24
ATOM     24  O   LIG A   1      -8.702   3.830 121.560  0.00  0.00    -0.477 OA
ATOM     25  H   LIG A   1      -8.762   3.794 120.599  0.00  0.00    +0.295 HD
ENDBRANCH  22  24
ENDBRANCH  17  22
BRANCH  19  26
ATOM     26  O   LIG A   1      -4.195   4.443 126.296  0.00  0.00    -0.392 OA
ATOM     27  H   LIG A   1      -3.828   5.182 126.814  0.00  0.00    +0.210 HD
ENDBRANCH  19  26
ENDBRANCH  11  14
ENDBRANCH   1  11
BRANCH   3  28
ATOM     28  C   LIG A   1      -5.446  -2.592 123.491  0.00  0.00    +0.190 C 
BRANCH  28  29
ATOM     29  O   LIG A   1      -6.118  -2.028 122.373  0.00  0.00    -0.392 OA
ATOM     30  H   LIG A   1      -6.523  -2.773 121.889  0.00  0.00    +0.209 HD
ENDBRANCH  28  29
ENDBRANCH   3  28
BRANCH   6  31
ATOM     31  O   LIG A   1      -7.223  -2.100 128.014  0.00  0.00    -0.450 OA
BRANCH  31  32
ATOM     32  C   LIG A   1      -7.737  -1.830 129.243  0.00  0.00    +0.332 C 
ATOM     33  O   LIG A   1      -8.107  -2.625 130.064  0.00  0.00    -0.246 OA
BRANCH  32  34
ATOM     34  C   LIG A   1      -7.760  -0.365 129.476  0.00  0.00    +0.092 C 
ATOM     35  C   LIG A   1      -7.893   0.184 130.681  0.00  0.00    +0.015 C 
BRANCH  35  36
ATOM     36  C   LIG A   1      -7.996   1.632 130.886  0.00  0.00    -0.021 A 
ATOM     37  C   LIG A   1      -8.957   2.378 130.192  0.00  0.00    +0.057 A 
ATOM     38  C   LIG A   1      -9.115   3.754 130.425  0.00  0.00    +0.162 A 
ATOM     39  C   LIG A   1      -8.281   4.381 131.364  0.00  0.00    +0.162 A 
ATOM     40  C   LIG A   1      -7.253   3.652 131.971  0.00  0.00    +0.050 A 
ATOM     41  C   LIG A   1      -7.118   2.290 131.744  0.00  0.00    +0.012 A 
BRANCH  38  42
ATOM     42  O   LIG A   1     -10.135   4.308 129.693  0.00  0.00    -0.491 OA
ATOM     43  C   LIG A   1     -11.297   4.735 130.392  0.00  0.00    +0.277 C 
ENDBRANCH  38  42
BRANCH  39  44
ATOM     44  O   LIG A   1      -8.456   5.704 131.676  0.00  0.00    -0.491 OA
ATOM     45  C   LIG A   1      -7.467   6.573 131.124  0.00  0.00    +0.277 C 
ENDBRANCH  39  44
ENDBRANCH  35  36
ENDBRANCH  32  34
ENDBRANCH  31  32
ENDBRANCH   6  31
TORSDOF 15
ENDMDL
MODEL 8
REMARK VINA RESULT:      -7.6      2.601      8.929
REMARK  Name = NuBBE_418
REMARK  18 active torsions:
REMARK  status: ('A' for Active; 'I' for Inactive)
REMARK    1  A    between atoms: C_4  and  O_12
REMARK    2  A    between atoms: C_8  and  C_9
REMARK    3  A    between atoms: C_9  and  O_10
REMARK    4  A    between atoms: O_12  and  C_13
REMARK    5  A    between atoms: C_16  and  C_24
REMARK    6  A    between atoms: C_18  and  O_23
REMARK    7  A    between atoms: C_20  and  O_22
REMARK    8  A    between atoms: C_24  and  O_25
REMARK    9  A    between atoms: C_26  and  O_28
REMARK   10  A    between atoms: O_28  and  C_29
REMARK   11  A    between atoms: C_29  and  C_30
REMARK   12  A    between atoms: C_31  and  C_32
REMARK   13  A    between atoms: C_34  and  O_35
REMARK   14  A    between atoms: O_35  and  C_36
REMARK   15  A    between atoms: C_37  and  O_40
REMARK   16  A    between atoms: O_40  and  C_41
REMARK   17  A    between atoms: C_45  and  O_50
REMARK   18  A    between atoms: C_47  and  C_49
REMARK                            x       y       z     vdW  Elec       q    Type
REMARK                         _______ _______ _______ _____ _____    ______ ____
ROOT
ATOM      1  C   LIG A   1      -7.118   1.677 126.336  0.00  0.00    +0.298 C 
ATOM      2  O   LIG A   1      -6.107   2.116 125.419  0.00  0.00    -0.339 OA
ATOM      3  C   LIG A   1      -6.558   2.757 124.218  0.00  0.00    +0.178 C 
ATOM      4  C   LIG A   1      -8.037   3.175 124.274  0.00  0.00    +0.178 C 
ATOM      5  C   LIG A   1      -8.851   1.887 124.446  0.00  0.00    +0.191 C 
ATOM      6  C   LIG A   1      -8.330   1.027 125.617  0.00  0.00    +0.263 C 
ENDROOT
BRANCH   5   7
ATOM      7  O   LIG A   1     -10.240   2.209 124.618  0.00  0.00    -0.385 OA
ATOM      8  H   LIG A   1     -10.669   1.928 123.785  0.00  0.00    +0.210 HD
ENDBRANCH   5   7
BRANCH   4   9
ATOM      9  O   LIG A   1      -8.509   3.840 123.100  0.00  0.00    -0.386 OA
ATOM     10  H   LIG A   1      -8.823   4.725 123.394  0.00  0.00    +0.210 HD
ENDBRANCH   4   9
BRANCH   1  11
ATOM     11  O   LIG A   1      -7.531   2.734 127.218  0.00  0.00    -0.308 OA
BRANCH  11  14
ATOM     12  C   LIG A   1      -8.246   4.431 129.618  0.00  0.00    +0.041 C 
ATOM     13  C   LIG A   1      -6.823   4.192 129.054  0.00  0.00    +0.071 C 
ATOM     14  C   LIG A   1      -6.700   2.813 128.397  0.00  0.00    +0.313 C 
ATOM     15  O   LIG A   1      -6.999   1.797 129.371  0.00  0.00    -0.470 OA
ATOM     16  C   LIG A   1      -8.217   1.973 129.990  0.00  0.00    +0.201 C 
ATOM     17  C   LIG A   1      -8.889   3.124 130.050  0.00  0.00    +0.074 C 
ATOM     18  C   LIG A   1      -8.039   5.420 130.806  0.00  0.00    +0.040 C 
ATOM     19  C   LIG A   1      -6.532   5.655 130.917  0.00  0.00    +0.118 C 
ATOM     20  C   LIG A   1      -5.933   4.389 130.306  0.00  0.00    +0.024 C 
ATOM     21  C   LIG A   1      -4.444   4.474 130.015  0.00  0.00    +0.010 C 
BRANCH  17  22
ATOM     22  C   LIG A   1     -10.314   3.222 130.516  0.00  0.00    +0.336 C 
ATOM     23  O   LIG A   1     -11.133   3.875 129.907  0.00  0.00    -0.245 OA
BRANCH  22  24
ATOM     24  O   LIG A   1     -10.625   2.523 131.617  0.00  0.00    -0.477 OA
ATOM     25  H   LIG A   1      -9.925   2.425 132.271  0.00  0.00    +0.295 HD
ENDBRANCH  22  24
ENDBRANCH  17  22
BRANCH  19  26
ATOM     26  O   LIG A   1      -6.165   6.795 130.149  0.00  0.00    -0.392 OA
ATOM     27  H   LIG A   1      -5.566   7.336 130.694  0.00  0.00    +0.210 HD
ENDBRANCH  19  26
ENDBRANCH  11  14
ENDBRANCH   1  11
BRANCH   3  28
ATOM     28  C   LIG A   1      -5.573   3.897 123.930  0.00  0.00    +0.190 C 
BRANCH  28  29
ATOM     29  O   LIG A   1      -6.098   5.174 124.267  0.00  0.00    -0.392 OA
ATOM     30  H   LIG A   1      -5.479   5.833 123.897  0.00  0.00    +0.209 HD
ENDBRANCH  28  29
ENDBRANCH   3  28
BRANCH   6  31
ATOM     31  O   LIG A   1      -7.956  -0.228 125.009  0.00  0.00    -0.450 OA
BRANCH  31  32
ATOM     32  C   LIG A   1      -8.565  -1.340 125.498  0.00  0.00    +0.332 C 
ATOM     33  O   LIG A   1      -9.406  -2.004 124.955  0.00  0.00    -0.246 OA
BRANCH  32  34
ATOM     34  C   LIG A   1      -8.018  -1.674 126.836  0.00  0.00    +0.092 C 
ATOM     35  C   LIG A   1      -6.736  -1.959 127.056  0.00  0.00    +0.015 C 
BRANCH  35  36
ATOM     36  C   LIG A   1      -6.228  -2.366 128.369  0.00  0.00    -0.021 A 
ATOM     37  C   LIG A   1      -7.059  -2.319 129.495  0.00  0.00    +0.057 A 
ATOM     38  C   LIG A   1      -6.611  -2.768 130.748  0.00  0.00    +0.162 A 
ATOM     39  C   LIG A   1      -5.300  -3.260 130.860  0.00  0.00    +0.162 A 
ATOM     40  C   LIG A   1      -4.444  -3.202 129.756  0.00  0.00    +0.050 A 
ATOM     41  C   LIG A   1      -4.904  -2.771 128.521  0.00  0.00    +0.012 A 
BRANCH  38  42
ATOM     42  O   LIG A   1      -7.575  -2.691 131.722  0.00  0.00    -0.491 OA
ATOM     43  C   LIG A   1      -7.738  -1.451 132.397  0.00  0.00    +0.277 C 
ENDBRANCH  38  42
BRANCH  39  44
ATOM     44  O   LIG A   1      -4.853  -3.780 132.047  0.00  0.00    -0.491 OA
ATOM     45  C   LIG A   1      -5.135  -5.167 132.224  0.00  0.00    +0.277 C 
ENDBRANCH  39  44
ENDBRANCH  35  36
ENDBRANCH  32  34
ENDBRANCH  31  32
ENDBRANCH   6  31
TORSDOF 15
ENDMDL
MODEL 9
REMARK VINA RESULT:      -7.6      2.868      7.364
REMARK  Name = NuBBE_418
REMARK  18 active torsions:
REMARK  status: ('A' for Active; 'I' for Inactive)
REMARK    1  A    between atoms: C_4  and  O_12
REMARK    2  A    between atoms: C_8  and  C_9
REMARK    3  A    between atoms: C_9  and  O_10
REMARK    4  A    between atoms: O_12  and  C_13
REMARK    5  A    between atoms: C_16  and  C_24
REMARK    6  A    between atoms: C_18  and  O_23
REMARK    7  A    between atoms: C_20  and  O_22
REMARK    8  A    between atoms: C_24  and  O_25
REMARK    9  A    between atoms: C_26  and  O_28
REMARK   10  A    between atoms: O_28  and  C_29
REMARK   11  A    between atoms: C_29  and  C_30
REMARK   12  A    between atoms: C_31  and  C_32
REMARK   13  A    between atoms: C_34  and  O_35
REMARK   14  A    between atoms: O_35  and  C_36
REMARK   15  A    between atoms: C_37  and  O_40
REMARK   16  A    between atoms: O_40  and  C_41
REMARK   17  A    between atoms: C_45  and  O_50
REMARK   18  A    between atoms: C_47  and  C_49
REMARK                            x       y       z     vdW  Elec       q    Type
REMARK                         _______ _______ _______ _____ _____    ______ ____
ROOT
ATOM      1  C   LIG A   1      -4.157   4.376 130.323  0.00  0.00    +0.298 C 
ATOM      2  O   LIG A   1      -3.138   5.042 131.079  0.00  0.00    -0.339 OA
ATOM      3  C   LIG A   1      -2.684   6.307 130.579  0.00  0.00    +0.178 C 
ATOM      4  C   LIG A   1      -3.611   6.899 129.504  0.00  0.00    +0.178 C 
ATOM      5  C   LIG A   1      -3.611   5.910 128.332  0.00  0.00    +0.191 C 
ATOM      6  C   LIG A   1      -3.918   4.470 128.793  0.00  0.00    +0.263 C 
ENDROOT
BRANCH   5   7
ATOM      7  O   LIG A   1      -4.545   6.344 127.331  0.00  0.00    -0.385 OA
ATOM      8  H   LIG A   1      -5.370   6.533 127.821  0.00  0.00    +0.210 HD
ENDBRANCH   5   7
BRANCH   4   9
ATOM      9  O   LIG A   1      -3.198   8.174 129.004  0.00  0.00    -0.386 OA
ATOM     10  H   LIG A   1      -3.786   8.372 128.241  0.00  0.00    +0.210 HD
ENDBRANCH   4   9
BRANCH   1  11
ATOM     11  O   LIG A   1      -5.472   4.834 130.682  0.00  0.00    -0.308 OA
BRANCH  11  14
ATOM     12  C   LIG A   1      -7.968   3.739 131.994  0.00  0.00    +0.041 C 
ATOM     13  C   LIG A   1      -7.185   3.090 130.825  0.00  0.00    +0.071 C 
ATOM     14  C   LIG A   1      -6.506   4.146 129.945  0.00  0.00    +0.313 C 
ATOM     15  O   LIG A   1      -7.507   5.031 129.411  0.00  0.00    -0.470 OA
ATOM     16  C   LIG A   1      -8.311   5.596 130.377  0.00  0.00    +0.201 C 
ATOM     17  C   LIG A   1      -8.485   5.116 131.609  0.00  0.00    +0.074 C 
ATOM     18  C   LIG A   1      -9.117   2.733 132.308  0.00  0.00    +0.040 C 
ATOM     19  C   LIG A   1      -8.992   1.601 131.286  0.00  0.00    +0.118 C 
ATOM     20  C   LIG A   1      -8.284   2.267 130.108  0.00  0.00    +0.024 C 
ATOM     21  C   LIG A   1      -7.764   1.300 129.058  0.00  0.00    +0.010 C 
BRANCH  17  22
ATOM     22  C   LIG A   1      -9.169   5.884 132.704  0.00  0.00    +0.336 C 
ATOM     23  O   LIG A   1     -10.203   6.482 132.504  0.00  0.00    -0.245 OA
BRANCH  22  24
ATOM     24  O   LIG A   1      -8.585   5.838 133.909  0.00  0.00    -0.477 OA
ATOM     25  H   LIG A   1      -8.587   4.983 134.353  0.00  0.00    +0.295 HD
ENDBRANCH  22  24
ENDBRANCH  17  22
BRANCH  19  26
ATOM     26  O   LIG A   1      -8.186   0.557 131.821  0.00  0.00    -0.392 OA
ATOM     27  H   LIG A   1      -8.750   0.020 132.405  0.00  0.00    +0.210 HD
ENDBRANCH  19  26
ENDBRANCH  11  14
ENDBRANCH   1  11
BRANCH   3  28
ATOM     28  C   LIG A   1      -2.451   7.206 131.800  0.00  0.00    +0.190 C 
BRANCH  28  29
ATOM     29  O   LIG A   1      -3.096   8.468 131.684  0.00  0.00    -0.392 OA
ATOM     30  H   LIG A   1      -3.049   8.884 132.566  0.00  0.00    +0.209 HD
ENDBRANCH  28  29
ENDBRANCH   3  28
BRANCH   6  31
ATOM     31  O   LIG A   1      -2.755   3.707 128.406  0.00  0.00    -0.450 OA
BRANCH  31  32
ATOM     32  C   LIG A   1      -2.786   3.147 127.168  0.00  0.00    +0.332 C 
ATOM     33  O   LIG A   1      -1.845   2.829 126.492  0.00  0.00    -0.246 OA
BRANCH  32  34
ATOM     34  C   LIG A   1      -4.191   2.935 126.740  0.00  0.00    +0.092 C 
ATOM     35  C   LIG A   1      -4.665   1.759 126.333  0.00  0.00    +0.015 C 
BRANCH  35  36
ATOM     36  C   LIG A   1      -6.032   1.584 125.836  0.00  0.00    -0.021 A 
ATOM     37  C   LIG A   1      -6.901   2.679 125.754  0.00  0.00    +0.057 A 
ATOM     38  C   LIG A   1      -8.192   2.544 125.218  0.00  0.00    +0.162 A 
ATOM     39  C   LIG A   1      -8.609   1.280 124.770  0.00  0.00    +0.162 A 
ATOM     40  C   LIG A   1      -7.776   0.172 124.955  0.00  0.00    +0.050 A 
ATOM     41  C   LIG A   1      -6.497   0.322 125.472  0.00  0.00    +0.012 A 
BRANCH  38  42
ATOM     42  O   LIG A   1      -8.881   3.730 125.173  0.00  0.00    -0.491 OA
ATOM     43  C   LIG A   1      -8.255   4.882 125.722  0.00  0.00    +0.277 C 
ENDBRANCH  38  42
BRANCH  39  44
ATOM     44  O   LIG A   1      -9.831   1.124 124.170  0.00  0.00    -0.491 OA
ATOM     45  C   LIG A   1      -9.791   1.146 122.743  0.00  0.00    +0.277 C 
ENDBRANCH  39  44
ENDBRANCH  35  36
ENDBRANCH  32  34
ENDBRANCH  31  32
ENDBRANCH   6  31
TORSDOF 15
ENDMDL
