MODEL 1
REMARK VINA RESULT:      -7.4      0.000      0.000
REMARK  Name = NuBBE_1713
REMARK  3 active torsions:
REMARK  status: ('A' for Active; 'I' for Inactive)
REMARK    1  A    between atoms: C_4  and  O_5
REMARK    2  A    between atoms: C_14  and  O_15
REMARK    3  A    between atoms: O_15  and  C_16
REMARK                            x       y       z     vdW  Elec       q    Type
REMARK                         _______ _______ _______ _____ _____    ______ ____
ROOT
ATOM      1  O   LIG A   1     -11.533   6.111 132.428  0.00  0.00    -0.286 OA
ATOM      2  C   LIG A   1     -10.701   6.535 131.632  0.00  0.00    +0.204 A 
ATOM      3  C   LIG A   1     -11.120   7.218 130.402  0.00  0.00    +0.106 A 
ATOM      4  C   LIG A   1     -12.471   7.409 130.094  0.00  0.00    +0.131 A 
ATOM      5  C   LIG A   1     -12.834   8.060 128.918  0.00  0.00    +0.046 A 
ATOM      6  C   LIG A   1     -11.846   8.523 128.047  0.00  0.00    +0.007 A 
ATOM      7  C   LIG A   1     -10.498   8.334 128.355  0.00  0.00    +0.047 A 
ATOM      8  C   LIG A   1     -10.132   7.680 129.535  0.00  0.00    +0.143 A 
ATOM      9  O   LIG A   1      -8.785   7.536 129.760  0.00  0.00    -0.455 OA
ATOM     10  C   LIG A   1      -8.382   6.897 130.905  0.00  0.00    +0.140 A 
ATOM     11  C   LIG A   1      -7.009   6.766 131.099  0.00  0.00    +0.050 A 
ATOM     12  C   LIG A   1      -6.527   6.124 132.242  0.00  0.00    +0.049 A 
ATOM     13  C   LIG A   1      -7.406   5.607 133.200  0.00  0.00    +0.121 A 
ATOM     14  C   LIG A   1      -8.780   5.739 133.007  0.00  0.00    +0.061 A 
ATOM     15  C   LIG A   1      -9.258   6.384 131.859  0.00  0.00    +0.068 A 
ENDROOT
BRANCH   4  16
ATOM     16  O   LIG A   1     -13.488   6.980 130.902  0.00  0.00    -0.506 OA
ATOM     17  H   LIG A   1     -13.085   6.600 131.717  0.00  0.00    +0.292 HD
ENDBRANCH   4  16
BRANCH  13  18
ATOM     18  O   LIG A   1      -6.798   5.005 134.265  0.00  0.00    -0.495 OA
ATOM     19  C   LIG A   1      -7.292   5.332 135.559  0.00  0.00    +0.277 C 
ENDBRANCH  13  18
TORSDOF 2
ENDMDL
MODEL 2
REMARK VINA RESULT:      -7.3      2.055      5.608
REMARK  Name = NuBBE_1713
REMARK  3 active torsions:
REMARK  status: ('A' for Active; 'I' for Inactive)
REMARK    1  A    between atoms: C_4  and  O_5
REMARK    2  A    between atoms: C_14  and  O_15
REMARK    3  A    between atoms: O_15  and  C_16
REMARK                            x       y       z     vdW  Elec       q    Type
REMARK                         _______ _______ _______ _____ _____    ______ ____
ROOT
ATOM      1  O   LIG A   1     -11.518   6.460 132.232  0.00  0.00    -0.286 OA
ATOM      2  C   LIG A   1     -10.900   6.298 131.184  0.00  0.00    +0.204 A 
ATOM      3  C   LIG A   1      -9.813   5.314 131.101  0.00  0.00    +0.106 A 
ATOM      4  C   LIG A   1      -9.443   4.535 132.201  0.00  0.00    +0.131 A 
ATOM      5  C   LIG A   1      -8.407   3.613 132.088  0.00  0.00    +0.046 A 
ATOM      6  C   LIG A   1      -7.737   3.467 130.872  0.00  0.00    +0.007 A 
ATOM      7  C   LIG A   1      -8.106   4.244 129.772  0.00  0.00    +0.047 A 
ATOM      8  C   LIG A   1      -9.146   5.170 129.885  0.00  0.00    +0.143 A 
ATOM      9  O   LIG A   1      -9.445   5.893 128.756  0.00  0.00    -0.455 OA
ATOM     10  C   LIG A   1     -10.457   6.816 128.824  0.00  0.00    +0.140 A 
ATOM     11  C   LIG A   1     -10.730   7.533 127.661  0.00  0.00    +0.050 A 
ATOM     12  C   LIG A   1     -11.746   8.491 127.658  0.00  0.00    +0.049 A 
ATOM     13  C   LIG A   1     -12.499   8.744 128.810  0.00  0.00    +0.121 A 
ATOM     14  C   LIG A   1     -12.227   8.026 129.974  0.00  0.00    +0.061 A 
ATOM     15  C   LIG A   1     -11.206   7.066 129.971  0.00  0.00    +0.068 A 
ENDROOT
BRANCH   4  16
ATOM     16  O   LIG A   1     -10.057   4.628 133.421  0.00  0.00    -0.506 OA
ATOM     17  H   LIG A   1     -10.285   5.575 133.571  0.00  0.00    +0.292 HD
ENDBRANCH   4  16
BRANCH  13  18
ATOM     18  O   LIG A   1     -13.458   9.706 128.665  0.00  0.00    -0.495 OA
ATOM     19  C   LIG A   1     -13.483  10.744 129.638  0.00  0.00    +0.277 C 
ENDBRANCH  13  18
TORSDOF 2
ENDMDL
MODEL 3
REMARK VINA RESULT:      -7.0      1.475      6.204
REMARK  Name = NuBBE_1713
REMARK  3 active torsions:
REMARK  status: ('A' for Active; 'I' for Inactive)
REMARK    1  A    between atoms: C_4  and  O_5
REMARK    2  A    between atoms: C_14  and  O_15
REMARK    3  A    between atoms: O_15  and  C_16
REMARK                            x       y       z     vdW  Elec       q    Type
REMARK                         _______ _______ _______ _____ _____    ______ ____
ROOT
ATOM      1  O   LIG A   1      -7.234   7.317 130.485  0.00  0.00    -0.286 OA
ATOM      2  C   LIG A   1      -8.109   6.789 131.164  0.00  0.00    +0.204 A 
ATOM      3  C   LIG A   1      -7.760   6.001 132.352  0.00  0.00    +0.106 A 
ATOM      4  C   LIG A   1      -6.432   5.823 132.750  0.00  0.00    +0.131 A 
ATOM      5  C   LIG A   1      -6.136   5.068 133.882  0.00  0.00    +0.046 A 
ATOM      6  C   LIG A   1      -7.170   4.489 134.620  0.00  0.00    +0.007 A 
ATOM      7  C   LIG A   1      -8.497   4.667 134.224  0.00  0.00    +0.047 A 
ATOM      8  C   LIG A   1      -8.795   5.424 133.087  0.00  0.00    +0.143 A 
ATOM      9  O   LIG A   1     -10.125   5.549 132.769  0.00  0.00    -0.455 OA
ATOM     10  C   LIG A   1     -10.462   6.281 131.658  0.00  0.00    +0.140 A 
ATOM     11  C   LIG A   1     -11.819   6.384 131.364  0.00  0.00    +0.050 A 
ATOM     12  C   LIG A   1     -12.234   7.112 130.247  0.00  0.00    +0.049 A 
ATOM     13  C   LIG A   1     -11.303   7.744 129.415  0.00  0.00    +0.121 A 
ATOM     14  C   LIG A   1      -9.945   7.644 129.710  0.00  0.00    +0.061 A 
ATOM     15  C   LIG A   1      -9.534   6.911 130.832  0.00  0.00    +0.068 A 
ENDROOT
BRANCH   4  16
ATOM     16  O   LIG A   1      -5.372   6.362 132.073  0.00  0.00    -0.506 OA
ATOM     17  H   LIG A   1      -4.627   6.462 132.710  0.00  0.00    +0.292 HD
ENDBRANCH   4  16
BRANCH  13  18
ATOM     18  O   LIG A   1     -11.849   8.421 128.360  0.00  0.00    -0.495 OA
ATOM     19  C   LIG A   1     -13.088   9.082 128.589  0.00  0.00    +0.277 C 
ENDBRANCH  13  18
TORSDOF 2
ENDMDL
MODEL 4
REMARK VINA RESULT:      -6.8     10.596     10.919
REMARK  Name = NuBBE_1713
REMARK  3 active torsions:
REMARK  status: ('A' for Active; 'I' for Inactive)
REMARK    1  A    between atoms: C_4  and  O_5
REMARK    2  A    between atoms: C_14  and  O_15
REMARK    3  A    between atoms: O_15  and  C_16
REMARK                            x       y       z     vdW  Elec       q    Type
REMARK                         _______ _______ _______ _____ _____    ______ ____
ROOT
ATOM      1  O   LIG A   1      -9.705  -3.290 126.348  0.00  0.00    -0.286 OA
ATOM      2  C   LIG A   1      -8.543  -2.902 126.272  0.00  0.00    +0.204 A 
ATOM      3  C   LIG A   1      -7.957  -2.546 124.974  0.00  0.00    +0.106 A 
ATOM      4  C   LIG A   1      -8.691  -2.637 123.788  0.00  0.00    +0.131 A 
ATOM      5  C   LIG A   1      -8.104  -2.293 122.574  0.00  0.00    +0.046 A 
ATOM      6  C   LIG A   1      -6.779  -1.856 122.542  0.00  0.00    +0.007 A 
ATOM      7  C   LIG A   1      -6.044  -1.764 123.726  0.00  0.00    +0.047 A 
ATOM      8  C   LIG A   1      -6.634  -2.110 124.946  0.00  0.00    +0.143 A 
ATOM      9  O   LIG A   1      -5.841  -1.990 126.061  0.00  0.00    -0.455 OA
ATOM     10  C   LIG A   1      -6.378  -2.323 127.279  0.00  0.00    +0.140 A 
ATOM     11  C   LIG A   1      -5.545  -2.192 128.388  0.00  0.00    +0.050 A 
ATOM     12  C   LIG A   1      -6.025  -2.515 129.659  0.00  0.00    +0.049 A 
ATOM     13  C   LIG A   1      -7.337  -2.970 129.838  0.00  0.00    +0.121 A 
ATOM     14  C   LIG A   1      -8.171  -3.099 128.729  0.00  0.00    +0.061 A 
ATOM     15  C   LIG A   1      -7.685  -2.774 127.456  0.00  0.00    +0.068 A 
ENDROOT
BRANCH   4  16
ATOM     16  O   LIG A   1      -9.993  -3.058 123.747  0.00  0.00    -0.506 OA
ATOM     17  H   LIG A   1     -10.283  -3.048 122.806  0.00  0.00    +0.292 HD
ENDBRANCH   4  16
BRANCH  13  18
ATOM     18  O   LIG A   1      -7.672  -3.249 131.133  0.00  0.00    -0.495 OA
ATOM     19  C   LIG A   1      -6.666  -3.041 132.118  0.00  0.00    +0.277 C 
ENDBRANCH  13  18
TORSDOF 2
ENDMDL
MODEL 5
REMARK VINA RESULT:      -6.8      1.819      2.766
REMARK  Name = NuBBE_1713
REMARK  3 active torsions:
REMARK  status: ('A' for Active; 'I' for Inactive)
REMARK    1  A    between atoms: C_4  and  O_5
REMARK    2  A    between atoms: C_14  and  O_15
REMARK    3  A    between atoms: O_15  and  C_16
REMARK                            x       y       z     vdW  Elec       q    Type
REMARK                         _______ _______ _______ _____ _____    ______ ____
ROOT
ATOM      1  O   LIG A   1      -8.959   5.361 128.161  0.00  0.00    -0.286 OA
ATOM      2  C   LIG A   1      -9.535   5.882 129.112  0.00  0.00    +0.204 A 
ATOM      3  C   LIG A   1     -10.606   6.861 128.894  0.00  0.00    +0.106 A 
ATOM      4  C   LIG A   1     -11.005   7.237 127.608  0.00  0.00    +0.131 A 
ATOM      5  C   LIG A   1     -12.023   8.170 127.436  0.00  0.00    +0.046 A 
ATOM      6  C   LIG A   1     -12.647   8.731 128.552  0.00  0.00    +0.007 A 
ATOM      7  C   LIG A   1     -12.250   8.356 129.837  0.00  0.00    +0.047 A 
ATOM      8  C   LIG A   1     -11.227   7.419 130.010  0.00  0.00    +0.143 A 
ATOM      9  O   LIG A   1     -10.898   7.107 131.307  0.00  0.00    -0.455 OA
ATOM     10  C   LIG A   1      -9.897   6.194 131.522  0.00  0.00    +0.140 A 
ATOM     11  C   LIG A   1      -9.589   5.904 132.849  0.00  0.00    +0.050 A 
ATOM     12  C   LIG A   1      -8.578   4.986 133.143  0.00  0.00    +0.049 A 
ATOM     13  C   LIG A   1      -7.867   4.349 132.120  0.00  0.00    +0.121 A 
ATOM     14  C   LIG A   1      -8.177   4.637 130.792  0.00  0.00    +0.061 A 
ATOM     15  C   LIG A   1      -9.191   5.559 130.503  0.00  0.00    +0.068 A 
ENDROOT
BRANCH   4  16
ATOM     16  O   LIG A   1     -10.436   6.727 126.472  0.00  0.00    -0.506 OA
ATOM     17  H   LIG A   1      -9.458   6.775 126.578  0.00  0.00    +0.292 HD
ENDBRANCH   4  16
BRANCH  13  18
ATOM     18  O   LIG A   1      -6.908   3.476 132.551  0.00  0.00    -0.495 OA
ATOM     19  C   LIG A   1      -7.132   2.837 133.802  0.00  0.00    +0.277 C 
ENDBRANCH  13  18
TORSDOF 2
ENDMDL
MODEL 6
REMARK VINA RESULT:      -6.6      8.663     10.697
REMARK  Name = NuBBE_1713
REMARK  3 active torsions:
REMARK  status: ('A' for Active; 'I' for Inactive)
REMARK    1  A    between atoms: C_4  and  O_5
REMARK    2  A    between atoms: C_14  and  O_15
REMARK    3  A    between atoms: O_15  and  C_16
REMARK                            x       y       z     vdW  Elec       q    Type
REMARK                         _______ _______ _______ _____ _____    ______ ____
ROOT
ATOM      1  O   LIG A   1      -5.645   3.088 124.472  0.00  0.00    -0.286 OA
ATOM      2  C   LIG A   1      -6.707   2.900 123.887  0.00  0.00    +0.204 A 
ATOM      3  C   LIG A   1      -7.811   2.194 124.548  0.00  0.00    +0.106 A 
ATOM      4  C   LIG A   1      -7.695   1.711 125.856  0.00  0.00    +0.131 A 
ATOM      5  C   LIG A   1      -8.760   1.044 126.452  0.00  0.00    +0.046 A 
ATOM      6  C   LIG A   1      -9.949   0.858 125.743  0.00  0.00    +0.007 A 
ATOM      7  C   LIG A   1     -10.066   1.340 124.437  0.00  0.00    +0.047 A 
ATOM      8  C   LIG A   1      -8.996   2.010 123.838  0.00  0.00    +0.143 A 
ATOM      9  O   LIG A   1      -9.196   2.451 122.552  0.00  0.00    -0.455 OA
ATOM     10  C   LIG A   1      -8.170   3.110 121.924  0.00  0.00    +0.140 A 
ATOM     11  C   LIG A   1      -8.407   3.540 120.621  0.00  0.00    +0.050 A 
ATOM     12  C   LIG A   1      -7.406   4.216 119.919  0.00  0.00    +0.049 A 
ATOM     13  C   LIG A   1      -6.162   4.470 120.508  0.00  0.00    +0.121 A 
ATOM     14  C   LIG A   1      -5.925   4.041 121.813  0.00  0.00    +0.061 A 
ATOM     15  C   LIG A   1      -6.932   3.363 122.512  0.00  0.00    +0.068 A 
ENDROOT
BRANCH   4  16
ATOM     16  O   LIG A   1      -6.560   1.859 126.607  0.00  0.00    -0.506 OA
ATOM     17  H   LIG A   1      -6.500   2.805 126.877  0.00  0.00    +0.292 HD
ENDBRANCH   4  16
BRANCH  13  18
ATOM     18  O   LIG A   1      -5.278   5.138 119.709  0.00  0.00    -0.495 OA
ATOM     19  C   LIG A   1      -5.823   5.869 118.616  0.00  0.00    +0.277 C 
ENDBRANCH  13  18
TORSDOF 2
ENDMDL
MODEL 7
REMARK VINA RESULT:      -6.4     10.478     11.043
REMARK  Name = NuBBE_1713
REMARK  3 active torsions:
REMARK  status: ('A' for Active; 'I' for Inactive)
REMARK    1  A    between atoms: C_4  and  O_5
REMARK    2  A    between atoms: C_14  and  O_15
REMARK    3  A    between atoms: O_15  and  C_16
REMARK                            x       y       z     vdW  Elec       q    Type
REMARK                         _______ _______ _______ _____ _____    ______ ____
ROOT
ATOM      1  O   LIG A   1      -5.438  -1.442 125.977  0.00  0.00    -0.286 OA
ATOM      2  C   LIG A   1      -6.488  -2.023 126.235  0.00  0.00    +0.204 A 
ATOM      3  C   LIG A   1      -7.439  -2.358 125.168  0.00  0.00    +0.106 A 
ATOM      4  C   LIG A   1      -7.189  -2.030 123.833  0.00  0.00    +0.131 A 
ATOM      5  C   LIG A   1      -8.113  -2.361 122.846  0.00  0.00    +0.046 A 
ATOM      6  C   LIG A   1      -9.292  -3.023 123.193  0.00  0.00    +0.007 A 
ATOM      7  C   LIG A   1      -9.543  -3.353 124.527  0.00  0.00    +0.047 A 
ATOM      8  C   LIG A   1      -8.615  -3.020 125.518  0.00  0.00    +0.143 A 
ATOM      9  O   LIG A   1      -8.940  -3.380 126.803  0.00  0.00    -0.455 OA
ATOM     10  C   LIG A   1      -8.059  -3.070 127.808  0.00  0.00    +0.140 A 
ATOM     11  C   LIG A   1      -8.422  -3.448 129.098  0.00  0.00    +0.050 A 
ATOM     12  C   LIG A   1      -7.574  -3.162 130.170  0.00  0.00    +0.049 A 
ATOM     13  C   LIG A   1      -6.359  -2.498 129.968  0.00  0.00    +0.121 A 
ATOM     14  C   LIG A   1      -5.994  -2.122 128.676  0.00  0.00    +0.061 A 
ATOM     15  C   LIG A   1      -6.849  -2.411 127.604  0.00  0.00    +0.068 A 
ENDROOT
BRANCH   4  16
ATOM     16  O   LIG A   1      -6.055  -1.381 123.424  0.00  0.00    -0.506 OA
ATOM     17  H   LIG A   1      -6.165  -0.424 123.631  0.00  0.00    +0.292 HD
ENDBRANCH   4  16
BRANCH  13  18
ATOM     18  O   LIG A   1      -5.631  -2.283 131.104  0.00  0.00    -0.495 OA
ATOM     19  C   LIG A   1      -5.992  -3.040 132.254  0.00  0.00    +0.277 C 
ENDBRANCH  13  18
TORSDOF 2
ENDMDL
MODEL 8
REMARK VINA RESULT:      -6.1      9.958     11.960
REMARK  Name = NuBBE_1713
REMARK  3 active torsions:
REMARK  status: ('A' for Active; 'I' for Inactive)
REMARK    1  A    between atoms: C_4  and  O_5
REMARK    2  A    between atoms: C_14  and  O_15
REMARK    3  A    between atoms: O_15  and  C_16
REMARK                            x       y       z     vdW  Elec       q    Type
REMARK                         _______ _______ _______ _____ _____    ______ ____
ROOT
ATOM      1  O   LIG A   1      -5.265  -0.834 127.684  0.00  0.00    -0.286 OA
ATOM      2  C   LIG A   1      -5.942  -1.772 128.094  0.00  0.00    +0.204 A 
ATOM      3  C   LIG A   1      -5.527  -2.536 129.277  0.00  0.00    +0.106 A 
ATOM      4  C   LIG A   1      -4.355  -2.227 129.974  0.00  0.00    +0.131 A 
ATOM      5  C   LIG A   1      -3.989  -2.972 131.091  0.00  0.00    +0.046 A 
ATOM      6  C   LIG A   1      -4.797  -4.030 131.515  0.00  0.00    +0.007 A 
ATOM      7  C   LIG A   1      -5.968  -4.338 130.820  0.00  0.00    +0.047 A 
ATOM      8  C   LIG A   1      -6.335  -3.590 129.698  0.00  0.00    +0.143 A 
ATOM      9  O   LIG A   1      -7.501  -3.960 129.074  0.00  0.00    -0.455 OA
ATOM     10  C   LIG A   1      -7.898  -3.255 127.965  0.00  0.00    +0.140 A 
ATOM     11  C   LIG A   1      -9.083  -3.660 127.357  0.00  0.00    +0.050 A 
ATOM     12  C   LIG A   1      -9.546  -2.989 126.222  0.00  0.00    +0.049 A 
ATOM     13  C   LIG A   1      -8.834  -1.910 125.686  0.00  0.00    +0.121 A 
ATOM     14  C   LIG A   1      -7.649  -1.503 126.296  0.00  0.00    +0.061 A 
ATOM     15  C   LIG A   1      -7.189  -2.180 127.433  0.00  0.00    +0.068 A 
ENDROOT
BRANCH   4  16
ATOM     16  O   LIG A   1      -3.519  -1.205 129.612  0.00  0.00    -0.506 OA
ATOM     17  H   LIG A   1      -3.100  -0.855 130.432  0.00  0.00    +0.292 HD
ENDBRANCH   4  16
BRANCH  13  18
ATOM     18  O   LIG A   1      -9.401  -1.348 124.576  0.00  0.00    -0.495 OA
ATOM     19  C   LIG A   1      -8.759  -1.593 123.330  0.00  0.00    +0.277 C 
ENDBRANCH  13  18
TORSDOF 2
ENDMDL
MODEL 9
REMARK VINA RESULT:      -6.0      9.505     10.394
REMARK  Name = NuBBE_1713
REMARK  3 active torsions:
REMARK  status: ('A' for Active; 'I' for Inactive)
REMARK    1  A    between atoms: C_4  and  O_5
REMARK    2  A    between atoms: C_14  and  O_15
REMARK    3  A    between atoms: O_15  and  C_16
REMARK                            x       y       z     vdW  Elec       q    Type
REMARK                         _______ _______ _______ _____ _____    ______ ____
ROOT
ATOM      1  O   LIG A   1      -6.516  -0.455 126.817  0.00  0.00    -0.286 OA
ATOM      2  C   LIG A   1      -6.956  -0.256 125.689  0.00  0.00    +0.204 A 
ATOM      3  C   LIG A   1      -7.762  -1.276 125.008  0.00  0.00    +0.106 A 
ATOM      4  C   LIG A   1      -8.055  -2.503 125.612  0.00  0.00    +0.131 A 
ATOM      5  C   LIG A   1      -8.821  -3.449 124.938  0.00  0.00    +0.046 A 
ATOM      6  C   LIG A   1      -9.298  -3.171 123.656  0.00  0.00    +0.007 A 
ATOM      7  C   LIG A   1      -9.007  -1.946 123.052  0.00  0.00    +0.047 A 
ATOM      8  C   LIG A   1      -8.237  -0.996 123.728  0.00  0.00    +0.143 A 
ATOM      9  O   LIG A   1      -7.998   0.182 123.062  0.00  0.00    -0.455 OA
ATOM     10  C   LIG A   1      -7.243   1.141 123.688  0.00  0.00    +0.140 A 
ATOM     11  C   LIG A   1      -7.018   2.320 122.982  0.00  0.00    +0.050 A 
ATOM     12  C   LIG A   1      -6.257   3.340 123.557  0.00  0.00    +0.049 A 
ATOM     13  C   LIG A   1      -5.713   3.196 124.839  0.00  0.00    +0.121 A 
ATOM     14  C   LIG A   1      -5.940   2.016 125.547  0.00  0.00    +0.061 A 
ATOM     15  C   LIG A   1      -6.704   0.996 124.965  0.00  0.00    +0.068 A 
ENDROOT
BRANCH   4  16
ATOM     16  O   LIG A   1      -7.619  -2.839 126.866  0.00  0.00    -0.506 OA
ATOM     17  H   LIG A   1      -8.016  -2.201 127.503  0.00  0.00    +0.292 HD
ENDBRANCH   4  16
BRANCH  13  18
ATOM     18  O   LIG A   1      -4.991   4.270 125.276  0.00  0.00    -0.495 OA
ATOM     19  C   LIG A   1      -4.048   4.032 126.315  0.00  0.00    +0.277 C 
ENDBRANCH  13  18
TORSDOF 2
ENDMDL
