MODEL 1
REMARK VINA RESULT:      -9.2      0.000      0.000
REMARK  Name = NuBBE_1521
REMARK  19 active torsions:
REMARK  status: ('A' for Active; 'I' for Inactive)
REMARK    1  A    between atoms: C_1  and  C_2
REMARK    2  A    between atoms: C_6  and  C_10
REMARK    3  A    between atoms: C_12  and  O_14
REMARK    4  A    between atoms: O_14  and  C_15
REMARK    5  A    between atoms: C_17  and  C_20
REMARK    6  A    between atoms: C_20  and  C_22
REMARK    7  A    between atoms: C_20  and  O_26
REMARK    8  A    between atoms: C_22  and  C_23
REMARK    9  A    between atoms: C_22  and  C_24
REMARK   10  A    between atoms: C_22  and  O_25
REMARK   11  A    between atoms: C_31  and  C_32
REMARK   12  A    between atoms: C_36  and  O_38
REMARK   13  A    between atoms: C_39  and  C_40
REMARK   14  A    between atoms: C_39  and  C_41
REMARK   15  A    between atoms: C_42  and  O_46
REMARK   16  A    between atoms: O_46  and  C_47
REMARK   17  A    between atoms: C_47  and  C_49
REMARK   18  A    between atoms: C_50  and  N_51
REMARK   19  A    between atoms: N_51  and  C_52
REMARK                            x       y       z     vdW  Elec       q    Type
REMARK                         _______ _______ _______ _____ _____    ______ ____
ROOT
ATOM      1  C   LIG A   1      -7.408  -0.623 130.969  0.00  0.00    +0.014 C 
ATOM      2  C   LIG A   1      -6.281  -1.404 130.233  0.00  0.00    +0.003 C 
ATOM      3  C   LIG A   1      -6.437  -1.171 128.735  0.00  0.00    -0.015 C 
ATOM      4  C   LIG A   1      -7.294  -2.076 127.896  0.00  0.00    -0.019 C 
ATOM      5  C   LIG A   1      -5.784  -2.173 127.825  0.00  0.00    +0.016 C 
ATOM      6  C   LIG A   1      -8.055  -1.218 126.886  0.00  0.00    +0.004 C 
ATOM      7  C   LIG A   1      -7.961   0.202 127.480  0.00  0.00    +0.005 C 
ATOM      8  C   LIG A   1      -6.627   0.250 128.226  0.00  0.00    +0.008 C 
ATOM      9  C   LIG A   1      -8.134  -3.052 128.697  0.00  0.00    +0.008 C 
ATOM     10  C   LIG A   1      -7.401  -3.768 129.841  0.00  0.00    +0.005 C 
ATOM     11  C   LIG A   1      -6.293  -2.952 130.577  0.00  0.00    +0.004 C 
ATOM     12  C   LIG A   1      -6.112  -3.242 132.119  0.00  0.00    -0.025 C 
ATOM     13  C   LIG A   1      -7.443  -2.964 132.847  0.00  0.00    +0.012 C 
ATOM     14  C   LIG A   1      -4.829  -2.473 132.632  0.00  0.00    +0.007 C 
ATOM     15  C   LIG A   1      -4.639  -1.023 132.120  0.00  0.00    +0.036 C 
ATOM     16  C   LIG A   1      -4.895  -0.828 130.641  0.00  0.00    +0.122 C 
ATOM     17  C   LIG A   1      -4.519  -2.598 134.173  0.00  0.00    +0.006 C 
ATOM     18  C   LIG A   1      -4.932  -1.299 134.915  0.00  0.00    +0.015 C 
ATOM     19  C   LIG A   1      -2.976  -2.685 134.335  0.00  0.00    +0.015 C 
ATOM     20  C   LIG A   1      -5.122  -3.890 134.829  0.00  0.00    +0.183 C 
ATOM     21  C   LIG A   1      -5.454  -5.059 133.852  0.00  0.00    +0.046 C 
ATOM     22  C   LIG A   1      -5.754  -4.730 132.373  0.00  0.00    +0.011 C 
ENDROOT
BRANCH   6  23
ATOM     23  C   LIG A   1      -7.639  -1.315 125.393  0.00  0.00    +0.051 C 
ATOM     24  C   LIG A   1      -8.636  -1.855 124.365  0.00  0.00    +0.254 C 
ATOM     25  O   LIG A   1      -9.215  -0.715 123.715  0.00  0.00    -0.345 OA
ATOM     26  C   LIG A   1      -8.247   0.339 123.706  0.00  0.00    +0.153 C 
ATOM     27  C   LIG A   1      -7.261   0.051 124.830  0.00  0.00    +0.043 C 
BRANCH  24  28
ATOM     28  O   LIG A   1      -7.946  -2.669 123.407  0.00  0.00    -0.354 OA
ATOM     29  C   LIG A   1      -6.965  -3.498 124.025  0.00  0.00    +0.197 C 
ENDBRANCH  24  28
BRANCH  26  30
ATOM     30  C   LIG A   1      -8.862   1.764 123.748  0.00  0.00    +0.174 C 
BRANCH  30  31
ATOM     31  C   LIG A   1      -8.115   2.848 122.907  0.00  0.00    +0.089 C 
ATOM     32  C   LIG A   1      -6.671   2.433 122.618  0.00  0.00    +0.044 C 
ATOM     33  C   LIG A   1      -8.823   3.227 121.604  0.00  0.00    +0.044 C 
BRANCH  31  34
ATOM     34  O   LIG A   1      -8.075   4.051 123.707  0.00  0.00    -0.387 OA
ATOM     35  H   LIG A   1      -8.051   4.814 123.102  0.00  0.00    +0.210 HD
ENDBRANCH  31  34
ENDBRANCH  30  31
BRANCH  30  36
ATOM     36  O   LIG A   1     -10.256   1.731 123.406  0.00  0.00    -0.386 OA
ATOM     37  H   LIG A   1     -10.750   1.531 124.221  0.00  0.00    +0.210 HD
ENDBRANCH  30  36
ENDBRANCH  26  30
ENDBRANCH   6  23
BRANCH  16  38
ATOM     38  O   LIG A   1      -3.795  -1.382 129.909  0.00  0.00    -0.391 OA
ATOM     39  H   LIG A   1      -3.116  -0.703 129.778  0.00  0.00    +0.210 HD
ENDBRANCH  16  38
BRANCH  20  40
ATOM     40  O   LIG A   1      -6.356  -3.587 135.554  0.00  0.00    -0.457 OA
BRANCH  40  41
ATOM     41  C   LIG A   1      -6.503  -4.066 136.837  0.00  0.00    +0.341 C 
ATOM     42  O   LIG A   1      -5.857  -4.921 137.395  0.00  0.00    -0.245 OA
BRANCH  41  43
ATOM     43  C   LIG A   1      -7.630  -3.317 137.465  0.00  0.00    +0.080 A 
ATOM     44  C   LIG A   1      -8.974  -3.611 137.139  0.00  0.00    +0.041 A 
ATOM     45  C   LIG A   1      -9.958  -2.801 137.735  0.00  0.00    +0.024 A 
ATOM     46  C   LIG A   1      -9.633  -1.794 138.654  0.00  0.00    +0.002 A 
ATOM     47  C   LIG A   1      -8.312  -1.565 139.007  0.00  0.00    +0.001 A 
ATOM     48  C   LIG A   1      -7.319  -2.332 138.421  0.00  0.00    +0.017 A 
BRANCH  44  49
ATOM     49  N   LIG A   1      -9.310  -4.552 136.147  0.00  0.00    -0.346 N 
ATOM     50  C   LIG A   1      -9.975  -5.785 136.543  0.00  0.00    +0.125 C 
ATOM     51  H   LIG A   1      -8.518  -4.725 135.516  0.00  0.00    +0.146 HD
ENDBRANCH  44  49
ENDBRANCH  41  43
ENDBRANCH  40  41
ENDBRANCH  20  40
TORSDOF 11
ENDMDL
MODEL 2
REMARK VINA RESULT:      -9.2      0.878      1.660
REMARK  Name = NuBBE_1521
REMARK  19 active torsions:
REMARK  status: ('A' for Active; 'I' for Inactive)
REMARK    1  A    between atoms: C_1  and  C_2
REMARK    2  A    between atoms: C_6  and  C_10
REMARK    3  A    between atoms: C_12  and  O_14
REMARK    4  A    between atoms: O_14  and  C_15
REMARK    5  A    between atoms: C_17  and  C_20
REMARK    6  A    between atoms: C_20  and  C_22
REMARK    7  A    between atoms: C_20  and  O_26
REMARK    8  A    between atoms: C_22  and  C_23
REMARK    9  A    between atoms: C_22  and  C_24
REMARK   10  A    between atoms: C_22  and  O_25
REMARK   11  A    between atoms: C_31  and  C_32
REMARK   12  A    between atoms: C_36  and  O_38
REMARK   13  A    between atoms: C_39  and  C_40
REMARK   14  A    between atoms: C_39  and  C_41
REMARK   15  A    between atoms: C_42  and  O_46
REMARK   16  A    between atoms: O_46  and  C_47
REMARK   17  A    between atoms: C_47  and  C_49
REMARK   18  A    between atoms: C_50  and  N_51
REMARK   19  A    between atoms: N_51  and  C_52
REMARK                            x       y       z     vdW  Elec       q    Type
REMARK                         _______ _______ _______ _____ _____    ______ ____
ROOT
ATOM      1  C   LIG A   1      -7.027  -1.011 131.204  0.00  0.00    +0.014 C 
ATOM      2  C   LIG A   1      -5.921  -1.679 130.336  0.00  0.00    +0.003 C 
ATOM      3  C   LIG A   1      -6.213  -1.373 128.872  0.00  0.00    -0.015 C 
ATOM      4  C   LIG A   1      -7.084  -2.281 128.049  0.00  0.00    -0.019 C 
ATOM      5  C   LIG A   1      -5.581  -2.280 127.854  0.00  0.00    +0.016 C 
ATOM      6  C   LIG A   1      -7.974  -1.416 127.157  0.00  0.00    +0.004 C 
ATOM      7  C   LIG A   1      -7.912  -0.029 127.826  0.00  0.00    +0.005 C 
ATOM      8  C   LIG A   1      -6.525   0.060 128.465  0.00  0.00    +0.008 C 
ATOM      9  C   LIG A   1      -7.799  -3.350 128.854  0.00  0.00    +0.008 C 
ATOM     10  C   LIG A   1      -6.934  -4.082 129.891  0.00  0.00    +0.005 C 
ATOM     11  C   LIG A   1      -5.818  -3.241 130.586  0.00  0.00    +0.004 C 
ATOM     12  C   LIG A   1      -5.494  -3.605 132.088  0.00  0.00    -0.025 C 
ATOM     13  C   LIG A   1      -6.774  -3.450 132.934  0.00  0.00    +0.012 C 
ATOM     14  C   LIG A   1      -4.219  -2.788 132.543  0.00  0.00    +0.007 C 
ATOM     15  C   LIG A   1      -4.154  -1.302 132.107  0.00  0.00    +0.036 C 
ATOM     16  C   LIG A   1      -4.542  -1.042 130.667  0.00  0.00    +0.122 C 
ATOM     17  C   LIG A   1      -3.777  -2.979 134.045  0.00  0.00    +0.006 C 
ATOM     18  C   LIG A   1      -4.200  -1.751 134.895  0.00  0.00    +0.015 C 
ATOM     19  C   LIG A   1      -2.223  -2.980 134.080  0.00  0.00    +0.015 C 
ATOM     20  C   LIG A   1      -4.248  -4.340 134.667  0.00  0.00    +0.183 C 
ATOM     21  C   LIG A   1      -4.593  -5.472 133.651  0.00  0.00    +0.046 C 
ATOM     22  C   LIG A   1      -5.032  -5.080 132.222  0.00  0.00    +0.011 C 
ENDROOT
BRANCH   6  23
ATOM     23  C   LIG A   1      -7.677  -1.404 125.633  0.00  0.00    +0.051 C 
ATOM     24  C   LIG A   1      -8.786  -1.776 124.644  0.00  0.00    +0.254 C 
ATOM     25  O   LIG A   1      -9.320  -0.543 124.144  0.00  0.00    -0.345 OA
ATOM     26  C   LIG A   1      -8.278   0.437 124.149  0.00  0.00    +0.153 C 
ATOM     27  C   LIG A   1      -7.237  -0.022 125.161  0.00  0.00    +0.043 C 
BRANCH  24  28
ATOM     28  O   LIG A   1      -8.233  -2.545 123.568  0.00  0.00    -0.354 OA
ATOM     29  C   LIG A   1      -7.218  -3.438 124.021  0.00  0.00    +0.197 C 
ENDBRANCH  24  28
BRANCH  26  30
ATOM     30  C   LIG A   1      -8.776   1.892 124.363  0.00  0.00    +0.174 C 
BRANCH  30  31
ATOM     31  C   LIG A   1      -8.093   2.978 123.472  0.00  0.00    +0.089 C 
ATOM     32  C   LIG A   1      -6.583   2.753 123.375  0.00  0.00    +0.044 C 
ATOM     33  C   LIG A   1      -8.696   3.107 122.071  0.00  0.00    +0.044 C 
BRANCH  31  34
ATOM     34  O   LIG A   1      -8.308   4.253 124.120  0.00  0.00    -0.387 OA
ATOM     35  H   LIG A   1      -7.792   4.259 124.947  0.00  0.00    +0.210 HD
ENDBRANCH  31  34
ENDBRANCH  30  31
BRANCH  30  36
ATOM     36  O   LIG A   1     -10.205   1.966 124.245  0.00  0.00    -0.386 OA
ATOM     37  H   LIG A   1     -10.410   2.750 123.705  0.00  0.00    +0.210 HD
ENDBRANCH  30  36
ENDBRANCH  26  30
ENDBRANCH   6  23
BRANCH  16  38
ATOM     38  O   LIG A   1      -3.477  -1.486 129.818  0.00  0.00    -0.391 OA
ATOM     39  H   LIG A   1      -2.837  -0.768 129.696  0.00  0.00    +0.210 HD
ENDBRANCH  16  38
BRANCH  20  40
ATOM     40  O   LIG A   1      -5.434  -4.155 135.505  0.00  0.00    -0.457 OA
BRANCH  40  41
ATOM     41  C   LIG A   1      -5.740  -5.118 136.439  0.00  0.00    +0.341 C 
ATOM     42  O   LIG A   1      -4.982  -5.774 137.114  0.00  0.00    -0.245 OA
BRANCH  41  43
ATOM     43  C   LIG A   1      -7.227  -5.223 136.500  0.00  0.00    +0.080 A 
ATOM     44  C   LIG A   1      -8.030  -4.087 136.752  0.00  0.00    +0.041 A 
ATOM     45  C   LIG A   1      -9.416  -4.305 136.857  0.00  0.00    +0.024 A 
ATOM     46  C   LIG A   1      -9.983  -5.571 136.661  0.00  0.00    +0.002 A 
ATOM     47  C   LIG A   1      -9.183  -6.660 136.353  0.00  0.00    +0.001 A 
ATOM     48  C   LIG A   1      -7.812  -6.481 136.264  0.00  0.00    +0.017 A 
BRANCH  44  49
ATOM     49  N   LIG A   1      -7.468  -2.829 137.045  0.00  0.00    -0.346 N 
ATOM     50  C   LIG A   1      -7.539  -2.329 138.411  0.00  0.00    +0.125 C 
ATOM     51  H   LIG A   1      -7.762  -2.123 136.359  0.00  0.00    +0.146 HD
ENDBRANCH  44  49
ENDBRANCH  41  43
ENDBRANCH  40  41
ENDBRANCH  20  40
TORSDOF 11
ENDMDL
MODEL 3
REMARK VINA RESULT:      -9.0      7.728     11.058
REMARK  Name = NuBBE_1521
REMARK  19 active torsions:
REMARK  status: ('A' for Active; 'I' for Inactive)
REMARK    1  A    between atoms: C_1  and  C_2
REMARK    2  A    between atoms: C_6  and  C_10
REMARK    3  A    between atoms: C_12  and  O_14
REMARK    4  A    between atoms: O_14  and  C_15
REMARK    5  A    between atoms: C_17  and  C_20
REMARK    6  A    between atoms: C_20  and  C_22
REMARK    7  A    between atoms: C_20  and  O_26
REMARK    8  A    between atoms: C_22  and  C_23
REMARK    9  A    between atoms: C_22  and  C_24
REMARK   10  A    between atoms: C_22  and  O_25
REMARK   11  A    between atoms: C_31  and  C_32
REMARK   12  A    between atoms: C_36  and  O_38
REMARK   13  A    between atoms: C_39  and  C_40
REMARK   14  A    between atoms: C_39  and  C_41
REMARK   15  A    between atoms: C_42  and  O_46
REMARK   16  A    between atoms: O_46  and  C_47
REMARK   17  A    between atoms: C_47  and  C_49
REMARK   18  A    between atoms: C_50  and  N_51
REMARK   19  A    between atoms: N_51  and  C_52
REMARK                            x       y       z     vdW  Elec       q    Type
REMARK                         _______ _______ _______ _____ _____    ______ ____
ROOT
ATOM      1  C   LIG A   1      -4.315   4.420 130.230  0.00  0.00    +0.014 C 
ATOM      2  C   LIG A   1      -4.989   4.556 131.626  0.00  0.00    +0.003 C 
ATOM      3  C   LIG A   1      -4.536   5.870 132.250  0.00  0.00    -0.015 C 
ATOM      4  C   LIG A   1      -3.297   5.938 133.098  0.00  0.00    -0.019 C 
ATOM      5  C   LIG A   1      -4.668   5.989 133.742  0.00  0.00    +0.016 C 
ATOM      6  C   LIG A   1      -2.558   7.234 132.767  0.00  0.00    +0.004 C 
ATOM      7  C   LIG A   1      -3.154   7.649 131.407  0.00  0.00    +0.005 C 
ATOM      8  C   LIG A   1      -4.598   7.142 131.417  0.00  0.00    +0.008 C 
ATOM      9  C   LIG A   1      -2.458   4.676 133.072  0.00  0.00    +0.008 C 
ATOM     10  C   LIG A   1      -3.240   3.361 133.211  0.00  0.00    +0.005 C 
ATOM     11  C   LIG A   1      -4.666   3.328 132.576  0.00  0.00    +0.004 C 
ATOM     12  C   LIG A   1      -5.138   1.945 131.978  0.00  0.00    -0.025 C 
ATOM     13  C   LIG A   1      -4.143   1.497 130.888  0.00  0.00    +0.012 C 
ATOM     14  C   LIG A   1      -6.661   2.064 131.567  0.00  0.00    +0.007 C 
ATOM     15  C   LIG A   1      -7.085   3.370 130.847  0.00  0.00    +0.036 C 
ATOM     16  C   LIG A   1      -6.532   4.642 131.454  0.00  0.00    +0.122 C 
ATOM     17  C   LIG A   1      -7.295   0.789 130.892  0.00  0.00    +0.006 C 
ATOM     18  C   LIG A   1      -7.424   0.994 129.359  0.00  0.00    +0.015 C 
ATOM     19  C   LIG A   1      -8.756   0.663 131.408  0.00  0.00    +0.015 C 
ATOM     20  C   LIG A   1      -6.562  -0.548 131.267  0.00  0.00    +0.183 C 
ATOM     21  C   LIG A   1      -5.713  -0.515 132.574  0.00  0.00    +0.046 C 
ATOM     22  C   LIG A   1      -5.155   0.838 133.066  0.00  0.00    +0.011 C 
ENDROOT
BRANCH   6  23
ATOM     23  C   LIG A   1      -2.557   8.361 133.835  0.00  0.00    +0.051 C 
ATOM     24  C   LIG A   1      -1.517   8.336 134.958  0.00  0.00    +0.254 C 
ATOM     25  O   LIG A   1      -0.477   9.247 134.576  0.00  0.00    -0.345 OA
ATOM     26  C   LIG A   1      -1.055  10.283 133.777  0.00  0.00    +0.153 C 
ATOM     27  C   LIG A   1      -2.352   9.732 133.199  0.00  0.00    +0.043 C 
BRANCH  24  28
ATOM     28  O   LIG A   1      -2.122   8.768 136.184  0.00  0.00    -0.354 OA
ATOM     29  C   LIG A   1      -1.183   8.803 137.256  0.00  0.00    +0.197 C 
ENDBRANCH  24  28
BRANCH  26  30
ATOM     30  C   LIG A   1      -0.090  10.880 132.718  0.00  0.00    +0.174 C 
BRANCH  30  31
ATOM     31  C   LIG A   1      -0.367  12.363 132.309  0.00  0.00    +0.089 C 
ATOM     32  C   LIG A   1      -0.659  13.234 133.533  0.00  0.00    +0.044 C 
ATOM     33  C   LIG A   1       0.740  12.997 131.465  0.00  0.00    +0.044 C 
BRANCH  31  34
ATOM     34  O   LIG A   1      -1.552  12.358 131.481  0.00  0.00    -0.387 OA
ATOM     35  H   LIG A   1      -1.270  12.251 130.555  0.00  0.00    +0.210 HD
ENDBRANCH  31  34
ENDBRANCH  30  31
BRANCH  30  36
ATOM     36  O   LIG A   1       1.279  10.715 133.121  0.00  0.00    -0.386 OA
ATOM     37  H   LIG A   1       1.785  10.462 132.328  0.00  0.00    +0.210 HD
ENDBRANCH  30  36
ENDBRANCH  26  30
ENDBRANCH   6  23
BRANCH  16  38
ATOM     38  O   LIG A   1      -7.240   4.914 132.670  0.00  0.00    -0.391 OA
ATOM     39  H   LIG A   1      -7.197   4.140 133.252  0.00  0.00    +0.210 HD
ENDBRANCH  16  38
BRANCH  20  40
ATOM     40  O   LIG A   1      -5.663  -0.974 130.194  0.00  0.00    -0.457 OA
BRANCH  40  41
ATOM     41  C   LIG A   1      -5.563  -2.318 129.911  0.00  0.00    +0.341 C 
ATOM     42  O   LIG A   1      -4.836  -3.138 130.420  0.00  0.00    -0.245 OA
BRANCH  41  43
ATOM     43  C   LIG A   1      -6.550  -2.621 128.835  0.00  0.00    +0.080 A 
ATOM     44  C   LIG A   1      -6.337  -2.191 127.505  0.00  0.00    +0.041 A 
ATOM     45  C   LIG A   1      -7.360  -2.469 126.580  0.00  0.00    +0.024 A 
ATOM     46  C   LIG A   1      -8.507  -3.189 126.939  0.00  0.00    +0.002 A 
ATOM     47  C   LIG A   1      -8.667  -3.656 128.234  0.00  0.00    +0.001 A 
ATOM     48  C   LIG A   1      -7.686  -3.380 129.173  0.00  0.00    +0.017 A 
BRANCH  44  49
ATOM     49  N   LIG A   1      -5.238  -1.384 127.151  0.00  0.00    -0.346 N 
ATOM     50  C   LIG A   1      -5.468  -0.201 126.334  0.00  0.00    +0.125 C 
ATOM     51  H   LIG A   1      -4.459  -1.953 126.798  0.00  0.00    +0.146 HD
ENDBRANCH  44  49
ENDBRANCH  41  43
ENDBRANCH  40  41
ENDBRANCH  20  40
TORSDOF 11
ENDMDL
MODEL 4
REMARK VINA RESULT:      -8.7      2.707      4.715
REMARK  Name = NuBBE_1521
REMARK  19 active torsions:
REMARK  status: ('A' for Active; 'I' for Inactive)
REMARK    1  A    between atoms: C_1  and  C_2
REMARK    2  A    between atoms: C_6  and  C_10
REMARK    3  A    between atoms: C_12  and  O_14
REMARK    4  A    between atoms: O_14  and  C_15
REMARK    5  A    between atoms: C_17  and  C_20
REMARK    6  A    between atoms: C_20  and  C_22
REMARK    7  A    between atoms: C_20  and  O_26
REMARK    8  A    between atoms: C_22  and  C_23
REMARK    9  A    between atoms: C_22  and  C_24
REMARK   10  A    between atoms: C_22  and  O_25
REMARK   11  A    between atoms: C_31  and  C_32
REMARK   12  A    between atoms: C_36  and  O_38
REMARK   13  A    between atoms: C_39  and  C_40
REMARK   14  A    between atoms: C_39  and  C_41
REMARK   15  A    between atoms: C_42  and  O_46
REMARK   16  A    between atoms: O_46  and  C_47
REMARK   17  A    between atoms: C_47  and  C_49
REMARK   18  A    between atoms: C_50  and  N_51
REMARK   19  A    between atoms: N_51  and  C_52
REMARK                            x       y       z     vdW  Elec       q    Type
REMARK                         _______ _______ _______ _____ _____    ______ ____
ROOT
ATOM      1  C   LIG A   1      -4.701  -2.735 128.556  0.00  0.00    +0.014 C 
ATOM      2  C   LIG A   1      -6.130  -2.152 128.757  0.00  0.00    +0.003 C 
ATOM      3  C   LIG A   1      -6.648  -1.678 127.405  0.00  0.00    -0.015 C 
ATOM      4  C   LIG A   1      -6.394  -0.277 126.925  0.00  0.00    -0.019 C 
ATOM      5  C   LIG A   1      -7.768  -0.676 127.425  0.00  0.00    +0.016 C 
ATOM      6  C   LIG A   1      -6.077  -0.329 125.431  0.00  0.00    +0.004 C 
ATOM      7  C   LIG A   1      -5.705  -1.807 125.196  0.00  0.00    +0.005 C 
ATOM      8  C   LIG A   1      -6.532  -2.606 126.204  0.00  0.00    +0.008 C 
ATOM      9  C   LIG A   1      -5.414   0.503 127.780  0.00  0.00    +0.008 C 
ATOM     10  C   LIG A   1      -5.627   0.389 129.297  0.00  0.00    +0.005 C 
ATOM     11  C   LIG A   1      -6.159  -0.979 129.825  0.00  0.00    +0.004 C 
ATOM     12  C   LIG A   1      -5.650  -1.431 131.250  0.00  0.00    -0.025 C 
ATOM     13  C   LIG A   1      -4.110  -1.517 131.235  0.00  0.00    +0.012 C 
ATOM     14  C   LIG A   1      -6.446  -2.727 131.685  0.00  0.00    +0.007 C 
ATOM     15  C   LIG A   1      -6.661  -3.807 130.596  0.00  0.00    +0.036 C 
ATOM     16  C   LIG A   1      -7.087  -3.275 129.244  0.00  0.00    +0.122 C 
ATOM     17  C   LIG A   1      -6.028  -3.361 133.067  0.00  0.00    +0.006 C 
ATOM     18  C   LIG A   1      -5.159  -4.627 132.842  0.00  0.00    +0.015 C 
ATOM     19  C   LIG A   1      -7.323  -3.876 133.756  0.00  0.00    +0.015 C 
ATOM     20  C   LIG A   1      -5.364  -2.335 134.051  0.00  0.00    +0.183 C 
ATOM     21  C   LIG A   1      -5.669  -0.831 133.775  0.00  0.00    +0.046 C 
ATOM     22  C   LIG A   1      -6.040  -0.398 132.340  0.00  0.00    +0.011 C 
ENDROOT
BRANCH   6  23
ATOM     23  C   LIG A   1      -7.139   0.228 124.445  0.00  0.00    +0.051 C 
ATOM     24  C   LIG A   1      -8.606   0.297 124.876  0.00  0.00    +0.254 C 
ATOM     25  O   LIG A   1      -8.853   1.651 125.279  0.00  0.00    -0.345 OA
ATOM     26  C   LIG A   1      -7.996   2.511 124.523  0.00  0.00    +0.153 C 
ATOM     27  C   LIG A   1      -6.825   1.664 124.041  0.00  0.00    +0.043 C 
BRANCH  24  28
ATOM     28  O   LIG A   1      -9.449  -0.047 123.768  0.00  0.00    -0.354 OA
ATOM     29  C   LIG A   1      -9.083  -1.298 123.191  0.00  0.00    +0.197 C 
ENDBRANCH  24  28
BRANCH  26  30
ATOM     30  C   LIG A   1      -7.579   3.807 125.269  0.00  0.00    +0.174 C 
BRANCH  30  31
ATOM     31  C   LIG A   1      -6.242   4.461 124.794  0.00  0.00    +0.089 C 
ATOM     32  C   LIG A   1      -5.063   4.014 125.661  0.00  0.00    +0.044 C 
ATOM     33  C   LIG A   1      -5.924   4.231 123.315  0.00  0.00    +0.044 C 
BRANCH  31  34
ATOM     34  O   LIG A   1      -6.390   5.890 124.956  0.00  0.00    -0.387 OA
ATOM     35  H   LIG A   1      -7.003   6.208 124.269  0.00  0.00    +0.210 HD
ENDBRANCH  31  34
ENDBRANCH  30  31
BRANCH  30  36
ATOM     36  O   LIG A   1      -8.644   4.769 125.258  0.00  0.00    -0.386 OA
ATOM     37  H   LIG A   1      -8.760   5.083 126.173  0.00  0.00    +0.210 HD
ENDBRANCH  30  36
ENDBRANCH  26  30
ENDBRANCH   6  23
BRANCH  16  38
ATOM     38  O   LIG A   1      -8.462  -2.876 129.322  0.00  0.00    -0.391 OA
ATOM     39  H   LIG A   1      -8.915  -3.105 128.496  0.00  0.00    +0.210 HD
ENDBRANCH  16  38
BRANCH  20  40
ATOM     40  O   LIG A   1      -3.907  -2.473 134.053  0.00  0.00    -0.457 OA
BRANCH  40  41
ATOM     41  C   LIG A   1      -3.254  -2.576 135.261  0.00  0.00    +0.341 C 
ATOM     42  O   LIG A   1      -3.736  -2.651 136.367  0.00  0.00    -0.245 OA
BRANCH  41  43
ATOM     43  C   LIG A   1      -1.791  -2.595 134.976  0.00  0.00    +0.080 A 
ATOM     44  C   LIG A   1      -1.000  -3.725 135.284  0.00  0.00    +0.041 A 
ATOM     45  C   LIG A   1       0.381  -3.615 135.038  0.00  0.00    +0.024 A 
ATOM     46  C   LIG A   1       0.941  -2.467 134.461  0.00  0.00    +0.002 A 
ATOM     47  C   LIG A   1       0.138  -1.394 134.109  0.00  0.00    +0.001 A 
ATOM     48  C   LIG A   1      -1.223  -1.465 134.358  0.00  0.00    +0.017 A 
BRANCH  44  49
ATOM     49  N   LIG A   1      -1.531  -4.845 135.952  0.00  0.00    -0.346 N 
ATOM     50  C   LIG A   1      -1.983  -5.985 135.165  0.00  0.00    +0.125 C 
ATOM     51  H   LIG A   1      -2.224  -4.563 136.656  0.00  0.00    +0.146 HD
ENDBRANCH  44  49
ENDBRANCH  41  43
ENDBRANCH  40  41
ENDBRANCH  20  40
TORSDOF 11
ENDMDL
MODEL 5
REMARK VINA RESULT:      -8.7      5.571      8.050
REMARK  Name = NuBBE_1521
REMARK  19 active torsions:
REMARK  status: ('A' for Active; 'I' for Inactive)
REMARK    1  A    between atoms: C_1  and  C_2
REMARK    2  A    between atoms: C_6  and  C_10
REMARK    3  A    between atoms: C_12  and  O_14
REMARK    4  A    between atoms: O_14  and  C_15
REMARK    5  A    between atoms: C_17  and  C_20
REMARK    6  A    between atoms: C_20  and  C_22
REMARK    7  A    between atoms: C_20  and  O_26
REMARK    8  A    between atoms: C_22  and  C_23
REMARK    9  A    between atoms: C_22  and  C_24
REMARK   10  A    between atoms: C_22  and  O_25
REMARK   11  A    between atoms: C_31  and  C_32
REMARK   12  A    between atoms: C_36  and  O_38
REMARK   13  A    between atoms: C_39  and  C_40
REMARK   14  A    between atoms: C_39  and  C_41
REMARK   15  A    between atoms: C_42  and  O_46
REMARK   16  A    between atoms: O_46  and  C_47
REMARK   17  A    between atoms: C_47  and  C_49
REMARK   18  A    between atoms: C_50  and  N_51
REMARK   19  A    between atoms: N_51  and  C_52
REMARK                            x       y       z     vdW  Elec       q    Type
REMARK                         _______ _______ _______ _____ _____    ______ ____
ROOT
ATOM      1  C   LIG A   1      -5.962   0.798 131.145  0.00  0.00    +0.014 C 
ATOM      2  C   LIG A   1      -7.202   1.659 130.769  0.00  0.00    +0.003 C 
ATOM      3  C   LIG A   1      -7.889   1.011 129.573  0.00  0.00    -0.015 C 
ATOM      4  C   LIG A   1      -7.501   1.373 128.167  0.00  0.00    -0.019 C 
ATOM      5  C   LIG A   1      -8.796   1.890 128.758  0.00  0.00    +0.016 C 
ATOM      6  C   LIG A   1      -7.498   0.097 127.325  0.00  0.00    +0.004 C 
ATOM      7  C   LIG A   1      -7.437  -1.027 128.378  0.00  0.00    +0.005 C 
ATOM      8  C   LIG A   1      -8.172  -0.484 129.605  0.00  0.00    +0.008 C 
ATOM      9  C   LIG A   1      -6.253   2.229 128.070  0.00  0.00    +0.008 C 
ATOM     10  C   LIG A   1      -6.178   3.401 129.061  0.00  0.00    +0.005 C 
ATOM     11  C   LIG A   1      -6.821   3.168 130.464  0.00  0.00    +0.004 C 
ATOM     12  C   LIG A   1      -6.125   3.887 131.686  0.00  0.00    -0.025 C 
ATOM     13  C   LIG A   1      -4.656   3.426 131.775  0.00  0.00    +0.012 C 
ATOM     14  C   LIG A   1      -7.028   3.692 132.969  0.00  0.00    +0.007 C 
ATOM     15  C   LIG A   1      -7.635   2.282 133.183  0.00  0.00    +0.036 C 
ATOM     16  C   LIG A   1      -8.222   1.644 131.943  0.00  0.00    +0.122 C 
ATOM     17  C   LIG A   1      -6.460   4.296 134.311  0.00  0.00    +0.006 C 
ATOM     18  C   LIG A   1      -5.880   3.172 135.210  0.00  0.00    +0.015 C 
ATOM     19  C   LIG A   1      -7.662   4.875 135.110  0.00  0.00    +0.015 C 
ATOM     20  C   LIG A   1      -5.450   5.477 134.086  0.00  0.00    +0.183 C 
ATOM     21  C   LIG A   1      -5.543   6.201 132.708  0.00  0.00    +0.046 C 
ATOM     22  C   LIG A   1      -6.111   5.427 131.498  0.00  0.00    +0.011 C 
ENDROOT
BRANCH   6  23
ATOM     23  C   LIG A   1      -8.623  -0.076 126.269  0.00  0.00    +0.051 C 
ATOM     24  C   LIG A   1      -8.477   0.582 124.895  0.00  0.00    +0.254 C 
ATOM     25  O   LIG A   1      -8.025  -0.439 123.995  0.00  0.00    -0.345 OA
ATOM     26  C   LIG A   1      -8.535  -1.697 124.448  0.00  0.00    +0.153 C 
ATOM     27  C   LIG A   1      -8.848  -1.546 125.931  0.00  0.00    +0.043 C 
BRANCH  24  28
ATOM     28  O   LIG A   1      -9.748   1.088 124.466  0.00  0.00    -0.354 OA
ATOM     29  C   LIG A   1      -9.687   1.629 123.149  0.00  0.00    +0.197 C 
ENDBRANCH  24  28
BRANCH  26  30
ATOM     30  C   LIG A   1      -7.625  -2.909 124.110  0.00  0.00    +0.174 C 
BRANCH  30  31
ATOM     31  C   LIG A   1      -6.118  -2.575 123.865  0.00  0.00    +0.089 C 
ATOM     32  C   LIG A   1      -5.530  -1.768 125.024  0.00  0.00    +0.044 C 
ATOM     33  C   LIG A   1      -5.245  -3.799 123.580  0.00  0.00    +0.044 C 
BRANCH  31  34
ATOM     34  O   LIG A   1      -6.055  -1.751 122.679  0.00  0.00    -0.387 OA
ATOM     35  H   LIG A   1      -6.924  -1.792 122.239  0.00  0.00    +0.210 HD
ENDBRANCH  31  34
ENDBRANCH  30  31
BRANCH  30  36
ATOM     36  O   LIG A   1      -7.759  -3.942 125.099  0.00  0.00    -0.386 OA
ATOM     37  H   LIG A   1      -6.863  -4.168 125.404  0.00  0.00    +0.210 HD
ENDBRANCH  30  36
ENDBRANCH  26  30
ENDBRANCH   6  23
BRANCH  16  38
ATOM     38  O   LIG A   1      -9.466   2.290 131.642  0.00  0.00    -0.391 OA
ATOM     39  H   LIG A   1      -9.403   2.732 130.781  0.00  0.00    +0.210 HD
ENDBRANCH  16  38
BRANCH  20  40
ATOM     40  O   LIG A   1      -4.067   5.020 134.227  0.00  0.00    -0.457 OA
BRANCH  40  41
ATOM     41  C   LIG A   1      -3.237   5.686 135.101  0.00  0.00    +0.341 C 
ATOM     42  O   LIG A   1      -3.339   5.784 136.301  0.00  0.00    -0.245 OA
BRANCH  41  43
ATOM     43  C   LIG A   1      -2.133   6.287 134.298  0.00  0.00    +0.080 A 
ATOM     44  C   LIG A   1      -1.454   7.445 134.739  0.00  0.00    +0.041 A 
ATOM     45  C   LIG A   1      -0.475   7.970 133.874  0.00  0.00    +0.024 A 
ATOM     46  C   LIG A   1      -0.143   7.345 132.665  0.00  0.00    +0.002 A 
ATOM     47  C   LIG A   1      -0.779   6.174 132.281  0.00  0.00    +0.001 A 
ATOM     48  C   LIG A   1      -1.762   5.645 133.101  0.00  0.00    +0.017 A 
BRANCH  44  49
ATOM     49  N   LIG A   1      -1.842   8.137 135.902  0.00  0.00    -0.346 N 
ATOM     50  C   LIG A   1      -2.663   9.332 135.769  0.00  0.00    +0.125 C 
ATOM     51  H   LIG A   1      -1.041   8.286 136.529  0.00  0.00    +0.146 HD
ENDBRANCH  44  49
ENDBRANCH  41  43
ENDBRANCH  40  41
ENDBRANCH  20  40
TORSDOF 11
ENDMDL
MODEL 6
REMARK VINA RESULT:      -8.6      8.441     11.790
REMARK  Name = NuBBE_1521
REMARK  19 active torsions:
REMARK  status: ('A' for Active; 'I' for Inactive)
REMARK    1  A    between atoms: C_1  and  C_2
REMARK    2  A    between atoms: C_6  and  C_10
REMARK    3  A    between atoms: C_12  and  O_14
REMARK    4  A    between atoms: O_14  and  C_15
REMARK    5  A    between atoms: C_17  and  C_20
REMARK    6  A    between atoms: C_20  and  C_22
REMARK    7  A    between atoms: C_20  and  O_26
REMARK    8  A    between atoms: C_22  and  C_23
REMARK    9  A    between atoms: C_22  and  C_24
REMARK   10  A    between atoms: C_22  and  O_25
REMARK   11  A    between atoms: C_31  and  C_32
REMARK   12  A    between atoms: C_36  and  O_38
REMARK   13  A    between atoms: C_39  and  C_40
REMARK   14  A    between atoms: C_39  and  C_41
REMARK   15  A    between atoms: C_42  and  O_46
REMARK   16  A    between atoms: O_46  and  C_47
REMARK   17  A    between atoms: C_47  and  C_49
REMARK   18  A    between atoms: C_50  and  N_51
REMARK   19  A    between atoms: N_51  and  C_52
REMARK                            x       y       z     vdW  Elec       q    Type
REMARK                         _______ _______ _______ _____ _____    ______ ____
ROOT
ATOM      1  C   LIG A   1      -2.711   3.917 132.272  0.00  0.00    +0.014 C 
ATOM      2  C   LIG A   1      -3.291   5.022 131.342  0.00  0.00    +0.003 C 
ATOM      3  C   LIG A   1      -2.514   6.309 131.587  0.00  0.00    -0.015 C 
ATOM      4  C   LIG A   1      -2.950   7.290 132.639  0.00  0.00    -0.019 C 
ATOM      5  C   LIG A   1      -3.183   7.590 131.172  0.00  0.00    +0.016 C 
ATOM      6  C   LIG A   1      -1.704   7.826 133.343  0.00  0.00    +0.004 C 
ATOM      7  C   LIG A   1      -0.617   6.793 132.985  0.00  0.00    +0.005 C 
ATOM      8  C   LIG A   1      -0.993   6.262 131.600  0.00  0.00    +0.008 C 
ATOM      9  C   LIG A   1      -4.050   6.775 133.548  0.00  0.00    +0.008 C 
ATOM     10  C   LIG A   1      -5.210   6.061 132.839  0.00  0.00    +0.005 C 
ATOM     11  C   LIG A   1      -4.847   5.240 131.562  0.00  0.00    +0.004 C 
ATOM     12  C   LIG A   1      -5.696   3.935 131.298  0.00  0.00    -0.025 C 
ATOM     13  C   LIG A   1      -5.554   2.985 132.505  0.00  0.00    +0.012 C 
ATOM     14  C   LIG A   1      -5.315   3.362 129.874  0.00  0.00    +0.007 C 
ATOM     15  C   LIG A   1      -3.809   3.356 129.509  0.00  0.00    +0.036 C 
ATOM     16  C   LIG A   1      -3.062   4.627 129.856  0.00  0.00    +0.122 C 
ATOM     17  C   LIG A   1      -6.025   2.017 129.459  0.00  0.00    +0.006 C 
ATOM     18  C   LIG A   1      -5.047   0.820 129.605  0.00  0.00    +0.015 C 
ATOM     19  C   LIG A   1      -6.337   2.102 127.938  0.00  0.00    +0.015 C 
ATOM     20  C   LIG A   1      -7.391   1.779 130.193  0.00  0.00    +0.183 C 
ATOM     21  C   LIG A   1      -8.080   3.048 130.781  0.00  0.00    +0.046 C 
ATOM     22  C   LIG A   1      -7.204   4.266 131.150  0.00  0.00    +0.011 C 
ENDROOT
BRANCH   6  23
ATOM     23  C   LIG A   1      -1.297   9.300 133.073  0.00  0.00    +0.051 C 
ATOM     24  C   LIG A   1      -2.022  10.430 133.810  0.00  0.00    +0.254 C 
ATOM     25  O   LIG A   1      -1.177  10.817 134.902  0.00  0.00    -0.345 OA
ATOM     26  C   LIG A   1       0.183  10.586 134.525  0.00  0.00    +0.153 C 
ATOM     27  C   LIG A   1       0.169   9.545 133.413  0.00  0.00    +0.043 C 
BRANCH  24  28
ATOM     28  O   LIG A   1      -2.214  11.538 132.921  0.00  0.00    -0.354 OA
ATOM     29  C   LIG A   1      -2.533  12.735 133.626  0.00  0.00    +0.197 C 
ENDBRANCH  24  28
BRANCH  26  30
ATOM     30  C   LIG A   1       1.120  10.235 135.713  0.00  0.00    +0.174 C 
BRANCH  30  31
ATOM     31  C   LIG A   1       1.844  11.446 136.383  0.00  0.00    +0.089 C 
ATOM     32  C   LIG A   1       2.287  11.111 137.809  0.00  0.00    +0.044 C 
ATOM     33  C   LIG A   1       3.027  11.990 135.580  0.00  0.00    +0.044 C 
BRANCH  31  34
ATOM     34  O   LIG A   1       0.882  12.522 136.462  0.00  0.00    -0.387 OA
ATOM     35  H   LIG A   1       1.361  13.335 136.707  0.00  0.00    +0.210 HD
ENDBRANCH  31  34
ENDBRANCH  30  31
BRANCH  30  36
ATOM     36  O   LIG A   1       0.426   9.452 136.698  0.00  0.00    -0.386 OA
ATOM     37  H   LIG A   1       1.091   9.133 137.333  0.00  0.00    +0.210 HD
ENDBRANCH  30  36
ENDBRANCH  26  30
ENDBRANCH   6  23
BRANCH  16  38
ATOM     38  O   LIG A   1      -3.431   5.646 128.919  0.00  0.00    -0.391 OA
ATOM     39  H   LIG A   1      -2.645   5.949 128.441  0.00  0.00    +0.210 HD
ENDBRANCH  16  38
BRANCH  20  40
ATOM     40  O   LIG A   1      -7.236   0.835 131.302  0.00  0.00    -0.457 OA
BRANCH  40  41
ATOM     41  C   LIG A   1      -8.189  -0.144 131.474  0.00  0.00    +0.341 C 
ATOM     42  O   LIG A   1      -9.323  -0.023 131.871  0.00  0.00    -0.245 OA
BRANCH  41  43
ATOM     43  C   LIG A   1      -7.575  -1.439 131.060  0.00  0.00    +0.080 A 
ATOM     44  C   LIG A   1      -6.567  -2.052 131.838  0.00  0.00    +0.041 A 
ATOM     45  C   LIG A   1      -6.006  -3.236 131.325  0.00  0.00    +0.024 A 
ATOM     46  C   LIG A   1      -6.463  -3.816 130.134  0.00  0.00    +0.002 A 
ATOM     47  C   LIG A   1      -7.496  -3.231 129.418  0.00  0.00    +0.001 A 
ATOM     48  C   LIG A   1      -8.054  -2.053 129.888  0.00  0.00    +0.017 A 
BRANCH  44  49
ATOM     49  N   LIG A   1      -6.032  -1.433 132.985  0.00  0.00    -0.346 N 
ATOM     50  C   LIG A   1      -4.648  -0.982 132.959  0.00  0.00    +0.125 C 
ATOM     51  H   LIG A   1      -6.247  -1.972 133.832  0.00  0.00    +0.146 HD
ENDBRANCH  44  49
ENDBRANCH  41  43
ENDBRANCH  40  41
ENDBRANCH  20  40
TORSDOF 11
ENDMDL
MODEL 7
REMARK VINA RESULT:      -8.4      5.328      7.543
REMARK  Name = NuBBE_1521
REMARK  19 active torsions:
REMARK  status: ('A' for Active; 'I' for Inactive)
REMARK    1  A    between atoms: C_1  and  C_2
REMARK    2  A    between atoms: C_6  and  C_10
REMARK    3  A    between atoms: C_12  and  O_14
REMARK    4  A    between atoms: O_14  and  C_15
REMARK    5  A    between atoms: C_17  and  C_20
REMARK    6  A    between atoms: C_20  and  C_22
REMARK    7  A    between atoms: C_20  and  O_26
REMARK    8  A    between atoms: C_22  and  C_23
REMARK    9  A    between atoms: C_22  and  C_24
REMARK   10  A    between atoms: C_22  and  O_25
REMARK   11  A    between atoms: C_31  and  C_32
REMARK   12  A    between atoms: C_36  and  O_38
REMARK   13  A    between atoms: C_39  and  C_40
REMARK   14  A    between atoms: C_39  and  C_41
REMARK   15  A    between atoms: C_42  and  O_46
REMARK   16  A    between atoms: O_46  and  C_47
REMARK   17  A    between atoms: C_47  and  C_49
REMARK   18  A    between atoms: C_50  and  N_51
REMARK   19  A    between atoms: N_51  and  C_52
REMARK                            x       y       z     vdW  Elec       q    Type
REMARK                         _______ _______ _______ _____ _____    ______ ____
ROOT
ATOM      1  C   LIG A   1      -5.020   0.545 131.114  0.00  0.00    +0.014 C 
ATOM      2  C   LIG A   1      -6.436   0.933 130.598  0.00  0.00    +0.003 C 
ATOM      3  C   LIG A   1      -6.810  -0.015 129.465  0.00  0.00    -0.015 C 
ATOM      4  C   LIG A   1      -6.456   0.304 128.040  0.00  0.00    -0.019 C 
ATOM      5  C   LIG A   1      -7.885   0.450 128.524  0.00  0.00    +0.016 C 
ATOM      6  C   LIG A   1      -6.007  -0.987 127.355  0.00  0.00    +0.004 C 
ATOM      7  C   LIG A   1      -5.677  -1.922 128.535  0.00  0.00    +0.005 C 
ATOM      8  C   LIG A   1      -6.624  -1.512 129.665  0.00  0.00    +0.008 C 
ATOM      9  C   LIG A   1      -5.526   1.491 127.883  0.00  0.00    +0.008 C 
ATOM     10  C   LIG A   1      -5.880   2.723 128.730  0.00  0.00    +0.005 C 
ATOM     11  C   LIG A   1      -6.514   2.447 130.129  0.00  0.00    +0.004 C 
ATOM     12  C   LIG A   1      -6.155   3.468 131.279  0.00  0.00    -0.025 C 
ATOM     13  C   LIG A   1      -4.625   3.498 131.471  0.00  0.00    +0.012 C 
ATOM     14  C   LIG A   1      -7.040   3.134 132.547  0.00  0.00    +0.007 C 
ATOM     15  C   LIG A   1      -7.200   1.635 132.907  0.00  0.00    +0.036 C 
ATOM     16  C   LIG A   1      -7.479   0.723 131.731  0.00  0.00    +0.122 C 
ATOM     17  C   LIG A   1      -6.776   4.019 133.825  0.00  0.00    +0.006 C 
ATOM     18  C   LIG A   1      -5.942   3.229 134.869  0.00  0.00    +0.015 C 
ATOM     19  C   LIG A   1      -8.147   4.273 134.510  0.00  0.00    +0.015 C 
ATOM     20  C   LIG A   1      -6.162   5.425 133.496  0.00  0.00    +0.183 C 
ATOM     21  C   LIG A   1      -6.378   5.939 132.039  0.00  0.00    +0.046 C 
ATOM     22  C   LIG A   1      -6.600   4.908 130.911  0.00  0.00    +0.011 C 
ENDROOT
BRANCH   6  23
ATOM     23  C   LIG A   1      -6.952  -1.609 126.292  0.00  0.00    +0.051 C 
ATOM     24  C   LIG A   1      -8.468  -1.465 126.451  0.00  0.00    +0.254 C 
ATOM     25  O   LIG A   1      -8.870  -0.386 125.596  0.00  0.00    -0.345 OA
ATOM     26  C   LIG A   1      -7.977  -0.337 124.480  0.00  0.00    +0.153 C 
ATOM     27  C   LIG A   1      -6.689  -1.029 124.906  0.00  0.00    +0.043 C 
BRANCH  24  28
ATOM     28  O   LIG A   1      -9.111  -2.680 126.046  0.00  0.00    -0.354 OA
ATOM     29  C   LIG A   1      -9.032  -3.684 127.054  0.00  0.00    +0.197 C 
ENDBRANCH  24  28
BRANCH  26  30
ATOM     30  C   LIG A   1      -7.771   1.086 123.894  0.00  0.00    +0.174 C 
BRANCH  30  31
ATOM     31  C   LIG A   1      -9.057   1.784 123.346  0.00  0.00    +0.089 C 
ATOM     32  C   LIG A   1      -8.707   2.925 122.387  0.00  0.00    +0.044 C 
ATOM     33  C   LIG A   1     -10.054   0.830 122.685  0.00  0.00    +0.044 C 
BRANCH  31  34
ATOM     34  O   LIG A   1      -9.743   2.359 124.482  0.00  0.00    -0.387 OA
ATOM     35  H   LIG A   1      -9.071   2.740 125.076  0.00  0.00    +0.210 HD
ENDBRANCH  31  34
ENDBRANCH  30  31
BRANCH  30  36
ATOM     36  O   LIG A   1      -7.098   1.935 124.837  0.00  0.00    -0.386 OA
ATOM     37  H   LIG A   1      -6.350   2.349 124.371  0.00  0.00    +0.210 HD
ENDBRANCH  30  36
ENDBRANCH  26  30
ENDBRANCH   6  23
BRANCH  16  38
ATOM     38  O   LIG A   1      -8.837   0.915 131.316  0.00  0.00    -0.391 OA
ATOM     39  H   LIG A   1      -8.862   1.497 130.541  0.00  0.00    +0.210 HD
ENDBRANCH  16  38
BRANCH  20  40
ATOM     40  O   LIG A   1      -4.718   5.439 133.734  0.00  0.00    -0.457 OA
BRANCH  40  41
ATOM     41  C   LIG A   1      -4.190   6.427 134.535  0.00  0.00    +0.341 C 
ATOM     42  O   LIG A   1      -4.697   6.966 135.490  0.00  0.00    -0.245 OA
BRANCH  41  43
ATOM     43  C   LIG A   1      -2.824   6.734 134.022  0.00  0.00    +0.080 A 
ATOM     44  C   LIG A   1      -1.698   6.701 134.875  0.00  0.00    +0.041 A 
ATOM     45  C   LIG A   1      -0.465   7.072 134.307  0.00  0.00    +0.024 A 
ATOM     46  C   LIG A   1      -0.343   7.399 132.950  0.00  0.00    +0.002 A 
ATOM     47  C   LIG A   1      -1.450   7.364 132.116  0.00  0.00    +0.001 A 
ATOM     48  C   LIG A   1      -2.681   7.022 132.651  0.00  0.00    +0.017 A 
BRANCH  44  49
ATOM     49  N   LIG A   1      -1.819   6.469 136.259  0.00  0.00    -0.346 N 
ATOM     50  C   LIG A   1      -1.528   7.557 137.182  0.00  0.00    +0.125 C 
ATOM     51  H   LIG A   1      -1.352   5.596 136.531  0.00  0.00    +0.146 HD
ENDBRANCH  44  49
ENDBRANCH  41  43
ENDBRANCH  40  41
ENDBRANCH  20  40
TORSDOF 11
ENDMDL
MODEL 8
REMARK VINA RESULT:      -8.3      5.644      6.864
REMARK  Name = NuBBE_1521
REMARK  19 active torsions:
REMARK  status: ('A' for Active; 'I' for Inactive)
REMARK    1  A    between atoms: C_1  and  C_2
REMARK    2  A    between atoms: C_6  and  C_10
REMARK    3  A    between atoms: C_12  and  O_14
REMARK    4  A    between atoms: O_14  and  C_15
REMARK    5  A    between atoms: C_17  and  C_20
REMARK    6  A    between atoms: C_20  and  C_22
REMARK    7  A    between atoms: C_20  and  O_26
REMARK    8  A    between atoms: C_22  and  C_23
REMARK    9  A    between atoms: C_22  and  C_24
REMARK   10  A    between atoms: C_22  and  O_25
REMARK   11  A    between atoms: C_31  and  C_32
REMARK   12  A    between atoms: C_36  and  O_38
REMARK   13  A    between atoms: C_39  and  C_40
REMARK   14  A    between atoms: C_39  and  C_41
REMARK   15  A    between atoms: C_42  and  O_46
REMARK   16  A    between atoms: O_46  and  C_47
REMARK   17  A    between atoms: C_47  and  C_49
REMARK   18  A    between atoms: C_50  and  N_51
REMARK   19  A    between atoms: N_51  and  C_52
REMARK                            x       y       z     vdW  Elec       q    Type
REMARK                         _______ _______ _______ _____ _____    ______ ____
ROOT
ATOM      1  C   LIG A   1      -6.316   4.850 129.349  0.00  0.00    +0.014 C 
ATOM      2  C   LIG A   1      -5.171   3.886 128.921  0.00  0.00    +0.003 C 
ATOM      3  C   LIG A   1      -5.566   3.227 127.606  0.00  0.00    -0.015 C 
ATOM      4  C   LIG A   1      -6.343   1.940 127.586  0.00  0.00    -0.019 C 
ATOM      5  C   LIG A   1      -4.864   1.944 127.256  0.00  0.00    +0.016 C 
ATOM      6  C   LIG A   1      -7.379   2.021 126.465  0.00  0.00    +0.004 C 
ATOM      7  C   LIG A   1      -7.473   3.531 126.173  0.00  0.00    +0.005 C 
ATOM      8  C   LIG A   1      -6.084   4.098 126.471  0.00  0.00    +0.008 C 
ATOM      9  C   LIG A   1      -6.872   1.515 128.943  0.00  0.00    +0.008 C 
ATOM     10  C   LIG A   1      -5.872   1.625 130.104  0.00  0.00    +0.005 C 
ATOM     11  C   LIG A   1      -4.848   2.801 130.033  0.00  0.00    +0.004 C 
ATOM     12  C   LIG A   1      -4.412   3.439 131.410  0.00  0.00    -0.025 C 
ATOM     13  C   LIG A   1      -5.662   3.968 132.142  0.00  0.00    +0.012 C 
ATOM     14  C   LIG A   1      -3.238   4.465 131.143  0.00  0.00    +0.007 C 
ATOM     15  C   LIG A   1      -3.392   5.391 129.909  0.00  0.00    +0.036 C 
ATOM     16  C   LIG A   1      -3.875   4.702 128.651  0.00  0.00    +0.122 C 
ATOM     17  C   LIG A   1      -2.708   5.251 132.403  0.00  0.00    +0.006 C 
ATOM     18  C   LIG A   1      -3.254   6.704 132.405  0.00  0.00    +0.015 C 
ATOM     19  C   LIG A   1      -1.168   5.396 132.252  0.00  0.00    +0.015 C 
ATOM     20  C   LIG A   1      -2.965   4.503 133.759  0.00  0.00    +0.183 C 
ATOM     21  C   LIG A   1      -3.201   2.965 133.656  0.00  0.00    +0.046 C 
ATOM     22  C   LIG A   1      -3.751   2.384 132.335  0.00  0.00    +0.011 C 
ENDROOT
BRANCH   6  23
ATOM     23  C   LIG A   1      -7.154   1.139 125.207  0.00  0.00    +0.051 C 
ATOM     24  C   LIG A   1      -8.362   0.633 124.414  0.00  0.00    +0.254 C 
ATOM     25  O   LIG A   1      -8.508   1.505 123.285  0.00  0.00    -0.345 OA
ATOM     26  C   LIG A   1      -7.214   1.995 122.924  0.00  0.00    +0.153 C 
ATOM     27  C   LIG A   1      -6.327   1.870 124.155  0.00  0.00    +0.043 C 
BRANCH  24  28
ATOM     28  O   LIG A   1      -8.119  -0.709 123.971  0.00  0.00    -0.354 OA
ATOM     29  C   LIG A   1      -7.670  -1.545 125.034  0.00  0.00    +0.197 C 
ENDBRANCH  24  28
BRANCH  26  30
ATOM     30  C   LIG A   1      -7.227   3.413 122.291  0.00  0.00    +0.174 C 
BRANCH  30  31
ATOM     31  C   LIG A   1      -6.165   3.665 121.173  0.00  0.00    +0.089 C 
ATOM     32  C   LIG A   1      -6.817   4.193 119.893  0.00  0.00    +0.044 C 
ATOM     33  C   LIG A   1      -5.016   4.583 121.595  0.00  0.00    +0.044 C 
BRANCH  31  34
ATOM     34  O   LIG A   1      -5.565   2.386 120.865  0.00  0.00    -0.387 OA
ATOM     35  H   LIG A   1      -5.594   2.266 119.898  0.00  0.00    +0.210 HD
ENDBRANCH  31  34
ENDBRANCH  30  31
BRANCH  30  36
ATOM     36  O   LIG A   1      -8.542   3.754 121.826  0.00  0.00    -0.386 OA
ATOM     37  H   LIG A   1      -8.843   3.027 121.252  0.00  0.00    +0.210 HD
ENDBRANCH  30  36
ENDBRANCH  26  30
ENDBRANCH   6  23
BRANCH  16  38
ATOM     38  O   LIG A   1      -2.799   3.925 128.112  0.00  0.00    -0.391 OA
ATOM     39  H   LIG A   1      -2.307   4.454 127.465  0.00  0.00    +0.210 HD
ENDBRANCH  16  38
BRANCH  20  40
ATOM     40  O   LIG A   1      -4.127   5.059 134.455  0.00  0.00    -0.457 OA
BRANCH  40  41
ATOM     41  C   LIG A   1      -3.933   5.694 135.662  0.00  0.00    +0.341 C 
ATOM     42  O   LIG A   1      -2.888   5.997 136.188  0.00  0.00    -0.245 OA
BRANCH  41  43
ATOM     43  C   LIG A   1      -5.279   5.973 136.239  0.00  0.00    +0.080 A 
ATOM     44  C   LIG A   1      -5.419   6.539 137.527  0.00  0.00    +0.041 A 
ATOM     45  C   LIG A   1      -6.733   6.699 138.006  0.00  0.00    +0.024 A 
ATOM     46  C   LIG A   1      -7.850   6.374 137.226  0.00  0.00    +0.002 A 
ATOM     47  C   LIG A   1      -7.691   5.879 135.941  0.00  0.00    +0.001 A 
ATOM     48  C   LIG A   1      -6.409   5.690 135.450  0.00  0.00    +0.017 A 
BRANCH  44  49
ATOM     49  N   LIG A   1      -4.309   6.780 138.359  0.00  0.00    -0.346 N 
ATOM     50  C   LIG A   1      -4.082   5.906 139.501  0.00  0.00    +0.125 C 
ATOM     51  H   LIG A   1      -4.245   7.773 138.613  0.00  0.00    +0.146 HD
ENDBRANCH  44  49
ENDBRANCH  41  43
ENDBRANCH  40  41
ENDBRANCH  20  40
TORSDOF 11
ENDMDL
MODEL 9
REMARK VINA RESULT:      -8.2      8.852     11.141
REMARK  Name = NuBBE_1521
REMARK  19 active torsions:
REMARK  status: ('A' for Active; 'I' for Inactive)
REMARK    1  A    between atoms: C_1  and  C_2
REMARK    2  A    between atoms: C_6  and  C_10
REMARK    3  A    between atoms: C_12  and  O_14
REMARK    4  A    between atoms: O_14  and  C_15
REMARK    5  A    between atoms: C_17  and  C_20
REMARK    6  A    between atoms: C_20  and  C_22
REMARK    7  A    between atoms: C_20  and  O_26
REMARK    8  A    between atoms: C_22  and  C_23
REMARK    9  A    between atoms: C_22  and  C_24
REMARK   10  A    between atoms: C_22  and  O_25
REMARK   11  A    between atoms: C_31  and  C_32
REMARK   12  A    between atoms: C_36  and  O_38
REMARK   13  A    between atoms: C_39  and  C_40
REMARK   14  A    between atoms: C_39  and  C_41
REMARK   15  A    between atoms: C_42  and  O_46
REMARK   16  A    between atoms: O_46  and  C_47
REMARK   17  A    between atoms: C_47  and  C_49
REMARK   18  A    between atoms: C_50  and  N_51
REMARK   19  A    between atoms: N_51  and  C_52
REMARK                            x       y       z     vdW  Elec       q    Type
REMARK                         _______ _______ _______ _____ _____    ______ ____
ROOT
ATOM      1  C   LIG A   1      -2.296   4.015 132.619  0.00  0.00    +0.014 C 
ATOM      2  C   LIG A   1      -3.660   4.721 132.364  0.00  0.00    +0.003 C 
ATOM      3  C   LIG A   1      -4.500   3.826 131.461  0.00  0.00    -0.015 C 
ATOM      4  C   LIG A   1      -4.422   3.943 129.964  0.00  0.00    -0.019 C 
ATOM      5  C   LIG A   1      -5.623   4.487 130.712  0.00  0.00    +0.016 C 
ATOM      6  C   LIG A   1      -4.463   2.536 129.369  0.00  0.00    +0.004 C 
ATOM      7  C   LIG A   1      -4.099   1.631 130.562  0.00  0.00    +0.005 C 
ATOM      8  C   LIG A   1      -4.633   2.349 131.803  0.00  0.00    +0.008 C 
ATOM      9  C   LIG A   1      -3.300   4.835 129.470  0.00  0.00    +0.008 C 
ATOM     10  C   LIG A   1      -3.145   6.172 130.212  0.00  0.00    +0.005 C 
ATOM     11  C   LIG A   1      -3.484   6.166 131.735  0.00  0.00    +0.004 C 
ATOM     12  C   LIG A   1      -2.636   7.137 132.649  0.00  0.00    -0.025 C 
ATOM     13  C   LIG A   1      -1.141   6.783 132.513  0.00  0.00    +0.012 C 
ATOM     14  C   LIG A   1      -3.255   7.132 134.104  0.00  0.00    +0.007 C 
ATOM     15  C   LIG A   1      -3.678   5.754 134.674  0.00  0.00    +0.036 C 
ATOM     16  C   LIG A   1      -4.431   4.866 133.706  0.00  0.00    +0.122 C 
ATOM     17  C   LIG A   1      -2.500   8.004 135.178  0.00  0.00    +0.006 C 
ATOM     18  C   LIG A   1      -1.658   7.099 136.117  0.00  0.00    +0.015 C 
ATOM     19  C   LIG A   1      -3.574   8.652 136.096  0.00  0.00    +0.015 C 
ATOM     20  C   LIG A   1      -1.664   9.177 134.555  0.00  0.00    +0.183 C 
ATOM     21  C   LIG A   1      -2.084   9.628 133.123  0.00  0.00    +0.046 C 
ATOM     22  C   LIG A   1      -2.800   8.614 132.204  0.00  0.00    +0.011 C 
ENDROOT
BRANCH   6  23
ATOM     23  C   LIG A   1      -5.749   2.108 128.611  0.00  0.00    +0.051 C 
ATOM     24  C   LIG A   1      -6.902   3.103 128.458  0.00  0.00    +0.254 C 
ATOM     25  O   LIG A   1      -6.793   3.661 127.142  0.00  0.00    -0.345 OA
ATOM     26  C   LIG A   1      -6.204   2.680 126.283  0.00  0.00    +0.153 C 
ATOM     27  C   LIG A   1      -5.440   1.707 127.172  0.00  0.00    +0.043 C 
BRANCH  24  28
ATOM     28  O   LIG A   1      -8.152   2.415 128.598  0.00  0.00    -0.354 OA
ATOM     29  C   LIG A   1      -8.184   1.606 129.771  0.00  0.00    +0.197 C 
ENDBRANCH  24  28
BRANCH  26  30
ATOM     30  C   LIG A   1      -5.362   3.277 125.122  0.00  0.00    +0.174 C 
BRANCH  30  31
ATOM     31  C   LIG A   1      -6.163   4.085 124.053  0.00  0.00    +0.089 C 
ATOM     32  C   LIG A   1      -5.317   4.355 122.807  0.00  0.00    +0.044 C 
ATOM     33  C   LIG A   1      -7.496   3.447 123.654  0.00  0.00    +0.044 C 
BRANCH  31  34
ATOM     34  O   LIG A   1      -6.491   5.362 124.646  0.00  0.00    -0.387 OA
ATOM     35  H   LIG A   1      -7.344   5.269 125.107  0.00  0.00    +0.210 HD
ENDBRANCH  31  34
ENDBRANCH  30  31
BRANCH  30  36
ATOM     36  O   LIG A   1      -4.269   4.056 125.631  0.00  0.00    -0.386 OA
ATOM     37  H   LIG A   1      -3.939   3.606 126.429  0.00  0.00    +0.210 HD
ENDBRANCH  30  36
ENDBRANCH  26  30
ENDBRANCH   6  23
BRANCH  16  38
ATOM     38  O   LIG A   1      -5.763   5.374 133.560  0.00  0.00    -0.391 OA
ATOM     39  H   LIG A   1      -6.101   5.154 132.679  0.00  0.00    +0.210 HD
ENDBRANCH  16  38
BRANCH  20  40
ATOM     40  O   LIG A   1      -0.243   8.833 134.485  0.00  0.00    -0.457 OA
BRANCH  40  41
ATOM     41  C   LIG A   1       0.661   9.620 135.163  0.00  0.00    +0.341 C 
ATOM     42  O   LIG A   1       1.267   9.361 136.176  0.00  0.00    -0.245 OA
BRANCH  41  43
ATOM     43  C   LIG A   1       0.792  10.899 134.407  0.00  0.00    +0.080 A 
ATOM     44  C   LIG A   1       0.436  12.135 134.995  0.00  0.00    +0.041 A 
ATOM     45  C   LIG A   1       0.532  13.274 134.174  0.00  0.00    +0.024 A 
ATOM     46  C   LIG A   1       1.014  13.202 132.860  0.00  0.00    +0.002 A 
ATOM     47  C   LIG A   1       1.417  11.988 132.325  0.00  0.00    +0.001 A 
ATOM     48  C   LIG A   1       1.314  10.846 133.102  0.00  0.00    +0.017 A 
BRANCH  44  49
ATOM     49  N   LIG A   1      -0.140  12.211 136.278  0.00  0.00    -0.346 N 
ATOM     50  C   LIG A   1      -1.481  12.760 136.415  0.00  0.00    +0.125 C 
ATOM     51  H   LIG A   1       0.517  12.618 136.955  0.00  0.00    +0.146 HD
ENDBRANCH  44  49
ENDBRANCH  41  43
ENDBRANCH  40  41
ENDBRANCH  20  40
TORSDOF 11
ENDMDL
