MODEL 1
REMARK VINA RESULT:      -6.2      0.000      0.000
REMARK  Name = NuBBE_1266
REMARK  4 active torsions:
REMARK  status: ('A' for Active; 'I' for Inactive)
REMARK    1  A    between atoms: C_9  and  C_10
REMARK    2  A    between atoms: C_10  and  O_11
REMARK    3  A    between atoms: C_13  and  O_14
REMARK    4  A    between atoms: O_14  and  C_15
REMARK                            x       y       z     vdW  Elec       q    Type
REMARK                         _______ _______ _______ _____ _____    ______ ____
ROOT
ATOM      1  O   LIG A   1     -10.883   7.743 125.701  0.00  0.00    -0.245 OA
ATOM      2  C   LIG A   1     -10.772   7.532 126.902  0.00  0.00    +0.337 A 
ATOM      3  C   LIG A   1     -11.482   8.372 127.883  0.00  0.00    +0.092 A 
ATOM      4  C   LIG A   1     -11.380   8.177 129.202  0.00  0.00    +0.018 A 
ATOM      5  O   LIG A   1      -9.987   6.505 127.408  0.00  0.00    -0.422 OA
ATOM      6  C   LIG A   1      -9.865   6.294 128.796  0.00  0.00    +0.143 A 
ATOM      7  C   LIG A   1     -10.539   7.103 129.703  0.00  0.00    +0.019 A 
ATOM      8  C   LIG A   1     -10.380   6.858 131.066  0.00  0.00    +0.030 A 
ATOM      9  C   LIG A   1      -9.548   5.809 131.508  0.00  0.00    +0.101 A 
ATOM     10  C   LIG A   1      -8.868   4.997 130.576  0.00  0.00    +0.138 A 
ATOM     11  C   LIG A   1      -9.040   5.247 129.210  0.00  0.00    +0.093 A 
ENDROOT
BRANCH   9  12
ATOM     12  C   LIG A   1      -9.382   5.594 132.970  0.00  0.00    +0.340 C 
ATOM     13  O   LIG A   1      -8.718   6.242 133.755  0.00  0.00    -0.245 OA
BRANCH  12  14
ATOM     14  O   LIG A   1     -10.087   4.524 133.390  0.00  0.00    -0.477 OA
ATOM     15  H   LIG A   1     -10.510   4.199 132.567  0.00  0.00    +0.295 HD
ENDBRANCH  12  14
ENDBRANCH   9  12
BRANCH  10  16
ATOM     16  O   LIG A   1      -8.092   3.986 131.073  0.00  0.00    -0.494 OA
ATOM     17  C   LIG A   1      -8.465   2.646 130.779  0.00  0.00    +0.277 C 
ENDBRANCH  10  16
TORSDOF 3
ENDMDL
MODEL 2
REMARK VINA RESULT:      -6.1      7.412      9.192
REMARK  Name = NuBBE_1266
REMARK  4 active torsions:
REMARK  status: ('A' for Active; 'I' for Inactive)
REMARK    1  A    between atoms: C_9  and  C_10
REMARK    2  A    between atoms: C_10  and  O_11
REMARK    3  A    between atoms: C_13  and  O_14
REMARK    4  A    between atoms: O_14  and  C_15
REMARK                            x       y       z     vdW  Elec       q    Type
REMARK                         _______ _______ _______ _____ _____    ______ ____
ROOT
ATOM      1  O   LIG A   1      -4.883   5.707 119.481  0.00  0.00    -0.245 OA
ATOM      2  C   LIG A   1      -5.816   5.044 119.915  0.00  0.00    +0.337 A 
ATOM      3  C   LIG A   1      -7.039   4.849 119.116  0.00  0.00    +0.092 A 
ATOM      4  C   LIG A   1      -8.080   4.137 119.559  0.00  0.00    +0.018 A 
ATOM      5  O   LIG A   1      -5.782   4.442 121.166  0.00  0.00    -0.422 OA
ATOM      6  C   LIG A   1      -6.876   3.696 121.648  0.00  0.00    +0.143 A 
ATOM      7  C   LIG A   1      -8.022   3.531 120.879  0.00  0.00    +0.019 A 
ATOM      8  C   LIG A   1      -9.080   2.790 121.404  0.00  0.00    +0.030 A 
ATOM      9  C   LIG A   1      -8.983   2.226 122.692  0.00  0.00    +0.101 A 
ATOM     10  C   LIG A   1      -7.815   2.404 123.463  0.00  0.00    +0.138 A 
ATOM     11  C   LIG A   1      -6.757   3.143 122.924  0.00  0.00    +0.093 A 
ENDROOT
BRANCH   9  12
ATOM     12  C   LIG A   1     -10.142   1.465 123.229  0.00  0.00    +0.340 C 
ATOM     13  O   LIG A   1     -10.753   0.554 122.705  0.00  0.00    -0.245 OA
BRANCH  12  14
ATOM     14  O   LIG A   1     -10.494   1.910 124.454  0.00  0.00    -0.477 OA
ATOM     15  H   LIG A   1     -10.173   2.836 124.454  0.00  0.00    +0.295 HD
ENDBRANCH  12  14
ENDBRANCH   9  12
BRANCH  10  16
ATOM     16  O   LIG A   1      -7.781   1.813 124.697  0.00  0.00    -0.494 OA
ATOM     17  C   LIG A   1      -7.336   2.589 125.801  0.00  0.00    +0.277 C 
ENDBRANCH  10  16
TORSDOF 3
ENDMDL
MODEL 3
REMARK VINA RESULT:      -6.0      1.940      2.451
REMARK  Name = NuBBE_1266
REMARK  4 active torsions:
REMARK  status: ('A' for Active; 'I' for Inactive)
REMARK    1  A    between atoms: C_9  and  C_10
REMARK    2  A    between atoms: C_10  and  O_11
REMARK    3  A    between atoms: C_13  and  O_14
REMARK    4  A    between atoms: O_14  and  C_15
REMARK                            x       y       z     vdW  Elec       q    Type
REMARK                         _______ _______ _______ _____ _____    ______ ____
ROOT
ATOM      1  O   LIG A   1     -12.089   8.638 127.959  0.00  0.00    -0.245 OA
ATOM      2  C   LIG A   1     -11.730   8.034 128.961  0.00  0.00    +0.337 A 
ATOM      3  C   LIG A   1     -12.719   7.502 129.915  0.00  0.00    +0.092 A 
ATOM      4  C   LIG A   1     -12.366   6.843 131.024  0.00  0.00    +0.018 A 
ATOM      5  O   LIG A   1     -10.392   7.813 129.258  0.00  0.00    -0.422 OA
ATOM      6  C   LIG A   1     -10.005   7.128 130.427  0.00  0.00    +0.143 A 
ATOM      7  C   LIG A   1     -10.956   6.640 131.315  0.00  0.00    +0.019 A 
ATOM      8  C   LIG A   1     -10.523   5.974 132.461  0.00  0.00    +0.030 A 
ATOM      9  C   LIG A   1      -9.145   5.806 132.708  0.00  0.00    +0.101 A 
ATOM     10  C   LIG A   1      -8.191   6.309 131.799  0.00  0.00    +0.138 A 
ATOM     11  C   LIG A   1      -8.636   6.969 130.648  0.00  0.00    +0.093 A 
ENDROOT
BRANCH   9  12
ATOM     12  C   LIG A   1      -8.720   5.115 133.954  0.00  0.00    +0.340 C 
ATOM     13  O   LIG A   1      -8.789   3.930 134.219  0.00  0.00    -0.245 OA
BRANCH  12  14
ATOM     14  O   LIG A   1      -8.208   5.987 134.847  0.00  0.00    -0.477 OA
ATOM     15  H   LIG A   1      -7.274   5.700 134.928  0.00  0.00    +0.295 HD
ENDBRANCH  12  14
ENDBRANCH   9  12
BRANCH  10  16
ATOM     16  O   LIG A   1      -6.871   6.094 132.090  0.00  0.00    -0.494 OA
ATOM     17  C   LIG A   1      -5.893   6.783 131.322  0.00  0.00    +0.277 C 
ENDBRANCH  10  16
TORSDOF 3
ENDMDL
MODEL 4
REMARK VINA RESULT:      -5.8      9.564     11.102
REMARK  Name = NuBBE_1266
REMARK  4 active torsions:
REMARK  status: ('A' for Active; 'I' for Inactive)
REMARK    1  A    between atoms: C_9  and  C_10
REMARK    2  A    between atoms: C_10  and  O_11
REMARK    3  A    between atoms: C_13  and  O_14
REMARK    4  A    between atoms: O_14  and  C_15
REMARK                            x       y       z     vdW  Elec       q    Type
REMARK                         _______ _______ _______ _____ _____    ______ ____
ROOT
ATOM      1  O   LIG A   1      -5.652  -2.826 130.553  0.00  0.00    -0.245 OA
ATOM      2  C   LIG A   1      -6.395  -2.859 129.580  0.00  0.00    +0.337 A 
ATOM      3  C   LIG A   1      -7.777  -3.355 129.704  0.00  0.00    +0.092 A 
ATOM      4  C   LIG A   1      -8.615  -3.412 128.664  0.00  0.00    +0.018 A 
ATOM      5  O   LIG A   1      -5.990  -2.438 128.320  0.00  0.00    -0.422 OA
ATOM      6  C   LIG A   1      -6.861  -2.501 127.214  0.00  0.00    +0.143 A 
ATOM      7  C   LIG A   1      -8.159  -2.978 127.353  0.00  0.00    +0.019 A 
ATOM      8  C   LIG A   1      -8.979  -3.027 126.227  0.00  0.00    +0.030 A 
ATOM      9  C   LIG A   1      -8.493  -2.603 124.974  0.00  0.00    +0.101 A 
ATOM     10  C   LIG A   1      -7.173  -2.123 124.846  0.00  0.00    +0.138 A 
ATOM     11  C   LIG A   1      -6.360  -2.072 125.984  0.00  0.00    +0.093 A 
ENDROOT
BRANCH   9  12
ATOM     12  C   LIG A   1      -9.388  -2.694 123.790  0.00  0.00    +0.340 C 
ATOM     13  O   LIG A   1      -9.868  -3.690 123.285  0.00  0.00    -0.245 OA
BRANCH  12  14
ATOM     14  O   LIG A   1      -9.643  -1.474 123.274  0.00  0.00    -0.477 OA
ATOM     15  H   LIG A   1      -8.750  -1.141 123.040  0.00  0.00    +0.295 HD
ENDBRANCH  12  14
ENDBRANCH   9  12
BRANCH  10  16
ATOM     16  O   LIG A   1      -6.772  -1.710 123.605  0.00  0.00    -0.494 OA
ATOM     17  C   LIG A   1      -5.688  -2.392 122.988  0.00  0.00    +0.277 C 
ENDBRANCH  10  16
TORSDOF 3
ENDMDL
MODEL 5
REMARK VINA RESULT:      -5.7      2.122      5.810
REMARK  Name = NuBBE_1266
REMARK  4 active torsions:
REMARK  status: ('A' for Active; 'I' for Inactive)
REMARK    1  A    between atoms: C_9  and  C_10
REMARK    2  A    between atoms: C_10  and  O_11
REMARK    3  A    between atoms: C_13  and  O_14
REMARK    4  A    between atoms: O_14  and  C_15
REMARK                            x       y       z     vdW  Elec       q    Type
REMARK                         _______ _______ _______ _____ _____    ______ ____
ROOT
ATOM      1  O   LIG A   1      -7.088   4.959 135.250  0.00  0.00    -0.245 OA
ATOM      2  C   LIG A   1      -7.432   5.395 134.159  0.00  0.00    +0.337 A 
ATOM      3  C   LIG A   1      -6.430   5.825 133.168  0.00  0.00    +0.092 A 
ATOM      4  C   LIG A   1      -6.768   6.311 131.970  0.00  0.00    +0.018 A 
ATOM      5  O   LIG A   1      -8.766   5.507 133.790  0.00  0.00    -0.422 OA
ATOM      6  C   LIG A   1      -9.137   6.026 132.533  0.00  0.00    +0.143 A 
ATOM      7  C   LIG A   1      -8.173   6.431 131.617  0.00  0.00    +0.019 A 
ATOM      8  C   LIG A   1      -8.590   6.944 130.390  0.00  0.00    +0.030 A 
ATOM      9  C   LIG A   1      -9.964   7.049 130.093  0.00  0.00    +0.101 A 
ATOM     10  C   LIG A   1     -10.931   6.636 131.033  0.00  0.00    +0.138 A 
ATOM     11  C   LIG A   1     -10.502   6.117 132.259  0.00  0.00    +0.093 A 
ENDROOT
BRANCH   9  12
ATOM     12  C   LIG A   1     -10.372   7.626 128.784  0.00  0.00    +0.340 C 
ATOM     13  O   LIG A   1     -10.051   7.264 127.669  0.00  0.00    -0.245 OA
BRANCH  12  14
ATOM     14  O   LIG A   1     -11.197   8.681 128.950  0.00  0.00    -0.477 OA
ATOM     15  H   LIG A   1     -11.744   8.416 129.721  0.00  0.00    +0.295 HD
ENDBRANCH  12  14
ENDBRANCH   9  12
BRANCH  10  16
ATOM     16  O   LIG A   1     -12.246   6.749 130.672  0.00  0.00    -0.494 OA
ATOM     17  C   LIG A   1     -13.097   7.553 131.478  0.00  0.00    +0.277 C 
ENDBRANCH  10  16
TORSDOF 3
ENDMDL
MODEL 6
REMARK VINA RESULT:      -5.7      1.892      2.021
REMARK  Name = NuBBE_1266
REMARK  4 active torsions:
REMARK  status: ('A' for Active; 'I' for Inactive)
REMARK    1  A    between atoms: C_9  and  C_10
REMARK    2  A    between atoms: C_10  and  O_11
REMARK    3  A    between atoms: C_13  and  O_14
REMARK    4  A    between atoms: O_14  and  C_15
REMARK                            x       y       z     vdW  Elec       q    Type
REMARK                         _______ _______ _______ _____ _____    ______ ____
ROOT
ATOM      1  O   LIG A   1     -13.565   6.773 127.984  0.00  0.00    -0.245 OA
ATOM      2  C   LIG A   1     -12.881   6.627 128.989  0.00  0.00    +0.337 A 
ATOM      3  C   LIG A   1     -13.166   7.395 130.214  0.00  0.00    +0.092 A 
ATOM      4  C   LIG A   1     -12.438   7.267 131.328  0.00  0.00    +0.018 A 
ATOM      5  O   LIG A   1     -11.813   5.740 129.040  0.00  0.00    -0.422 OA
ATOM      6  C   LIG A   1     -11.032   5.602 130.205  0.00  0.00    +0.143 A 
ATOM      7  C   LIG A   1     -11.316   6.343 131.346  0.00  0.00    +0.019 A 
ATOM      8  C   LIG A   1     -10.510   6.175 132.471  0.00  0.00    +0.030 A 
ATOM      9  C   LIG A   1      -9.427   5.273 132.442  0.00  0.00    +0.101 A 
ATOM     10  C   LIG A   1      -9.149   4.530 131.276  0.00  0.00    +0.138 A 
ATOM     11  C   LIG A   1      -9.969   4.700 130.155  0.00  0.00    +0.093 A 
ENDROOT
BRANCH   9  12
ATOM     12  C   LIG A   1      -8.573   5.140 133.652  0.00  0.00    +0.340 C 
ATOM     13  O   LIG A   1      -7.514   5.686 133.889  0.00  0.00    -0.245 OA
BRANCH  12  14
ATOM     14  O   LIG A   1      -9.116   4.284 134.542  0.00  0.00    -0.477 OA
ATOM     15  H   LIG A   1      -9.814   4.823 134.971  0.00  0.00    +0.295 HD
ENDBRANCH  12  14
ENDBRANCH   9  12
BRANCH  10  16
ATOM     16  O   LIG A   1      -8.095   3.658 131.323  0.00  0.00    -0.494 OA
ATOM     17  C   LIG A   1      -8.364   2.271 131.169  0.00  0.00    +0.277 C 
ENDBRANCH  10  16
TORSDOF 3
ENDMDL
MODEL 7
REMARK VINA RESULT:      -5.6      6.880      9.534
REMARK  Name = NuBBE_1266
REMARK  4 active torsions:
REMARK  status: ('A' for Active; 'I' for Inactive)
REMARK    1  A    between atoms: C_9  and  C_10
REMARK    2  A    between atoms: C_10  and  O_11
REMARK    3  A    between atoms: C_13  and  O_14
REMARK    4  A    between atoms: O_14  and  C_15
REMARK                            x       y       z     vdW  Elec       q    Type
REMARK                         _______ _______ _______ _____ _____    ______ ____
ROOT
ATOM      1  O   LIG A   1      -9.521  -3.305 126.251  0.00  0.00    -0.245 OA
ATOM      2  C   LIG A   1      -9.155  -2.395 125.517  0.00  0.00    +0.337 A 
ATOM      3  C   LIG A   1      -8.487  -2.683 124.236  0.00  0.00    +0.092 A 
ATOM      4  C   LIG A   1      -8.068  -1.717 123.411  0.00  0.00    +0.018 A 
ATOM      5  O   LIG A   1      -9.347  -1.058 125.837  0.00  0.00    -0.422 OA
ATOM      6  C   LIG A   1      -8.903  -0.030 124.982  0.00  0.00    +0.143 A 
ATOM      7  C   LIG A   1      -8.269  -0.326 123.780  0.00  0.00    +0.019 A 
ATOM      8  C   LIG A   1      -7.843   0.726 122.971  0.00  0.00    +0.030 A 
ATOM      9  C   LIG A   1      -8.051   2.062 123.373  0.00  0.00    +0.101 A 
ATOM     10  C   LIG A   1      -8.694   2.347 124.595  0.00  0.00    +0.138 A 
ATOM     11  C   LIG A   1      -9.124   1.284 125.396  0.00  0.00    +0.093 A 
ENDROOT
BRANCH   9  12
ATOM     12  C   LIG A   1      -7.559   3.158 122.497  0.00  0.00    +0.340 C 
ATOM     13  O   LIG A   1      -6.413   3.524 122.321  0.00  0.00    -0.245 OA
BRANCH  12  14
ATOM     14  O   LIG A   1      -8.579   3.770 121.859  0.00  0.00    -0.477 OA
ATOM     15  H   LIG A   1      -8.122   4.408 121.271  0.00  0.00    +0.295 HD
ENDBRANCH  12  14
ENDBRANCH   9  12
BRANCH  10  16
ATOM     16  O   LIG A   1      -8.881   3.665 124.914  0.00  0.00    -0.494 OA
ATOM     17  C   LIG A   1      -7.985   4.266 125.839  0.00  0.00    +0.277 C 
ENDBRANCH  10  16
TORSDOF 3
ENDMDL
MODEL 8
REMARK VINA RESULT:      -5.6      2.013      5.230
REMARK  Name = NuBBE_1266
REMARK  4 active torsions:
REMARK  status: ('A' for Active; 'I' for Inactive)
REMARK    1  A    between atoms: C_9  and  C_10
REMARK    2  A    between atoms: C_10  and  O_11
REMARK    3  A    between atoms: C_13  and  O_14
REMARK    4  A    between atoms: O_14  and  C_15
REMARK                            x       y       z     vdW  Elec       q    Type
REMARK                         _______ _______ _______ _____ _____    ______ ____
ROOT
ATOM      1  O   LIG A   1      -7.972   3.722 131.535  0.00  0.00    -0.245 OA
ATOM      2  C   LIG A   1      -8.805   4.604 131.369  0.00  0.00    +0.337 A 
ATOM      3  C   LIG A   1      -9.654   5.059 132.484  0.00  0.00    +0.092 A 
ATOM      4  C   LIG A   1     -10.578   6.014 132.340  0.00  0.00    +0.018 A 
ATOM      5  O   LIG A   1      -8.998   5.223 130.141  0.00  0.00    -0.422 OA
ATOM      6  C   LIG A   1      -9.974   6.225 129.973  0.00  0.00    +0.143 A 
ATOM      7  C   LIG A   1     -10.768   6.634 131.038  0.00  0.00    +0.019 A 
ATOM      8  C   LIG A   1     -11.724   7.624 130.820  0.00  0.00    +0.030 A 
ATOM      9  C   LIG A   1     -11.879   8.192 129.539  0.00  0.00    +0.101 A 
ATOM     10  C   LIG A   1     -11.069   7.766 128.466  0.00  0.00    +0.138 A 
ATOM     11  C   LIG A   1     -10.107   6.777 128.698  0.00  0.00    +0.093 A 
ENDROOT
BRANCH   9  12
ATOM     12  C   LIG A   1     -12.928   9.227 129.337  0.00  0.00    +0.340 C 
ATOM     13  O   LIG A   1     -13.137  10.226 129.997  0.00  0.00    -0.245 OA
BRANCH  12  14
ATOM     14  O   LIG A   1     -13.699   8.940 128.268  0.00  0.00    -0.477 OA
ATOM     15  H   LIG A   1     -14.608   8.962 128.636  0.00  0.00    +0.295 HD
ENDBRANCH  12  14
ENDBRANCH   9  12
BRANCH  10  16
ATOM     16  O   LIG A   1     -11.259   8.374 127.255  0.00  0.00    -0.494 OA
ATOM     17  C   LIG A   1     -10.893   7.660 126.081  0.00  0.00    +0.277 C 
ENDBRANCH  10  16
TORSDOF 3
ENDMDL
MODEL 9
REMARK VINA RESULT:      -5.5      6.821      9.004
REMARK  Name = NuBBE_1266
REMARK  4 active torsions:
REMARK  status: ('A' for Active; 'I' for Inactive)
REMARK    1  A    between atoms: C_9  and  C_10
REMARK    2  A    between atoms: C_10  and  O_11
REMARK    3  A    between atoms: C_13  and  O_14
REMARK    4  A    between atoms: O_14  and  C_15
REMARK                            x       y       z     vdW  Elec       q    Type
REMARK                         _______ _______ _______ _____ _____    ______ ____
ROOT
ATOM      1  O   LIG A   1      -9.765  -3.647 123.607  0.00  0.00    -0.245 OA
ATOM      2  C   LIG A   1      -9.432  -2.560 124.062  0.00  0.00    +0.337 A 
ATOM      3  C   LIG A   1      -9.015  -2.427 125.469  0.00  0.00    +0.092 A 
ATOM      4  C   LIG A   1      -8.650  -1.257 126.002  0.00  0.00    +0.018 A 
ATOM      5  O   LIG A   1      -9.423  -1.403 123.293  0.00  0.00    -0.422 OA
ATOM      6  C   LIG A   1      -9.050  -0.162 123.846  0.00  0.00    +0.143 A 
ATOM      7  C   LIG A   1      -8.665  -0.060 125.178  0.00  0.00    +0.019 A 
ATOM      8  C   LIG A   1      -8.311   1.192 125.678  0.00  0.00    +0.030 A 
ATOM      9  C   LIG A   1      -8.348   2.328 124.845  0.00  0.00    +0.101 A 
ATOM     10  C   LIG A   1      -8.741   2.210 123.496  0.00  0.00    +0.138 A 
ATOM     11  C   LIG A   1      -9.089   0.948 123.001  0.00  0.00    +0.093 A 
ENDROOT
BRANCH   9  12
ATOM     12  C   LIG A   1      -7.988   3.651 125.421  0.00  0.00    +0.340 C 
ATOM     13  O   LIG A   1      -6.902   4.032 125.813  0.00  0.00    -0.245 OA
BRANCH  12  14
ATOM     14  O   LIG A   1      -9.062   4.465 125.482  0.00  0.00    -0.477 OA
ATOM     15  H   LIG A   1      -9.752   3.894 125.882  0.00  0.00    +0.295 HD
ENDBRANCH  12  14
ENDBRANCH   9  12
BRANCH  10  16
ATOM     16  O   LIG A   1      -8.736   3.350 122.738  0.00  0.00    -0.494 OA
ATOM     17  C   LIG A   1      -8.043   3.327 121.497  0.00  0.00    +0.277 C 
ENDBRANCH  10  16
TORSDOF 3
ENDMDL
