MODEL 1
REMARK VINA RESULT:      -6.6      0.000      0.000
REMARK  Name = NuBBE_1351
REMARK  6 active torsions:
REMARK  status: ('A' for Active; 'I' for Inactive)
REMARK    1  A    between atoms: C_1  and  C_2
REMARK    2  A    between atoms: C_5  and  C_6
REMARK    3  A    between atoms: C_11  and  C_15
REMARK    4  A    between atoms: C_15  and  O_16
REMARK    5  A    between atoms: C_15  and  C_17
REMARK    6  A    between atoms: C_15  and  C_18
REMARK                            x       y       z     vdW  Elec       q    Type
REMARK                         _______ _______ _______ _____ _____    ______ ____
ROOT
ATOM      1  C   LIG A   1      -6.329  -0.097 127.075  0.00  0.00    +0.008 C 
ATOM      2  C   LIG A   1      -7.000  -1.458 126.832  0.00  0.00    -0.004 C 
ATOM      3  C   LIG A   1      -7.864  -1.562 125.519  0.00  0.00    -0.006 C 
ATOM      4  C   LIG A   1      -8.686  -2.873 125.516  0.00  0.00    -0.070 C 
ATOM      5  C   LIG A   1      -9.328  -3.333 124.227  0.00  0.00    +0.039 C 
ATOM      6  C   LIG A   1      -8.866  -3.610 126.629  0.00  0.00    -0.027 C 
ATOM      7  C   LIG A   1      -8.336  -3.262 127.984  0.00  0.00    +0.027 C 
ATOM      8  C   LIG A   1      -7.826  -1.831 128.073  0.00  0.00    +0.008 C 
ATOM      9  C   LIG A   1      -8.839  -0.356 125.345  0.00  0.00    +0.017 C 
ATOM     10  C   LIG A   1      -8.256   0.505 124.216  0.00  0.00    +0.021 C 
ATOM     11  C   LIG A   1      -7.598  -0.528 123.301  0.00  0.00    +0.007 C 
ATOM     12  C   LIG A   1      -6.921  -1.480 124.281  0.00  0.00    +0.012 C 
ENDROOT
BRANCH  10  13
ATOM     13  C   LIG A   1      -9.242   1.479 123.528  0.00  0.00    +0.063 C 
ATOM     14  C   LIG A   1      -8.581   2.617 122.744  0.00  0.00    +0.041 C 
ATOM     15  C   LIG A   1     -10.199   0.714 122.604  0.00  0.00    +0.041 C 
BRANCH  13  16
ATOM     16  O   LIG A   1     -10.060   2.073 124.546  0.00  0.00    -0.389 OA
ATOM     17  H   LIG A   1     -10.932   2.261 124.162  0.00  0.00    +0.210 HD
ENDBRANCH  13  16
ENDBRANCH  10  13
TORSDOF 2
ENDMDL
MODEL 2
REMARK VINA RESULT:      -6.3      2.223      3.535
REMARK  Name = NuBBE_1351
REMARK  6 active torsions:
REMARK  status: ('A' for Active; 'I' for Inactive)
REMARK    1  A    between atoms: C_1  and  C_2
REMARK    2  A    between atoms: C_5  and  C_6
REMARK    3  A    between atoms: C_11  and  C_15
REMARK    4  A    between atoms: C_15  and  O_16
REMARK    5  A    between atoms: C_15  and  C_17
REMARK    6  A    between atoms: C_15  and  C_18
REMARK                            x       y       z     vdW  Elec       q    Type
REMARK                         _______ _______ _______ _____ _____    ______ ____
ROOT
ATOM      1  C   LIG A   1      -8.989  -1.695 122.951  0.00  0.00    +0.008 C 
ATOM      2  C   LIG A   1      -7.815  -1.832 123.933  0.00  0.00    -0.004 C 
ATOM      3  C   LIG A   1      -7.252  -0.477 124.508  0.00  0.00    -0.006 C 
ATOM      4  C   LIG A   1      -5.929  -0.723 125.270  0.00  0.00    -0.070 C 
ATOM      5  C   LIG A   1      -5.387   0.365 126.170  0.00  0.00    +0.039 C 
ATOM      6  C   LIG A   1      -5.229  -1.867 125.145  0.00  0.00    -0.027 C 
ATOM      7  C   LIG A   1      -5.610  -3.012 124.260  0.00  0.00    +0.027 C 
ATOM      8  C   LIG A   1      -6.704  -2.656 123.264  0.00  0.00    +0.008 C 
ATOM      9  C   LIG A   1      -7.003   0.589 123.397  0.00  0.00    +0.017 C 
ATOM     10  C   LIG A   1      -8.112   1.639 123.556  0.00  0.00    +0.021 C 
ATOM     11  C   LIG A   1      -8.362   1.649 125.064  0.00  0.00    +0.007 C 
ATOM     12  C   LIG A   1      -8.328   0.170 125.432  0.00  0.00    +0.012 C 
ENDROOT
BRANCH  10  13
ATOM     13  C   LIG A   1      -7.836   3.019 122.913  0.00  0.00    +0.063 C 
ATOM     14  C   LIG A   1      -6.372   3.276 122.543  0.00  0.00    +0.041 C 
ATOM     15  C   LIG A   1      -8.716   3.223 121.673  0.00  0.00    +0.041 C 
BRANCH  13  16
ATOM     16  O   LIG A   1      -8.229   4.030 123.852  0.00  0.00    -0.389 OA
ATOM     17  H   LIG A   1      -7.573   4.048 124.569  0.00  0.00    +0.210 HD
ENDBRANCH  13  16
ENDBRANCH  10  13
TORSDOF 2
ENDMDL
MODEL 3
REMARK VINA RESULT:      -5.9      7.824      9.981
REMARK  Name = NuBBE_1351
REMARK  6 active torsions:
REMARK  status: ('A' for Active; 'I' for Inactive)
REMARK    1  A    between atoms: C_1  and  C_2
REMARK    2  A    between atoms: C_5  and  C_6
REMARK    3  A    between atoms: C_11  and  C_15
REMARK    4  A    between atoms: C_15  and  O_16
REMARK    5  A    between atoms: C_15  and  C_17
REMARK    6  A    between atoms: C_15  and  C_18
REMARK                            x       y       z     vdW  Elec       q    Type
REMARK                         _______ _______ _______ _____ _____    ______ ____
ROOT
ATOM      1  C   LIG A   1     -10.127   6.689 126.864  0.00  0.00    +0.008 C 
ATOM      2  C   LIG A   1     -11.215   7.369 127.711  0.00  0.00    -0.004 C 
ATOM      3  C   LIG A   1     -11.234   6.971 129.235  0.00  0.00    -0.006 C 
ATOM      4  C   LIG A   1     -12.512   7.510 129.919  0.00  0.00    -0.070 C 
ATOM      5  C   LIG A   1     -12.585   7.528 131.429  0.00  0.00    +0.039 C 
ATOM      6  C   LIG A   1     -13.574   7.947 129.214  0.00  0.00    -0.027 C 
ATOM      7  C   LIG A   1     -13.671   7.947 127.721  0.00  0.00    +0.027 C 
ATOM      8  C   LIG A   1     -12.581   7.119 127.054  0.00  0.00    +0.008 C 
ATOM      9  C   LIG A   1     -11.159   5.427 129.453  0.00  0.00    +0.017 C 
ATOM     10  C   LIG A   1      -9.746   5.137 129.977  0.00  0.00    +0.021 C 
ATOM     11  C   LIG A   1      -9.420   6.388 130.794  0.00  0.00    +0.007 C 
ATOM     12  C   LIG A   1      -9.947   7.521 129.921  0.00  0.00    +0.012 C 
ENDROOT
BRANCH  10  13
ATOM     13  C   LIG A   1      -9.559   3.789 130.713  0.00  0.00    +0.063 C 
ATOM     14  C   LIG A   1      -8.875   2.695 129.887  0.00  0.00    +0.041 C 
ATOM     15  C   LIG A   1      -8.789   3.992 132.024  0.00  0.00    +0.041 C 
BRANCH  13  16
ATOM     16  O   LIG A   1     -10.857   3.304 131.083  0.00  0.00    -0.389 OA
ATOM     17  H   LIG A   1     -11.178   3.836 131.829  0.00  0.00    +0.210 HD
ENDBRANCH  13  16
ENDBRANCH  10  13
TORSDOF 2
ENDMDL
MODEL 4
REMARK VINA RESULT:      -5.9      5.728      7.725
REMARK  Name = NuBBE_1351
REMARK  6 active torsions:
REMARK  status: ('A' for Active; 'I' for Inactive)
REMARK    1  A    between atoms: C_1  and  C_2
REMARK    2  A    between atoms: C_5  and  C_6
REMARK    3  A    between atoms: C_11  and  C_15
REMARK    4  A    between atoms: C_15  and  O_16
REMARK    5  A    between atoms: C_15  and  C_17
REMARK    6  A    between atoms: C_15  and  C_18
REMARK                            x       y       z     vdW  Elec       q    Type
REMARK                         _______ _______ _______ _____ _____    ______ ____
ROOT
ATOM      1  C   LIG A   1      -2.436   6.869 128.063  0.00  0.00    +0.008 C 
ATOM      2  C   LIG A   1      -2.563   5.677 129.025  0.00  0.00    -0.004 C 
ATOM      3  C   LIG A   1      -3.395   4.454 128.483  0.00  0.00    -0.006 C 
ATOM      4  C   LIG A   1      -3.667   3.440 129.618  0.00  0.00    -0.070 C 
ATOM      5  C   LIG A   1      -4.159   2.055 129.263  0.00  0.00    +0.039 C 
ATOM      6  C   LIG A   1      -3.500   3.754 130.917  0.00  0.00    -0.027 C 
ATOM      7  C   LIG A   1      -3.067   5.092 131.427  0.00  0.00    +0.027 C 
ATOM      8  C   LIG A   1      -3.123   6.180 130.364  0.00  0.00    +0.008 C 
ATOM      9  C   LIG A   1      -4.757   4.886 127.855  0.00  0.00    +0.017 C 
ATOM     10  C   LIG A   1      -4.598   4.725 126.337  0.00  0.00    +0.021 C 
ATOM     11  C   LIG A   1      -3.652   3.530 126.215  0.00  0.00    +0.007 C 
ATOM     12  C   LIG A   1      -2.618   3.793 127.304  0.00  0.00    +0.012 C 
ENDROOT
BRANCH  10  13
ATOM     13  C   LIG A   1      -5.912   4.625 125.525  0.00  0.00    +0.063 C 
ATOM     14  C   LIG A   1      -5.847   3.697 124.308  0.00  0.00    +0.041 C 
ATOM     15  C   LIG A   1      -7.074   4.196 126.429  0.00  0.00    +0.041 C 
BRANCH  13  16
ATOM     16  O   LIG A   1      -6.238   5.939 125.051  0.00  0.00    -0.389 OA
ATOM     17  H   LIG A   1      -7.178   6.102 125.234  0.00  0.00    +0.210 HD
ENDBRANCH  13  16
ENDBRANCH  10  13
TORSDOF 2
ENDMDL
MODEL 5
REMARK VINA RESULT:      -5.8      2.179      5.014
REMARK  Name = NuBBE_1351
REMARK  6 active torsions:
REMARK  status: ('A' for Active; 'I' for Inactive)
REMARK    1  A    between atoms: C_1  and  C_2
REMARK    2  A    between atoms: C_5  and  C_6
REMARK    3  A    between atoms: C_11  and  C_15
REMARK    4  A    between atoms: C_15  and  O_16
REMARK    5  A    between atoms: C_15  and  C_17
REMARK    6  A    between atoms: C_15  and  C_18
REMARK                            x       y       z     vdW  Elec       q    Type
REMARK                         _______ _______ _______ _____ _____    ______ ____
ROOT
ATOM      1  C   LIG A   1      -6.004   1.482 125.653  0.00  0.00    +0.008 C 
ATOM      2  C   LIG A   1      -7.092   2.045 124.725  0.00  0.00    -0.004 C 
ATOM      3  C   LIG A   1      -8.254   1.047 124.358  0.00  0.00    -0.006 C 
ATOM      4  C   LIG A   1      -9.136   1.634 123.231  0.00  0.00    -0.070 C 
ATOM      5  C   LIG A   1     -10.480   1.004 122.948  0.00  0.00    +0.039 C 
ATOM      6  C   LIG A   1      -8.738   2.677 122.478  0.00  0.00    -0.027 C 
ATOM      7  C   LIG A   1      -7.420   3.373 122.605  0.00  0.00    +0.027 C 
ATOM      8  C   LIG A   1      -6.422   2.607 123.461  0.00  0.00    +0.008 C 
ATOM      9  C   LIG A   1      -7.724  -0.350 123.908  0.00  0.00    +0.017 C 
ATOM     10  C   LIG A   1      -8.024  -1.315 125.063  0.00  0.00    +0.021 C 
ATOM     11  C   LIG A   1      -9.324  -0.758 125.646  0.00  0.00    +0.007 C 
ATOM     12  C   LIG A   1      -9.091   0.748 125.638  0.00  0.00    +0.012 C 
ENDROOT
BRANCH  10  13
ATOM     13  C   LIG A   1      -8.041  -2.820 124.704  0.00  0.00    +0.063 C 
ATOM     14  C   LIG A   1      -9.070  -3.215 123.639  0.00  0.00    +0.041 C 
ATOM     15  C   LIG A   1      -6.648  -3.285 124.261  0.00  0.00    +0.041 C 
BRANCH  13  16
ATOM     16  O   LIG A   1      -8.348  -3.555 125.896  0.00  0.00    -0.389 OA
ATOM     17  H   LIG A   1      -9.314  -3.637 125.961  0.00  0.00    +0.210 HD
ENDBRANCH  13  16
ENDBRANCH  10  13
TORSDOF 2
ENDMDL
MODEL 6
REMARK VINA RESULT:      -5.8      3.212      5.637
REMARK  Name = NuBBE_1351
REMARK  6 active torsions:
REMARK  status: ('A' for Active; 'I' for Inactive)
REMARK    1  A    between atoms: C_1  and  C_2
REMARK    2  A    between atoms: C_5  and  C_6
REMARK    3  A    between atoms: C_11  and  C_15
REMARK    4  A    between atoms: C_15  and  O_16
REMARK    5  A    between atoms: C_15  and  C_17
REMARK    6  A    between atoms: C_15  and  C_18
REMARK                            x       y       z     vdW  Elec       q    Type
REMARK                         _______ _______ _______ _____ _____    ______ ____
ROOT
ATOM      1  C   LIG A   1      -5.869  -0.172 125.379  0.00  0.00    +0.008 C 
ATOM      2  C   LIG A   1      -6.998  -1.213 125.423  0.00  0.00    -0.004 C 
ATOM      3  C   LIG A   1      -7.202  -1.933 126.809  0.00  0.00    -0.006 C 
ATOM      4  C   LIG A   1      -8.178  -3.124 126.661  0.00  0.00    -0.070 C 
ATOM      5  C   LIG A   1      -8.767  -3.749 127.906  0.00  0.00    +0.039 C 
ATOM      6  C   LIG A   1      -8.508  -3.638 125.460  0.00  0.00    -0.027 C 
ATOM      7  C   LIG A   1      -7.973  -3.160 124.148  0.00  0.00    +0.027 C 
ATOM      8  C   LIG A   1      -6.775  -2.233 124.295  0.00  0.00    +0.008 C 
ATOM      9  C   LIG A   1      -5.863  -2.452 127.419  0.00  0.00    +0.017 C 
ATOM     10  C   LIG A   1      -5.537  -1.517 128.592  0.00  0.00    +0.021 C 
ATOM     11  C   LIG A   1      -6.920  -1.135 129.121  0.00  0.00    +0.007 C 
ATOM     12  C   LIG A   1      -7.725  -0.896 127.849  0.00  0.00    +0.012 C 
ENDROOT
BRANCH  10  13
ATOM     13  C   LIG A   1      -4.547  -2.070 129.645  0.00  0.00    +0.063 C 
ATOM     14  C   LIG A   1      -5.134  -2.253 131.048  0.00  0.00    +0.041 C 
ATOM     15  C   LIG A   1      -3.941  -3.397 129.170  0.00  0.00    +0.041 C 
BRANCH  13  16
ATOM     16  O   LIG A   1      -3.454  -1.147 129.750  0.00  0.00    -0.389 OA
ATOM     17  H   LIG A   1      -3.544  -0.666 130.589  0.00  0.00    +0.210 HD
ENDBRANCH  13  16
ENDBRANCH  10  13
TORSDOF 2
ENDMDL
MODEL 7
REMARK VINA RESULT:      -5.8      2.475      5.180
REMARK  Name = NuBBE_1351
REMARK  6 active torsions:
REMARK  status: ('A' for Active; 'I' for Inactive)
REMARK    1  A    between atoms: C_1  and  C_2
REMARK    2  A    between atoms: C_5  and  C_6
REMARK    3  A    between atoms: C_11  and  C_15
REMARK    4  A    between atoms: C_15  and  O_16
REMARK    5  A    between atoms: C_15  and  C_17
REMARK    6  A    between atoms: C_15  and  C_18
REMARK                            x       y       z     vdW  Elec       q    Type
REMARK                         _______ _______ _______ _____ _____    ______ ____
ROOT
ATOM      1  C   LIG A   1      -9.283   0.525 126.094  0.00  0.00    +0.008 C 
ATOM      2  C   LIG A   1      -8.661  -0.318 124.970  0.00  0.00    -0.004 C 
ATOM      3  C   LIG A   1      -8.077  -1.712 125.413  0.00  0.00    -0.006 C 
ATOM      4  C   LIG A   1      -7.259  -2.346 124.262  0.00  0.00    -0.070 C 
ATOM      5  C   LIG A   1      -6.884  -3.808 124.347  0.00  0.00    +0.039 C 
ATOM      6  C   LIG A   1      -6.852  -1.634 123.194  0.00  0.00    -0.027 C 
ATOM      7  C   LIG A   1      -7.103  -0.173 122.991  0.00  0.00    +0.027 C 
ATOM      8  C   LIG A   1      -7.599   0.526 124.249  0.00  0.00    +0.008 C 
ATOM      9  C   LIG A   1      -7.169  -1.608 126.678  0.00  0.00    +0.017 C 
ATOM     10  C   LIG A   1      -7.975  -2.216 127.834  0.00  0.00    +0.021 C 
ATOM     11  C   LIG A   1      -8.793  -3.309 127.145  0.00  0.00    +0.007 C 
ATOM     12  C   LIG A   1      -9.249  -2.639 125.853  0.00  0.00    +0.012 C 
ENDROOT
BRANCH  10  13
ATOM     13  C   LIG A   1      -7.157  -2.668 129.067  0.00  0.00    +0.063 C 
ATOM     14  C   LIG A   1      -5.636  -2.586 128.896  0.00  0.00    +0.041 C 
ATOM     15  C   LIG A   1      -7.571  -1.872 130.311  0.00  0.00    +0.041 C 
BRANCH  13  16
ATOM     16  O   LIG A   1      -7.488  -4.037 129.339  0.00  0.00    -0.389 OA
ATOM     17  H   LIG A   1      -7.794  -4.097 130.259  0.00  0.00    +0.210 HD
ENDBRANCH  13  16
ENDBRANCH  10  13
TORSDOF 2
ENDMDL
MODEL 8
REMARK VINA RESULT:      -5.8      4.632      6.508
REMARK  Name = NuBBE_1351
REMARK  6 active torsions:
REMARK  status: ('A' for Active; 'I' for Inactive)
REMARK    1  A    between atoms: C_1  and  C_2
REMARK    2  A    between atoms: C_5  and  C_6
REMARK    3  A    between atoms: C_11  and  C_15
REMARK    4  A    between atoms: C_15  and  O_16
REMARK    5  A    between atoms: C_15  and  C_17
REMARK    6  A    between atoms: C_15  and  C_18
REMARK                            x       y       z     vdW  Elec       q    Type
REMARK                         _______ _______ _______ _____ _____    ______ ____
ROOT
ATOM      1  C   LIG A   1      -1.926   3.260 126.481  0.00  0.00    +0.008 C 
ATOM      2  C   LIG A   1      -2.834   3.362 127.717  0.00  0.00    -0.004 C 
ATOM      3  C   LIG A   1      -4.381   3.354 127.423  0.00  0.00    -0.006 C 
ATOM      4  C   LIG A   1      -5.177   3.717 128.699  0.00  0.00    -0.070 C 
ATOM      5  C   LIG A   1      -6.665   3.457 128.736  0.00  0.00    +0.039 C 
ATOM      6  C   LIG A   1      -4.590   4.278 129.775  0.00  0.00    -0.027 C 
ATOM      7  C   LIG A   1      -3.142   4.639 129.871  0.00  0.00    +0.027 C 
ATOM      8  C   LIG A   1      -2.429   4.603 128.527  0.00  0.00    +0.008 C 
ATOM      9  C   LIG A   1      -4.781   4.341 126.282  0.00  0.00    +0.017 C 
ATOM     10  C   LIG A   1      -5.118   3.472 125.063  0.00  0.00    +0.021 C 
ATOM     11  C   LIG A   1      -5.710   2.211 125.693  0.00  0.00    +0.007 C 
ATOM     12  C   LIG A   1      -4.789   1.951 126.880  0.00  0.00    +0.012 C 
ENDROOT
BRANCH  10  13
ATOM     13  C   LIG A   1      -5.983   4.144 123.970  0.00  0.00    +0.063 C 
ATOM     14  C   LIG A   1      -5.265   4.382 122.637  0.00  0.00    +0.041 C 
ATOM     15  C   LIG A   1      -7.262   3.335 123.720  0.00  0.00    +0.041 C 
BRANCH  13  16
ATOM     16  O   LIG A   1      -6.409   5.421 124.466  0.00  0.00    -0.389 OA
ATOM     17  H   LIG A   1      -6.832   5.903 123.737  0.00  0.00    +0.210 HD
ENDBRANCH  13  16
ENDBRANCH  10  13
TORSDOF 2
ENDMDL
MODEL 9
REMARK VINA RESULT:      -5.7      3.482      6.309
REMARK  Name = NuBBE_1351
REMARK  6 active torsions:
REMARK  status: ('A' for Active; 'I' for Inactive)
REMARK    1  A    between atoms: C_1  and  C_2
REMARK    2  A    between atoms: C_5  and  C_6
REMARK    3  A    between atoms: C_11  and  C_15
REMARK    4  A    between atoms: C_15  and  O_16
REMARK    5  A    between atoms: C_15  and  C_17
REMARK    6  A    between atoms: C_15  and  C_18
REMARK                            x       y       z     vdW  Elec       q    Type
REMARK                         _______ _______ _______ _____ _____    ______ ____
ROOT
ATOM      1  C   LIG A   1      -6.722   0.416 128.140  0.00  0.00    +0.008 C 
ATOM      2  C   LIG A   1      -7.753  -0.589 127.602  0.00  0.00    -0.004 C 
ATOM      3  C   LIG A   1      -7.723  -2.015 128.271  0.00  0.00    -0.006 C 
ATOM      4  C   LIG A   1      -8.615  -3.001 127.482  0.00  0.00    -0.070 C 
ATOM      5  C   LIG A   1      -8.990  -4.321 128.117  0.00  0.00    +0.039 C 
ATOM      6  C   LIG A   1      -9.054  -2.734 126.237  0.00  0.00    -0.027 C 
ATOM      7  C   LIG A   1      -8.729  -1.497 125.460  0.00  0.00    +0.027 C 
ATOM      8  C   LIG A   1      -7.597  -0.688 126.076  0.00  0.00    +0.008 C 
ATOM      9  C   LIG A   1      -6.281  -2.604 128.365  0.00  0.00    +0.017 C 
ATOM     10  C   LIG A   1      -5.881  -2.523 129.845  0.00  0.00    +0.021 C 
ATOM     11  C   LIG A   1      -7.211  -2.730 130.571  0.00  0.00    +0.007 C 
ATOM     12  C   LIG A   1      -8.187  -1.891 129.754  0.00  0.00    +0.012 C 
ENDROOT
BRANCH  10  13
ATOM     13  C   LIG A   1      -4.725  -3.452 130.286  0.00  0.00    +0.063 C 
ATOM     14  C   LIG A   1      -5.162  -4.840 130.767  0.00  0.00    +0.041 C 
ATOM     15  C   LIG A   1      -3.696  -3.606 129.159  0.00  0.00    +0.041 C 
BRANCH  13  16
ATOM     16  O   LIG A   1      -4.037  -2.815 131.372  0.00  0.00    -0.389 OA
ATOM     17  H   LIG A   1      -3.894  -3.476 132.069  0.00  0.00    +0.210 HD
ENDBRANCH  13  16
ENDBRANCH  10  13
TORSDOF 2
ENDMDL
