MODEL 1
REMARK VINA RESULT:      -8.8      0.000      0.000
REMARK  Name = NuBBE_2165
REMARK  4 active torsions:
REMARK  status: ('A' for Active; 'I' for Inactive)
REMARK    1  A    between atoms: O_1  and  C_2
REMARK    2  A    between atoms: C_2  and  C_20
REMARK    3  A    between atoms: C_13  and  C_15
REMARK    4  A    between atoms: C_16  and  C_18
REMARK                            x       y       z     vdW  Elec       q    Type
REMARK                         _______ _______ _______ _____ _____    ______ ____
ROOT
ATOM      1  C   LIG A   1      -7.737   2.597 124.421  0.00  0.00    +0.123 C 
ATOM      2  C   LIG A   1      -7.155   1.214 124.661  0.00  0.00    +0.044 A 
ATOM      3  C   LIG A   1      -7.740   0.069 124.126  0.00  0.00    +0.173 A 
ATOM      4  O   LIG A   1      -8.874   0.041 123.364  0.00  0.00    -0.452 OA
ATOM      5  C   LIG A   1      -8.988  -1.370 123.080  0.00  0.00    +0.466 C 
ATOM      6  O   LIG A   1      -7.950  -2.158 123.693  0.00  0.00    -0.453 OA
ATOM      7  C   LIG A   1      -7.220  -1.193 124.310  0.00  0.00    +0.167 A 
ATOM      8  C   LIG A   1      -6.075  -1.404 125.040  0.00  0.00    +0.050 A 
ATOM      9  C   LIG A   1      -5.441  -0.285 125.583  0.00  0.00    +0.015 A 
ATOM     10  C   LIG A   1      -5.968   1.015 125.389  0.00  0.00    +0.028 A 
ATOM     11  C   LIG A   1      -5.205   2.170 125.939  0.00  0.00    +0.167 C 
ATOM     12  C   LIG A   1      -5.679   3.573 125.585  0.00  0.00    +0.063 C 
ATOM     13  C   LIG A   1      -5.109   4.598 126.568  0.00  0.00    +0.016 C 
ATOM     14  C   LIG A   1      -7.218   3.630 125.473  0.00  0.00    +0.037 C 
ATOM     15  C   LIG A   1      -7.907   3.479 126.847  0.00  0.00    +0.012 C 
ATOM     16  O   LIG A   1      -4.184   1.963 126.588  0.00  0.00    -0.292 OA
ENDROOT
BRANCH   1  17
ATOM     17  C   LIG A   1      -7.506   3.103 122.981  0.00  0.00    -0.008 A 
ATOM     18  C   LIG A   1      -8.608   3.315 122.125  0.00  0.00    +0.056 A 
ATOM     19  C   LIG A   1      -8.377   3.723 120.827  0.00  0.00    +0.167 A 
ATOM     20  C   LIG A   1      -7.110   3.956 120.355  0.00  0.00    +0.166 A 
ATOM     21  O   LIG A   1      -7.101   4.340 119.052  0.00  0.00    -0.453 OA
ATOM     22  C   LIG A   1      -8.510   4.286 118.746  0.00  0.00    +0.466 C 
ATOM     23  O   LIG A   1      -9.330   3.930 119.878  0.00  0.00    -0.453 OA
ATOM     24  C   LIG A   1      -6.003   3.798 121.157  0.00  0.00    +0.050 A 
ATOM     25  C   LIG A   1      -6.205   3.368 122.474  0.00  0.00    +0.010 A 
ENDBRANCH   1  17
BRANCH   1  26
ATOM     26  O   LIG A   1      -9.160   2.500 124.610  0.00  0.00    -0.379 OA
ATOM     27  H   LIG A   1      -9.412   3.238 125.196  0.00  0.00    +0.211 HD
ENDBRANCH   1  26
TORSDOF 2
ENDMDL
MODEL 2
REMARK VINA RESULT:      -8.4      4.851      7.485
REMARK  Name = NuBBE_2165
REMARK  4 active torsions:
REMARK  status: ('A' for Active; 'I' for Inactive)
REMARK    1  A    between atoms: O_1  and  C_2
REMARK    2  A    between atoms: C_2  and  C_20
REMARK    3  A    between atoms: C_13  and  C_15
REMARK    4  A    between atoms: C_16  and  C_18
REMARK                            x       y       z     vdW  Elec       q    Type
REMARK                         _______ _______ _______ _____ _____    ______ ____
ROOT
ATOM      1  C   LIG A   1      -6.429  -1.644 128.522  0.00  0.00    +0.123 C 
ATOM      2  C   LIG A   1      -7.209  -0.909 129.600  0.00  0.00    +0.044 A 
ATOM      3  C   LIG A   1      -7.732   0.364 129.387  0.00  0.00    +0.173 A 
ATOM      4  O   LIG A   1      -7.603   1.092 128.238  0.00  0.00    -0.452 OA
ATOM      5  C   LIG A   1      -8.345   2.283 128.575  0.00  0.00    +0.466 C 
ATOM      6  O   LIG A   1      -8.877   2.262 129.913  0.00  0.00    -0.453 OA
ATOM      7  C   LIG A   1      -8.461   1.041 130.340  0.00  0.00    +0.167 A 
ATOM      8  C   LIG A   1      -8.723   0.496 131.573  0.00  0.00    +0.050 A 
ATOM      9  C   LIG A   1      -8.234  -0.786 131.829  0.00  0.00    +0.015 A 
ATOM     10  C   LIG A   1      -7.492  -1.490 130.849  0.00  0.00    +0.028 A 
ATOM     11  C   LIG A   1      -7.058  -2.879 131.163  0.00  0.00    +0.167 C 
ATOM     12  C   LIG A   1      -6.411  -3.694 130.051  0.00  0.00    +0.063 C 
ATOM     13  C   LIG A   1      -5.625  -4.871 130.633  0.00  0.00    +0.016 C 
ATOM     14  C   LIG A   1      -5.563  -2.798 129.124  0.00  0.00    +0.037 C 
ATOM     15  C   LIG A   1      -4.286  -2.281 129.822  0.00  0.00    +0.012 C 
ATOM     16  O   LIG A   1      -7.301  -3.351 132.270  0.00  0.00    -0.292 OA
ENDROOT
BRANCH   1  17
ATOM     17  C   LIG A   1      -7.329  -2.161 127.378  0.00  0.00    -0.008 A 
ATOM     18  C   LIG A   1      -7.011  -1.851 126.038  0.00  0.00    +0.056 A 
ATOM     19  C   LIG A   1      -7.853  -2.283 125.034  0.00  0.00    +0.167 A 
ATOM     20  C   LIG A   1      -8.974  -3.028 125.300  0.00  0.00    +0.166 A 
ATOM     21  O   LIG A   1      -9.670  -3.342 124.176  0.00  0.00    -0.453 OA
ATOM     22  C   LIG A   1      -8.874  -2.676 123.172  0.00  0.00    +0.466 C 
ATOM     23  O   LIG A   1      -7.700  -2.031 123.706  0.00  0.00    -0.453 OA
ATOM     24  C   LIG A   1      -9.313  -3.387 126.584  0.00  0.00    +0.050 A 
ATOM     25  C   LIG A   1      -8.486  -2.948 127.626  0.00  0.00    +0.010 A 
ENDBRANCH   1  17
BRANCH   1  26
ATOM     26  O   LIG A   1      -5.511  -0.701 127.942  0.00  0.00    -0.379 OA
ATOM     27  H   LIG A   1      -4.859  -0.489 128.636  0.00  0.00    +0.211 HD
ENDBRANCH   1  26
TORSDOF 2
ENDMDL
MODEL 3
REMARK VINA RESULT:      -8.2      3.767      6.230
REMARK  Name = NuBBE_2165
REMARK  4 active torsions:
REMARK  status: ('A' for Active; 'I' for Inactive)
REMARK    1  A    between atoms: O_1  and  C_2
REMARK    2  A    between atoms: C_2  and  C_20
REMARK    3  A    between atoms: C_13  and  C_15
REMARK    4  A    between atoms: C_16  and  C_18
REMARK                            x       y       z     vdW  Elec       q    Type
REMARK                         _______ _______ _______ _____ _____    ______ ____
ROOT
ATOM      1  C   LIG A   1      -6.395  -1.323 125.933  0.00  0.00    +0.123 C 
ATOM      2  C   LIG A   1      -7.304  -2.206 126.771  0.00  0.00    +0.044 A 
ATOM      3  C   LIG A   1      -7.106  -2.373 128.139  0.00  0.00    +0.173 A 
ATOM      4  O   LIG A   1      -6.100  -1.805 128.869  0.00  0.00    -0.452 OA
ATOM      5  C   LIG A   1      -6.400  -2.297 130.193  0.00  0.00    +0.466 C 
ATOM      6  O   LIG A   1      -7.550  -3.163 130.230  0.00  0.00    -0.453 OA
ATOM      7  C   LIG A   1      -7.929  -3.150 128.925  0.00  0.00    +0.167 A 
ATOM      8  C   LIG A   1      -9.012  -3.813 128.403  0.00  0.00    +0.050 A 
ATOM      9  C   LIG A   1      -9.264  -3.663 127.038  0.00  0.00    +0.015 A 
ATOM     10  C   LIG A   1      -8.426  -2.858 126.228  0.00  0.00    +0.028 A 
ATOM     11  C   LIG A   1      -8.791  -2.688 124.794  0.00  0.00    +0.167 C 
ATOM     12  C   LIG A   1      -7.990  -1.690 123.967  0.00  0.00    +0.063 C 
ATOM     13  C   LIG A   1      -8.164  -1.968 122.473  0.00  0.00    +0.016 C 
ATOM     14  C   LIG A   1      -6.512  -1.658 124.410  0.00  0.00    +0.037 C 
ATOM     15  C   LIG A   1      -5.761  -2.952 124.026  0.00  0.00    +0.012 C 
ATOM     16  O   LIG A   1      -9.762  -3.287 124.344  0.00  0.00    -0.292 OA
ENDROOT
BRANCH   1  17
ATOM     17  C   LIG A   1      -6.617   0.183 126.190  0.00  0.00    -0.008 A 
ATOM     18  C   LIG A   1      -5.610   1.111 125.847  0.00  0.00    +0.056 A 
ATOM     19  C   LIG A   1      -5.809   2.447 126.128  0.00  0.00    +0.167 A 
ATOM     20  C   LIG A   1      -6.968   2.901 126.705  0.00  0.00    +0.166 A 
ATOM     21  O   LIG A   1      -6.959   4.245 126.906  0.00  0.00    -0.453 OA
ATOM     22  C   LIG A   1      -5.641   4.580 126.421  0.00  0.00    +0.466 C 
ATOM     23  O   LIG A   1      -4.919   3.449 125.894  0.00  0.00    -0.453 OA
ATOM     24  C   LIG A   1      -7.995   2.045 127.028  0.00  0.00    +0.050 A 
ATOM     25  C   LIG A   1      -7.815   0.681 126.771  0.00  0.00    +0.010 A 
ENDBRANCH   1  17
BRANCH   1  26
ATOM     26  O   LIG A   1      -5.041  -1.621 126.315  0.00  0.00    -0.379 OA
ATOM     27  H   LIG A   1      -5.090  -2.355 126.956  0.00  0.00    +0.211 HD
ENDBRANCH   1  26
TORSDOF 2
ENDMDL
MODEL 4
REMARK VINA RESULT:      -7.6      7.030      8.677
REMARK  Name = NuBBE_2165
REMARK  4 active torsions:
REMARK  status: ('A' for Active; 'I' for Inactive)
REMARK    1  A    between atoms: O_1  and  C_2
REMARK    2  A    between atoms: C_2  and  C_20
REMARK    3  A    between atoms: C_13  and  C_15
REMARK    4  A    between atoms: C_16  and  C_18
REMARK                            x       y       z     vdW  Elec       q    Type
REMARK                         _______ _______ _______ _____ _____    ______ ____
ROOT
ATOM      1  C   LIG A   1      -5.313   5.511 131.326  0.00  0.00    +0.123 C 
ATOM      2  C   LIG A   1      -4.599   4.622 130.322  0.00  0.00    +0.044 A 
ATOM      3  C   LIG A   1      -4.706   3.234 130.364  0.00  0.00    +0.173 A 
ATOM      4  O   LIG A   1      -5.423   2.523 131.286  0.00  0.00    -0.452 OA
ATOM      5  C   LIG A   1      -5.196   1.171 130.835  0.00  0.00    +0.466 C 
ATOM      6  O   LIG A   1      -4.335   1.092 129.683  0.00  0.00    -0.453 OA
ATOM      7  C   LIG A   1      -4.087   2.408 129.453  0.00  0.00    +0.167 A 
ATOM      8  C   LIG A   1      -3.317   2.907 128.430  0.00  0.00    +0.050 A 
ATOM      9  C   LIG A   1      -3.192   4.294 128.335  0.00  0.00    +0.015 A 
ATOM     10  C   LIG A   1      -3.835   5.148 129.264  0.00  0.00    +0.028 A 
ATOM     11  C   LIG A   1      -3.715   6.619 129.064  0.00  0.00    +0.167 C 
ATOM     12  C   LIG A   1      -4.543   7.531 129.959  0.00  0.00    +0.063 C 
ATOM     13  C   LIG A   1      -3.974   8.952 129.952  0.00  0.00    +0.016 C 
ATOM     14  C   LIG A   1      -4.684   6.941 131.378  0.00  0.00    +0.037 C 
ATOM     15  C   LIG A   1      -3.352   6.977 132.159  0.00  0.00    +0.012 C 
ATOM     16  O   LIG A   1      -3.024   7.047 128.145  0.00  0.00    -0.292 OA
ENDROOT
BRANCH   1  17
ATOM     17  C   LIG A   1      -6.837   5.582 131.086  0.00  0.00    -0.008 A 
ATOM     18  C   LIG A   1      -7.683   6.106 132.088  0.00  0.00    +0.056 A 
ATOM     19  C   LIG A   1      -9.046   6.117 131.873  0.00  0.00    +0.167 A 
ATOM     20  C   LIG A   1      -9.599   5.659 130.704  0.00  0.00    +0.166 A 
ATOM     21  O   LIG A   1     -10.954   5.749 130.697  0.00  0.00    -0.453 OA
ATOM     22  C   LIG A   1     -11.194   6.283 132.017  0.00  0.00    +0.466 C 
ATOM     23  O   LIG A   1      -9.986   6.552 132.755  0.00  0.00    -0.453 OA
ATOM     24  C   LIG A   1      -8.819   5.170 129.681  0.00  0.00    +0.050 A 
ATOM     25  C   LIG A   1      -7.433   5.130 129.878  0.00  0.00    +0.010 A 
ENDBRANCH   1  17
BRANCH   1  26
ATOM     26  O   LIG A   1      -5.118   4.929 132.626  0.00  0.00    -0.379 OA
ATOM     27  H   LIG A   1      -5.032   5.673 133.252  0.00  0.00    +0.211 HD
ENDBRANCH   1  26
TORSDOF 2
ENDMDL
MODEL 5
REMARK VINA RESULT:      -7.5      5.458      8.848
REMARK  Name = NuBBE_2165
REMARK  4 active torsions:
REMARK  status: ('A' for Active; 'I' for Inactive)
REMARK    1  A    between atoms: O_1  and  C_2
REMARK    2  A    between atoms: C_2  and  C_20
REMARK    3  A    between atoms: C_13  and  C_15
REMARK    4  A    between atoms: C_16  and  C_18
REMARK                            x       y       z     vdW  Elec       q    Type
REMARK                         _______ _______ _______ _____ _____    ______ ____
ROOT
ATOM      1  C   LIG A   1      -4.601   6.691 130.508  0.00  0.00    +0.123 C 
ATOM      2  C   LIG A   1      -5.595   6.348 131.606  0.00  0.00    +0.044 A 
ATOM      3  C   LIG A   1      -6.965   6.536 131.439  0.00  0.00    +0.173 A 
ATOM      4  O   LIG A   1      -7.565   7.048 130.323  0.00  0.00    -0.452 OA
ATOM      5  C   LIG A   1      -8.957   6.988 130.699  0.00  0.00    +0.466 C 
ATOM      6  O   LIG A   1      -9.165   6.474 132.028  0.00  0.00    -0.453 OA
ATOM      7  C   LIG A   1      -7.887   6.212 132.410  0.00  0.00    +0.167 A 
ATOM      8  C   LIG A   1      -7.510   5.674 133.616  0.00  0.00    +0.050 A 
ATOM      9  C   LIG A   1      -6.148   5.450 133.824  0.00  0.00    +0.015 A 
ATOM     10  C   LIG A   1      -5.197   5.773 132.826  0.00  0.00    +0.028 A 
ATOM     11  C   LIG A   1      -3.767   5.446 133.088  0.00  0.00    +0.167 C 
ATOM     12  C   LIG A   1      -2.772   5.636 131.951  0.00  0.00    +0.063 C 
ATOM     13  C   LIG A   1      -1.343   5.711 132.494  0.00  0.00    +0.016 C 
ATOM     14  C   LIG A   1      -3.152   6.847 131.073  0.00  0.00    +0.037 C 
ATOM     15  C   LIG A   1      -2.941   8.189 131.809  0.00  0.00    +0.012 C 
ATOM     16  O   LIG A   1      -3.448   4.965 134.170  0.00  0.00    -0.292 OA
ENDROOT
BRANCH   1  17
ATOM     17  C   LIG A   1      -4.637   5.691 129.332  0.00  0.00    -0.008 A 
ATOM     18  C   LIG A   1      -5.324   4.466 129.473  0.00  0.00    +0.056 A 
ATOM     19  C   LIG A   1      -5.305   3.566 128.426  0.00  0.00    +0.167 A 
ATOM     20  C   LIG A   1      -4.661   3.840 127.247  0.00  0.00    +0.166 A 
ATOM     21  O   LIG A   1      -4.753   2.821 126.353  0.00  0.00    -0.453 OA
ATOM     22  C   LIG A   1      -5.501   1.856 127.122  0.00  0.00    +0.466 C 
ATOM     23  O   LIG A   1      -5.885   2.335 128.427  0.00  0.00    -0.453 OA
ATOM     24  C   LIG A   1      -4.004   5.032 127.044  0.00  0.00    +0.050 A 
ATOM     25  C   LIG A   1      -3.992   5.959 128.095  0.00  0.00    +0.010 A 
ENDBRANCH   1  17
BRANCH   1  26
ATOM     26  O   LIG A   1      -4.976   7.975 129.981  0.00  0.00    -0.379 OA
ATOM     27  H   LIG A   1      -4.876   8.615 130.711  0.00  0.00    +0.211 HD
ENDBRANCH   1  26
TORSDOF 2
ENDMDL
MODEL 6
REMARK VINA RESULT:      -7.5      3.504      6.436
REMARK  Name = NuBBE_2165
REMARK  4 active torsions:
REMARK  status: ('A' for Active; 'I' for Inactive)
REMARK    1  A    between atoms: O_1  and  C_2
REMARK    2  A    between atoms: C_2  and  C_20
REMARK    3  A    between atoms: C_13  and  C_15
REMARK    4  A    between atoms: C_16  and  C_18
REMARK                            x       y       z     vdW  Elec       q    Type
REMARK                         _______ _______ _______ _____ _____    ______ ____
ROOT
ATOM      1  C   LIG A   1      -6.470  -1.043 126.682  0.00  0.00    +0.123 C 
ATOM      2  C   LIG A   1      -6.573  -1.798 127.997  0.00  0.00    +0.044 A 
ATOM      3  C   LIG A   1      -5.747  -1.503 129.079  0.00  0.00    +0.173 A 
ATOM      4  O   LIG A   1      -4.767  -0.550 129.091  0.00  0.00    -0.452 OA
ATOM      5  C   LIG A   1      -4.273  -0.672 130.441  0.00  0.00    +0.466 C 
ATOM      6  O   LIG A   1      -4.937  -1.701 131.199  0.00  0.00    -0.453 OA
ATOM      7  C   LIG A   1      -5.836  -2.157 130.288  0.00  0.00    +0.167 A 
ATOM      8  C   LIG A   1      -6.758  -3.152 130.506  0.00  0.00    +0.050 A 
ATOM      9  C   LIG A   1      -7.622  -3.472 129.457  0.00  0.00    +0.015 A 
ATOM     10  C   LIG A   1      -7.540  -2.796 128.216  0.00  0.00    +0.028 A 
ATOM     11  C   LIG A   1      -8.535  -3.142 127.162  0.00  0.00    +0.167 C 
ATOM     12  C   LIG A   1      -8.555  -2.298 125.895  0.00  0.00    +0.063 C 
ATOM     13  C   LIG A   1      -9.272  -3.041 124.765  0.00  0.00    +0.016 C 
ATOM     14  C   LIG A   1      -7.133  -1.836 125.510  0.00  0.00    +0.037 C 
ATOM     15  C   LIG A   1      -6.256  -3.006 125.011  0.00  0.00    +0.012 C 
ATOM     16  O   LIG A   1      -9.352  -4.032 127.375  0.00  0.00    -0.292 OA
ENDROOT
BRANCH   1  17
ATOM     17  C   LIG A   1      -7.030   0.394 126.770  0.00  0.00    -0.008 A 
ATOM     18  C   LIG A   1      -6.738   1.325 125.750  0.00  0.00    +0.056 A 
ATOM     19  C   LIG A   1      -7.210   2.617 125.870  0.00  0.00    +0.167 A 
ATOM     20  C   LIG A   1      -7.975   3.012 126.938  0.00  0.00    +0.166 A 
ATOM     21  O   LIG A   1      -8.328   4.322 126.871  0.00  0.00    -0.453 OA
ATOM     22  C   LIG A   1      -7.662   4.717 125.652  0.00  0.00    +0.466 C 
ATOM     23  O   LIG A   1      -6.979   3.631 124.994  0.00  0.00    -0.453 OA
ATOM     24  C   LIG A   1      -8.318   2.136 127.942  0.00  0.00    +0.050 A 
ATOM     25  C   LIG A   1      -7.839   0.823 127.856  0.00  0.00    +0.010 A 
ENDBRANCH   1  17
BRANCH   1  26
ATOM     26  O   LIG A   1      -5.072  -0.932 126.363  0.00  0.00    -0.379 OA
ATOM     27  H   LIG A   1      -4.782  -1.819 126.079  0.00  0.00    +0.211 HD
ENDBRANCH   1  26
TORSDOF 2
ENDMDL
MODEL 7
REMARK VINA RESULT:      -7.4      7.574      8.924
REMARK  Name = NuBBE_2165
REMARK  4 active torsions:
REMARK  status: ('A' for Active; 'I' for Inactive)
REMARK    1  A    between atoms: O_1  and  C_2
REMARK    2  A    between atoms: C_2  and  C_20
REMARK    3  A    between atoms: C_13  and  C_15
REMARK    4  A    between atoms: C_16  and  C_18
REMARK                            x       y       z     vdW  Elec       q    Type
REMARK                         _______ _______ _______ _____ _____    ______ ____
ROOT
ATOM      1  C   LIG A   1      -7.539   5.076 132.518  0.00  0.00    +0.123 C 
ATOM      2  C   LIG A   1      -7.143   3.813 131.773  0.00  0.00    +0.044 A 
ATOM      3  C   LIG A   1      -7.962   2.686 131.752  0.00  0.00    +0.173 A 
ATOM      4  O   LIG A   1      -9.166   2.570 132.387  0.00  0.00    -0.452 OA
ATOM      5  C   LIG A   1      -9.559   1.235 132.004  0.00  0.00    +0.466 C 
ATOM      6  O   LIG A   1      -8.583   0.570 131.180  0.00  0.00    -0.453 OA
ATOM      7  C   LIG A   1      -7.636   1.537 131.065  0.00  0.00    +0.167 A 
ATOM      8  C   LIG A   1      -6.470   1.430 130.347  0.00  0.00    +0.050 A 
ATOM      9  C   LIG A   1      -5.623   2.540 130.322  0.00  0.00    +0.015 A 
ATOM     10  C   LIG A   1      -5.959   3.726 131.019  0.00  0.00    +0.028 A 
ATOM     11  C   LIG A   1      -5.043   4.894 130.896  0.00  0.00    +0.167 C 
ATOM     12  C   LIG A   1      -5.488   6.218 131.503  0.00  0.00    +0.063 C 
ATOM     13  C   LIG A   1      -4.289   7.148 131.703  0.00  0.00    +0.016 C 
ATOM     14  C   LIG A   1      -6.303   5.993 132.794  0.00  0.00    +0.037 C 
ATOM     15  C   LIG A   1      -5.425   5.475 133.955  0.00  0.00    +0.012 C 
ATOM     16  O   LIG A   1      -4.006   4.781 130.249  0.00  0.00    -0.292 OA
ENDROOT
BRANCH   1  17
ATOM     17  C   LIG A   1      -8.668   5.860 131.814  0.00  0.00    -0.008 A 
ATOM     18  C   LIG A   1      -9.976   5.837 132.344  0.00  0.00    +0.056 A 
ATOM     19  C   LIG A   1     -10.980   6.505 131.673  0.00  0.00    +0.167 A 
ATOM     20  C   LIG A   1     -10.737   7.213 130.523  0.00  0.00    +0.166 A 
ATOM     21  O   LIG A   1     -11.859   7.787 130.017  0.00  0.00    -0.453 OA
ATOM     22  C   LIG A   1     -12.847   7.328 130.963  0.00  0.00    +0.466 C 
ATOM     23  O   LIG A   1     -12.291   6.542 132.037  0.00  0.00    -0.453 OA
ATOM     24  C   LIG A   1      -9.474   7.296 129.982  0.00  0.00    +0.050 A 
ATOM     25  C   LIG A   1      -8.438   6.614 130.631  0.00  0.00    +0.010 A 
ENDBRANCH   1  17
BRANCH   1  26
ATOM     26  O   LIG A   1      -8.045   4.672 133.803  0.00  0.00    -0.379 OA
ATOM     27  H   LIG A   1      -7.459   3.960 134.119  0.00  0.00    +0.211 HD
ENDBRANCH   1  26
TORSDOF 2
ENDMDL
MODEL 8
REMARK VINA RESULT:      -7.4      6.123      8.718
REMARK  Name = NuBBE_2165
REMARK  4 active torsions:
REMARK  status: ('A' for Active; 'I' for Inactive)
REMARK    1  A    between atoms: O_1  and  C_2
REMARK    2  A    between atoms: C_2  and  C_20
REMARK    3  A    between atoms: C_13  and  C_15
REMARK    4  A    between atoms: C_16  and  C_18
REMARK                            x       y       z     vdW  Elec       q    Type
REMARK                         _______ _______ _______ _____ _____    ______ ____
ROOT
ATOM      1  C   LIG A   1      -4.170   4.278 131.639  0.00  0.00    +0.123 C 
ATOM      2  C   LIG A   1      -3.836   3.926 130.198  0.00  0.00    +0.044 A 
ATOM      3  C   LIG A   1      -4.416   2.835 129.557  0.00  0.00    +0.173 A 
ATOM      4  O   LIG A   1      -5.309   1.966 130.121  0.00  0.00    -0.452 OA
ATOM      5  C   LIG A   1      -5.577   1.080 129.013  0.00  0.00    +0.466 C 
ATOM      6  O   LIG A   1      -4.830   1.410 127.827  0.00  0.00    -0.453 OA
ATOM      7  C   LIG A   1      -4.148   2.508 128.246  0.00  0.00    +0.167 A 
ATOM      8  C   LIG A   1      -3.282   3.249 127.478  0.00  0.00    +0.050 A 
ATOM      9  C   LIG A   1      -2.688   4.364 128.072  0.00  0.00    +0.015 A 
ATOM     10  C   LIG A   1      -2.968   4.709 129.416  0.00  0.00    +0.028 A 
ATOM     11  C   LIG A   1      -2.351   5.948 129.965  0.00  0.00    +0.167 C 
ATOM     12  C   LIG A   1      -2.786   6.409 131.350  0.00  0.00    +0.063 C 
ATOM     13  C   LIG A   1      -1.761   7.380 131.941  0.00  0.00    +0.016 C 
ATOM     14  C   LIG A   1      -3.083   5.206 132.271  0.00  0.00    +0.037 C 
ATOM     15  C   LIG A   1      -1.799   4.440 132.660  0.00  0.00    +0.012 C 
ATOM     16  O   LIG A   1      -1.581   6.599 129.266  0.00  0.00    -0.292 OA
ENDROOT
BRANCH   1  17
ATOM     17  C   LIG A   1      -5.581   4.884 131.796  0.00  0.00    -0.008 A 
ATOM     18  C   LIG A   1      -6.280   5.342 130.659  0.00  0.00    +0.056 A 
ATOM     19  C   LIG A   1      -7.521   5.923 130.826  0.00  0.00    +0.167 A 
ATOM     20  C   LIG A   1      -8.104   6.043 132.062  0.00  0.00    +0.166 A 
ATOM     21  O   LIG A   1      -9.318   6.651 132.010  0.00  0.00    -0.453 OA
ATOM     22  C   LIG A   1      -9.415   6.935 130.598  0.00  0.00    +0.466 C 
ATOM     23  O   LIG A   1      -8.294   6.444 129.835  0.00  0.00    -0.453 OA
ATOM     24  C   LIG A   1      -7.481   5.583 133.200  0.00  0.00    +0.050 A 
ATOM     25  C   LIG A   1      -6.214   5.004 133.063  0.00  0.00    +0.010 A 
ENDBRANCH   1  17
BRANCH   1  26
ATOM     26  O   LIG A   1      -4.151   3.053 132.392  0.00  0.00    -0.379 OA
ATOM     27  H   LIG A   1      -4.876   3.117 133.042  0.00  0.00    +0.211 HD
ENDBRANCH   1  26
TORSDOF 2
ENDMDL
MODEL 9
REMARK VINA RESULT:      -7.3      2.985      5.282
REMARK  Name = NuBBE_2165
REMARK  4 active torsions:
REMARK  status: ('A' for Active; 'I' for Inactive)
REMARK    1  A    between atoms: O_1  and  C_2
REMARK    2  A    between atoms: C_2  and  C_20
REMARK    3  A    between atoms: C_13  and  C_15
REMARK    4  A    between atoms: C_16  and  C_18
REMARK                            x       y       z     vdW  Elec       q    Type
REMARK                         _______ _______ _______ _____ _____    ______ ____
ROOT
ATOM      1  C   LIG A   1      -7.408   1.816 126.293  0.00  0.00    +0.123 C 
ATOM      2  C   LIG A   1      -6.340   1.932 127.368  0.00  0.00    +0.044 A 
ATOM      3  C   LIG A   1      -6.461   1.284 128.595  0.00  0.00    +0.173 A 
ATOM      4  O   LIG A   1      -7.518   0.508 128.981  0.00  0.00    -0.452 OA
ATOM      5  C   LIG A   1      -7.096   0.092 130.297  0.00  0.00    +0.466 C 
ATOM      6  O   LIG A   1      -5.822   0.641 130.686  0.00  0.00    -0.453 OA
ATOM      7  C   LIG A   1      -5.497   1.356 129.577  0.00  0.00    +0.167 A 
ATOM      8  C   LIG A   1      -4.341   2.077 129.404  0.00  0.00    +0.050 A 
ATOM      9  C   LIG A   1      -4.165   2.731 128.183  0.00  0.00    +0.015 A 
ATOM     10  C   LIG A   1      -5.149   2.653 127.168  0.00  0.00    +0.028 A 
ATOM     11  C   LIG A   1      -4.868   3.320 125.866  0.00  0.00    +0.167 C 
ATOM     12  C   LIG A   1      -5.846   3.092 124.722  0.00  0.00    +0.063 C 
ATOM     13  C   LIG A   1      -5.683   4.175 123.652  0.00  0.00    +0.016 C 
ATOM     14  C   LIG A   1      -7.293   2.966 125.242  0.00  0.00    +0.037 C 
ATOM     15  C   LIG A   1      -7.842   4.311 125.769  0.00  0.00    +0.012 C 
ATOM     16  O   LIG A   1      -3.829   3.960 125.730  0.00  0.00    -0.292 OA
ENDROOT
BRANCH   1  17
ATOM     17  C   LIG A   1      -7.420   0.432 125.607  0.00  0.00    -0.008 A 
ATOM     18  C   LIG A   1      -8.648  -0.167 125.254  0.00  0.00    +0.056 A 
ATOM     19  C   LIG A   1      -8.639  -1.423 124.684  0.00  0.00    +0.167 A 
ATOM     20  C   LIG A   1      -7.470  -2.093 124.426  0.00  0.00    +0.166 A 
ATOM     21  O   LIG A   1      -7.680  -3.316 123.873  0.00  0.00    -0.453 OA
ATOM     22  C   LIG A   1      -9.123  -3.354 123.846  0.00  0.00    +0.466 C 
ATOM     23  O   LIG A   1      -9.738  -2.142 124.327  0.00  0.00    -0.453 OA
ATOM     24  C   LIG A   1      -6.244  -1.541 124.718  0.00  0.00    +0.050 A 
ATOM     25  C   LIG A   1      -6.222  -0.274 125.314  0.00  0.00    +0.010 A 
ENDBRANCH   1  17
BRANCH   1  26
ATOM     26  O   LIG A   1      -8.683   1.976 126.939  0.00  0.00    -0.379 OA
ATOM     27  H   LIG A   1      -8.562   1.688 127.864  0.00  0.00    +0.211 HD
ENDBRANCH   1  26
TORSDOF 2
ENDMDL
