MODEL 1
REMARK VINA RESULT:      -6.3      0.000      0.000
REMARK  Name = NuBBE_1923
REMARK  5 active torsions:
REMARK  status: ('A' for Active; 'I' for Inactive)
REMARK    1  A    between atoms: C_1  and  C_2
REMARK    2  A    between atoms: C_2  and  C_4
REMARK    3  A    between atoms: C_2  and  C_18
REMARK    4  A    between atoms: C_11  and  C_12
REMARK    5  A    between atoms: C_14  and  C_15
REMARK                            x       y       z     vdW  Elec       q    Type
REMARK                         _______ _______ _______ _____ _____    ______ ____
ROOT
ATOM      1  C   LIG A   1      -7.573  -1.841 126.547  0.00  0.00    +0.003 C 
ATOM      2  C   LIG A   1      -7.132  -2.373 125.145  0.00  0.00    +0.041 C 
ATOM      3  C   LIG A   1      -7.780  -1.679 123.924  0.00  0.00    -0.063 C 
ATOM      4  C   LIG A   1      -7.215  -2.181 122.593  0.00  0.00    +0.035 C 
ATOM      5  C   LIG A   1      -5.673  -2.171 122.557  0.00  0.00    +0.034 C 
ATOM      6  C   LIG A   1      -5.123  -2.807 123.817  0.00  0.00    -0.076 C 
ATOM      7  C   LIG A   1      -4.807  -4.273 123.714  0.00  0.00    +0.038 C 
ATOM      8  C   LIG A   1      -5.600  -2.278 124.967  0.00  0.00    -0.020 C 
ATOM      9  C   LIG A   1      -8.725  -0.721 124.050  0.00  0.00    -0.073 C 
ATOM     10  C   LIG A   1      -9.354   0.055 122.923  0.00  0.00    +0.039 C 
ATOM     11  C   LIG A   1      -9.262  -0.331 125.403  0.00  0.00    +0.031 C 
ATOM     12  C   LIG A   1      -9.042  -1.389 126.479  0.00  0.00    +0.009 C 
ENDROOT
BRANCH   1  14
ATOM     13  C   LIG A   1      -8.671  -3.642 128.029  0.00  0.00    +0.007 C 
ATOM     14  C   LIG A   1      -7.373  -2.890 127.697  0.00  0.00    -0.013 C 
ATOM     15  C   LIG A   1      -6.835  -2.284 128.998  0.00  0.00    +0.007 C 
ENDBRANCH   1  14
TORSDOF 1
ENDMDL
MODEL 2
REMARK VINA RESULT:      -6.3      1.831      4.651
REMARK  Name = NuBBE_1923
REMARK  5 active torsions:
REMARK  status: ('A' for Active; 'I' for Inactive)
REMARK    1  A    between atoms: C_1  and  C_2
REMARK    2  A    between atoms: C_2  and  C_4
REMARK    3  A    between atoms: C_2  and  C_18
REMARK    4  A    between atoms: C_11  and  C_12
REMARK    5  A    between atoms: C_14  and  C_15
REMARK                            x       y       z     vdW  Elec       q    Type
REMARK                         _______ _______ _______ _____ _____    ______ ____
ROOT
ATOM      1  C   LIG A   1      -8.025  -2.775 125.412  0.00  0.00    +0.003 C 
ATOM      2  C   LIG A   1      -7.447  -1.580 126.238  0.00  0.00    +0.041 C 
ATOM      3  C   LIG A   1      -7.514  -1.725 127.775  0.00  0.00    -0.063 C 
ATOM      4  C   LIG A   1      -6.831  -0.567 128.506  0.00  0.00    +0.035 C 
ATOM      5  C   LIG A   1      -5.409  -0.282 127.979  0.00  0.00    +0.034 C 
ATOM      6  C   LIG A   1      -5.424  -0.224 126.465  0.00  0.00    -0.076 C 
ATOM      7  C   LIG A   1      -5.581   1.150 125.875  0.00  0.00    +0.038 C 
ATOM      8  C   LIG A   1      -5.973  -1.305 125.866  0.00  0.00    -0.020 C 
ATOM      9  C   LIG A   1      -8.099  -2.783 128.380  0.00  0.00    -0.073 C 
ATOM     10  C   LIG A   1      -8.146  -3.039 129.864  0.00  0.00    +0.039 C 
ATOM     11  C   LIG A   1      -8.799  -3.849 127.577  0.00  0.00    +0.031 C 
ATOM     12  C   LIG A   1      -9.205  -3.397 126.178  0.00  0.00    +0.009 C 
ENDROOT
BRANCH   1  14
ATOM     13  C   LIG A   1      -8.944  -0.911 123.887  0.00  0.00    +0.007 C 
ATOM     14  C   LIG A   1      -8.464  -2.369 123.961  0.00  0.00    -0.013 C 
ATOM     15  C   LIG A   1      -9.570  -3.258 123.380  0.00  0.00    +0.007 C 
ENDBRANCH   1  14
TORSDOF 1
ENDMDL
MODEL 3
REMARK VINA RESULT:      -6.2      1.762      4.702
REMARK  Name = NuBBE_1923
REMARK  5 active torsions:
REMARK  status: ('A' for Active; 'I' for Inactive)
REMARK    1  A    between atoms: C_1  and  C_2
REMARK    2  A    between atoms: C_2  and  C_4
REMARK    3  A    between atoms: C_2  and  C_18
REMARK    4  A    between atoms: C_11  and  C_12
REMARK    5  A    between atoms: C_14  and  C_15
REMARK                            x       y       z     vdW  Elec       q    Type
REMARK                         _______ _______ _______ _____ _____    ______ ____
ROOT
ATOM      1  C   LIG A   1      -8.883  -2.123 125.974  0.00  0.00    +0.003 C 
ATOM      2  C   LIG A   1      -7.998  -2.046 127.261  0.00  0.00    +0.041 C 
ATOM      3  C   LIG A   1      -7.843  -0.643 127.892  0.00  0.00    -0.063 C 
ATOM      4  C   LIG A   1      -7.056  -0.672 129.204  0.00  0.00    +0.035 C 
ATOM      5  C   LIG A   1      -7.580  -1.734 130.193  0.00  0.00    +0.034 C 
ATOM      6  C   LIG A   1      -7.766  -3.056 129.477  0.00  0.00    -0.076 C 
ATOM      7  C   LIG A   1      -6.602  -4.003 129.560  0.00  0.00    +0.038 C 
ATOM      8  C   LIG A   1      -8.530  -2.989 128.363  0.00  0.00    -0.020 C 
ATOM      9  C   LIG A   1      -8.375   0.467 127.334  0.00  0.00    -0.073 C 
ATOM     10  C   LIG A   1      -8.335   1.856 127.916  0.00  0.00    +0.039 C 
ATOM     11  C   LIG A   1      -9.087   0.406 126.007  0.00  0.00    +0.031 C 
ATOM     12  C   LIG A   1      -8.728  -0.819 125.173  0.00  0.00    +0.009 C 
ENDROOT
BRANCH   1  14
ATOM     13  C   LIG A   1      -7.077  -3.406 124.656  0.00  0.00    +0.007 C 
ATOM     14  C   LIG A   1      -8.556  -3.365 125.073  0.00  0.00    -0.013 C 
ATOM     15  C   LIG A   1      -9.405  -3.443 123.799  0.00  0.00    +0.007 C 
ENDBRANCH   1  14
TORSDOF 1
ENDMDL
MODEL 4
REMARK VINA RESULT:      -6.0      1.967      4.195
REMARK  Name = NuBBE_1923
REMARK  5 active torsions:
REMARK  status: ('A' for Active; 'I' for Inactive)
REMARK    1  A    between atoms: C_1  and  C_2
REMARK    2  A    between atoms: C_2  and  C_4
REMARK    3  A    between atoms: C_2  and  C_18
REMARK    4  A    between atoms: C_11  and  C_12
REMARK    5  A    between atoms: C_14  and  C_15
REMARK                            x       y       z     vdW  Elec       q    Type
REMARK                         _______ _______ _______ _____ _____    ______ ____
ROOT
ATOM      1  C   LIG A   1      -6.838  -0.555 125.284  0.00  0.00    +0.003 C 
ATOM      2  C   LIG A   1      -7.776  -1.400 126.207  0.00  0.00    +0.041 C 
ATOM      3  C   LIG A   1      -8.724  -2.386 125.487  0.00  0.00    -0.063 C 
ATOM      4  C   LIG A   1      -9.526  -3.250 126.463  0.00  0.00    +0.035 C 
ATOM      5  C   LIG A   1      -8.642  -3.921 127.534  0.00  0.00    +0.034 C 
ATOM      6  C   LIG A   1      -7.699  -2.900 128.138  0.00  0.00    -0.076 C 
ATOM      7  C   LIG A   1      -8.186  -2.241 129.399  0.00  0.00    +0.038 C 
ATOM      8  C   LIG A   1      -6.961  -2.215 127.236  0.00  0.00    -0.020 C 
ATOM      9  C   LIG A   1      -8.798  -2.470 124.140  0.00  0.00    -0.073 C 
ATOM     10  C   LIG A   1      -9.637  -3.448 123.360  0.00  0.00    +0.039 C 
ATOM     11  C   LIG A   1      -8.010  -1.536 123.258  0.00  0.00    +0.031 C 
ATOM     12  C   LIG A   1      -7.563  -0.259 123.960  0.00  0.00    +0.009 C 
ENDROOT
BRANCH   1  14
ATOM     13  C   LIG A   1      -6.503   1.987 125.019  0.00  0.00    +0.007 C 
ATOM     14  C   LIG A   1      -6.348   0.776 125.953  0.00  0.00    -0.013 C 
ATOM     15  C   LIG A   1      -4.889   0.729 126.423  0.00  0.00    +0.007 C 
ENDBRANCH   1  14
TORSDOF 1
ENDMDL
MODEL 5
REMARK VINA RESULT:      -6.0      1.783      2.829
REMARK  Name = NuBBE_1923
REMARK  5 active torsions:
REMARK  status: ('A' for Active; 'I' for Inactive)
REMARK    1  A    between atoms: C_1  and  C_2
REMARK    2  A    between atoms: C_2  and  C_4
REMARK    3  A    between atoms: C_2  and  C_18
REMARK    4  A    between atoms: C_11  and  C_12
REMARK    5  A    between atoms: C_14  and  C_15
REMARK                            x       y       z     vdW  Elec       q    Type
REMARK                         _______ _______ _______ _____ _____    ______ ____
ROOT
ATOM      1  C   LIG A   1      -7.459  -1.981 127.709  0.00  0.00    +0.003 C 
ATOM      2  C   LIG A   1      -8.272  -1.755 126.392  0.00  0.00    +0.041 C 
ATOM      3  C   LIG A   1      -8.457  -0.283 125.957  0.00  0.00    -0.063 C 
ATOM      4  C   LIG A   1      -9.166  -0.153 124.607  0.00  0.00    +0.035 C 
ATOM      5  C   LIG A   1      -8.537  -1.041 123.513  0.00  0.00    +0.034 C 
ATOM      6  C   LIG A   1      -8.328  -2.444 124.046  0.00  0.00    -0.076 C 
ATOM      7  C   LIG A   1      -9.440  -3.414 123.757  0.00  0.00    +0.038 C 
ATOM      8  C   LIG A   1      -7.633  -2.508 125.204  0.00  0.00    -0.020 C 
ATOM      9  C   LIG A   1      -8.011   0.756 126.698  0.00  0.00    -0.073 C 
ATOM     10  C   LIG A   1      -8.085   2.211 126.317  0.00  0.00    +0.039 C 
ATOM     11  C   LIG A   1      -7.375   0.532 128.046  0.00  0.00    +0.031 C 
ATOM     12  C   LIG A   1      -7.722  -0.813 128.674  0.00  0.00    +0.009 C 
ENDROOT
BRANCH   1  14
ATOM     13  C   LIG A   1      -9.142  -3.915 127.977  0.00  0.00    +0.007 C 
ATOM     14  C   LIG A   1      -7.777  -3.352 128.403  0.00  0.00    -0.013 C 
ATOM     15  C   LIG A   1      -7.753  -3.287 129.935  0.00  0.00    +0.007 C 
ENDBRANCH   1  14
TORSDOF 1
ENDMDL
MODEL 6
REMARK VINA RESULT:      -5.9      2.003      2.925
REMARK  Name = NuBBE_1923
REMARK  5 active torsions:
REMARK  status: ('A' for Active; 'I' for Inactive)
REMARK    1  A    between atoms: C_1  and  C_2
REMARK    2  A    between atoms: C_2  and  C_4
REMARK    3  A    between atoms: C_2  and  C_18
REMARK    4  A    between atoms: C_11  and  C_12
REMARK    5  A    between atoms: C_14  and  C_15
REMARK                            x       y       z     vdW  Elec       q    Type
REMARK                         _______ _______ _______ _____ _____    ______ ____
ROOT
ATOM      1  C   LIG A   1      -8.136  -2.030 127.595  0.00  0.00    +0.003 C 
ATOM      2  C   LIG A   1      -7.307  -1.327 126.470  0.00  0.00    +0.041 C 
ATOM      3  C   LIG A   1      -7.743  -1.632 125.018  0.00  0.00    -0.063 C 
ATOM      4  C   LIG A   1      -6.955  -0.823 123.985  0.00  0.00    +0.035 C 
ATOM      5  C   LIG A   1      -6.915   0.685 124.310  0.00  0.00    +0.034 C 
ATOM      6  C   LIG A   1      -6.547   0.889 125.765  0.00  0.00    -0.076 C 
ATOM      7  C   LIG A   1      -5.084   1.109 126.035  0.00  0.00    +0.038 C 
ATOM      8  C   LIG A   1      -7.320   0.208 126.642  0.00  0.00    -0.020 C 
ATOM      9  C   LIG A   1      -8.732  -2.505 124.725  0.00  0.00    -0.073 C 
ATOM     10  C   LIG A   1      -9.268  -2.806 123.350  0.00  0.00    +0.039 C 
ATOM     11  C   LIG A   1      -9.414  -3.301 125.808  0.00  0.00    +0.031 C 
ATOM     12  C   LIG A   1      -8.603  -3.407 127.095  0.00  0.00    +0.009 C 
ENDROOT
BRANCH   1  14
ATOM     13  C   LIG A   1      -5.861  -2.479 128.720  0.00  0.00    +0.007 C 
ATOM     14  C   LIG A   1      -7.350  -2.171 128.945  0.00  0.00    -0.013 C 
ATOM     15  C   LIG A   1      -7.917  -3.247 129.879  0.00  0.00    +0.007 C 
ENDBRANCH   1  14
TORSDOF 1
ENDMDL
MODEL 7
REMARK VINA RESULT:      -5.9      2.144      4.992
REMARK  Name = NuBBE_1923
REMARK  5 active torsions:
REMARK  status: ('A' for Active; 'I' for Inactive)
REMARK    1  A    between atoms: C_1  and  C_2
REMARK    2  A    between atoms: C_2  and  C_4
REMARK    3  A    between atoms: C_2  and  C_18
REMARK    4  A    between atoms: C_11  and  C_12
REMARK    5  A    between atoms: C_14  and  C_15
REMARK                            x       y       z     vdW  Elec       q    Type
REMARK                         _______ _______ _______ _____ _____    ______ ____
ROOT
ATOM      1  C   LIG A   1      -6.661  -1.891 126.091  0.00  0.00    +0.003 C 
ATOM      2  C   LIG A   1      -6.448  -2.056 127.631  0.00  0.00    +0.041 C 
ATOM      3  C   LIG A   1      -7.509  -2.901 128.374  0.00  0.00    -0.063 C 
ATOM      4  C   LIG A   1      -7.170  -3.105 129.852  0.00  0.00    +0.035 C 
ATOM      5  C   LIG A   1      -5.726  -3.604 130.071  0.00  0.00    +0.034 C 
ATOM      6  C   LIG A   1      -4.762  -2.767 129.256  0.00  0.00    -0.076 C 
ATOM      7  C   LIG A   1      -4.140  -1.609 129.984  0.00  0.00    +0.038 C 
ATOM      8  C   LIG A   1      -5.068  -2.678 127.941  0.00  0.00    -0.020 C 
ATOM      9  C   LIG A   1      -8.597  -3.408 127.754  0.00  0.00    -0.073 C 
ATOM     10  C   LIG A   1      -9.639  -4.298 128.382  0.00  0.00    +0.039 C 
ATOM     11  C   LIG A   1      -8.879  -3.105 126.305  0.00  0.00    +0.031 C 
ATOM     12  C   LIG A   1      -8.169  -1.859 125.788  0.00  0.00    +0.009 C 
ENDROOT
BRANCH   1  14
ATOM     13  C   LIG A   1      -5.763   0.479 126.558  0.00  0.00    +0.007 C 
ATOM     14  C   LIG A   1      -5.954  -0.621 125.502  0.00  0.00    -0.013 C 
ATOM     15  C   LIG A   1      -6.690  -0.003 124.308  0.00  0.00    +0.007 C 
ENDBRANCH   1  14
TORSDOF 1
ENDMDL
MODEL 8
REMARK VINA RESULT:      -5.8      1.590      4.383
REMARK  Name = NuBBE_1923
REMARK  5 active torsions:
REMARK  status: ('A' for Active; 'I' for Inactive)
REMARK    1  A    between atoms: C_1  and  C_2
REMARK    2  A    between atoms: C_2  and  C_4
REMARK    3  A    between atoms: C_2  and  C_18
REMARK    4  A    between atoms: C_11  and  C_12
REMARK    5  A    between atoms: C_14  and  C_15
REMARK                            x       y       z     vdW  Elec       q    Type
REMARK                         _______ _______ _______ _____ _____    ______ ____
ROOT
ATOM      1  C   LIG A   1      -6.541  -1.553 124.960  0.00  0.00    +0.003 C 
ATOM      2  C   LIG A   1      -7.893  -0.781 124.818  0.00  0.00    +0.041 C 
ATOM      3  C   LIG A   1      -8.331   0.047 126.048  0.00  0.00    -0.063 C 
ATOM      4  C   LIG A   1      -9.604   0.857 125.789  0.00  0.00    +0.035 C 
ATOM      5  C   LIG A   1      -9.532   1.683 124.488  0.00  0.00    +0.034 C 
ATOM      6  C   LIG A   1      -9.030   0.814 123.353  0.00  0.00    -0.076 C 
ATOM      7  C   LIG A   1     -10.098   0.167 122.516  0.00  0.00    +0.038 C 
ATOM      8  C   LIG A   1      -7.865   0.177 123.606  0.00  0.00    -0.020 C 
ATOM      9  C   LIG A   1      -7.634   0.052 127.206  0.00  0.00    -0.073 C 
ATOM     10  C   LIG A   1      -7.948   0.882 128.423  0.00  0.00    +0.039 C 
ATOM     11  C   LIG A   1      -6.422  -0.824 127.388  0.00  0.00    +0.031 C 
ATOM     12  C   LIG A   1      -6.364  -2.002 126.421  0.00  0.00    +0.009 C 
ENDROOT
BRANCH   1  14
ATOM     13  C   LIG A   1      -7.466  -3.867 124.302  0.00  0.00    +0.007 C 
ATOM     14  C   LIG A   1      -6.425  -2.781 123.990  0.00  0.00    -0.013 C 
ATOM     15  C   LIG A   1      -5.041  -3.441 123.993  0.00  0.00    +0.007 C 
ENDBRANCH   1  14
TORSDOF 1
ENDMDL
MODEL 9
REMARK VINA RESULT:      -5.7      2.327      4.867
REMARK  Name = NuBBE_1923
REMARK  5 active torsions:
REMARK  status: ('A' for Active; 'I' for Inactive)
REMARK    1  A    between atoms: C_1  and  C_2
REMARK    2  A    between atoms: C_2  and  C_4
REMARK    3  A    between atoms: C_2  and  C_18
REMARK    4  A    between atoms: C_11  and  C_12
REMARK    5  A    between atoms: C_14  and  C_15
REMARK                            x       y       z     vdW  Elec       q    Type
REMARK                         _______ _______ _______ _____ _____    ______ ____
ROOT
ATOM      1  C   LIG A   1      -8.618   0.644 126.195  0.00  0.00    +0.003 C 
ATOM      2  C   LIG A   1      -8.217  -0.857 126.374  0.00  0.00    +0.041 C 
ATOM      3  C   LIG A   1      -7.888  -1.301 127.818  0.00  0.00    -0.063 C 
ATOM      4  C   LIG A   1      -7.613  -2.803 127.924  0.00  0.00    +0.035 C 
ATOM      5  C   LIG A   1      -8.707  -3.660 127.253  0.00  0.00    +0.034 C 
ATOM      6  C   LIG A   1      -9.014  -3.115 125.873  0.00  0.00    -0.076 C 
ATOM      7  C   LIG A   1      -8.257  -3.756 124.744  0.00  0.00    +0.038 C 
ATOM      8  C   LIG A   1      -9.322  -1.798 125.844  0.00  0.00    -0.020 C 
ATOM      9  C   LIG A   1      -7.874  -0.438 128.858  0.00  0.00    -0.073 C 
ATOM     10  C   LIG A   1      -7.636  -0.796 130.302  0.00  0.00    +0.039 C 
ATOM     11  C   LIG A   1      -8.100   1.037 128.648  0.00  0.00    +0.031 C 
ATOM     12  C   LIG A   1      -7.850   1.499 127.216  0.00  0.00    +0.009 C 
ENDROOT
BRANCH   1  14
ATOM     13  C   LIG A   1      -6.951   0.894 124.244  0.00  0.00    +0.007 C 
ATOM     14  C   LIG A   1      -8.378   1.178 124.739  0.00  0.00    -0.013 C 
ATOM     15  C   LIG A   1      -8.640   2.680 124.582  0.00  0.00    +0.007 C 
ENDBRANCH   1  14
TORSDOF 1
ENDMDL
