MODEL 1
REMARK VINA RESULT:      -4.6      0.000      0.000
REMARK  Name = NuBBE_2115
REMARK  9 active torsions:
REMARK  status: ('A' for Active; 'I' for Inactive)
REMARK    1  A    between atoms: C_1  and  C_2
REMARK    2  A    between atoms: C_2  and  C_3
REMARK    3  A    between atoms: C_3  and  C_4
REMARK    4  A    between atoms: C_4  and  C_5
REMARK    5  A    between atoms: C_5  and  C_6
REMARK    6  A    between atoms: C_6  and  C_7
REMARK    7  A    between atoms: C_7  and  C_8
REMARK    8  A    between atoms: C_8  and  C_9
REMARK    9  A    between atoms: C_9  and  C_10
REMARK                            x       y       z     vdW  Elec       q    Type
REMARK                         _______ _______ _______ _____ _____    ______ ____
ROOT
ATOM      1  C   LIG A   1      -7.134  -1.797 122.644  0.00  0.00    -0.000 C 
ENDROOT
BRANCH   1   2
ATOM      2  C   LIG A   1      -6.292  -1.344 123.823  0.00  0.00    -0.000 C 
BRANCH   2   3
ATOM      3  C   LIG A   1      -5.440  -2.478 124.391  0.00  0.00    -0.000 C 
BRANCH   3   5
ATOM      4  C   LIG A   1      -4.437  -4.711 123.687  0.00  0.00    +0.004 C 
ATOM      5  C   LIG A   1      -4.741  -3.273 123.286  0.00  0.00    -0.003 C 
ENDBRANCH   3   5
ENDBRANCH   2   3
ENDBRANCH   1   2
BRANCH   1   6
ATOM      6  C   LIG A   1      -8.620  -1.764 122.988  0.00  0.00    -0.000 C 
BRANCH   6   7
ATOM      7  C   LIG A   1      -9.252  -3.125 123.290  0.00  0.00    -0.000 C 
BRANCH   7   8
ATOM      8  C   LIG A   1      -8.910  -3.731 124.661  0.00  0.00    -0.000 C 
BRANCH   8   9
ATOM      9  C   LIG A   1      -9.386  -2.900 125.857  0.00  0.00    -0.003 C 
ATOM     10  C   LIG A   1      -8.337  -2.825 126.956  0.00  0.00    +0.004 C 
ENDBRANCH   8   9
ENDBRANCH   7   8
ENDBRANCH   6   7
ENDBRANCH   1   6
TORSDOF 7
ENDMDL
MODEL 2
REMARK VINA RESULT:      -4.5     11.026     12.543
REMARK  Name = NuBBE_2115
REMARK  9 active torsions:
REMARK  status: ('A' for Active; 'I' for Inactive)
REMARK    1  A    between atoms: C_1  and  C_2
REMARK    2  A    between atoms: C_2  and  C_3
REMARK    3  A    between atoms: C_3  and  C_4
REMARK    4  A    between atoms: C_4  and  C_5
REMARK    5  A    between atoms: C_5  and  C_6
REMARK    6  A    between atoms: C_6  and  C_7
REMARK    7  A    between atoms: C_7  and  C_8
REMARK    8  A    between atoms: C_8  and  C_9
REMARK    9  A    between atoms: C_9  and  C_10
REMARK                            x       y       z     vdW  Elec       q    Type
REMARK                         _______ _______ _______ _____ _____    ______ ____
ROOT
ATOM      1  C   LIG A   1     -13.052   7.324 130.639  0.00  0.00    -0.000 C 
ENDROOT
BRANCH   1   2
ATOM      2  C   LIG A   1     -11.793   6.647 131.150  0.00  0.00    -0.000 C 
BRANCH   2   3
ATOM      3  C   LIG A   1     -11.296   5.561 130.198  0.00  0.00    -0.000 C 
BRANCH   3   5
ATOM      4  C   LIG A   1      -9.279   7.113 130.299  0.00  0.00    +0.004 C 
ATOM      5  C   LIG A   1      -9.869   5.834 129.719  0.00  0.00    -0.003 C 
ENDBRANCH   3   5
ENDBRANCH   2   3
ENDBRANCH   1   2
BRANCH   1   6
ATOM      6  C   LIG A   1     -12.745   8.723 130.111  0.00  0.00    -0.000 C 
BRANCH   6   7
ATOM      7  C   LIG A   1     -12.866   8.890 128.594  0.00  0.00    -0.000 C 
BRANCH   7   8
ATOM      8  C   LIG A   1     -13.407   7.670 127.830  0.00  0.00    -0.000 C 
BRANCH   8   9
ATOM      9  C   LIG A   1     -12.416   7.054 126.837  0.00  0.00    -0.003 C 
ATOM     10  C   LIG A   1     -11.088   7.796 126.816  0.00  0.00    +0.004 C 
ENDBRANCH   8   9
ENDBRANCH   7   8
ENDBRANCH   6   7
ENDBRANCH   1   6
TORSDOF 7
ENDMDL
MODEL 3
REMARK VINA RESULT:      -4.4      1.354      4.781
REMARK  Name = NuBBE_2115
REMARK  9 active torsions:
REMARK  status: ('A' for Active; 'I' for Inactive)
REMARK    1  A    between atoms: C_1  and  C_2
REMARK    2  A    between atoms: C_2  and  C_3
REMARK    3  A    between atoms: C_3  and  C_4
REMARK    4  A    between atoms: C_4  and  C_5
REMARK    5  A    between atoms: C_5  and  C_6
REMARK    6  A    between atoms: C_6  and  C_7
REMARK    7  A    between atoms: C_7  and  C_8
REMARK    8  A    between atoms: C_8  and  C_9
REMARK    9  A    between atoms: C_9  and  C_10
REMARK                            x       y       z     vdW  Elec       q    Type
REMARK                         _______ _______ _______ _____ _____    ______ ____
ROOT
ATOM      1  C   LIG A   1      -9.385  -3.018 125.467  0.00  0.00    -0.000 C 
ENDROOT
BRANCH   1   2
ATOM      2  C   LIG A   1      -8.664  -2.719 126.770  0.00  0.00    -0.000 C 
BRANCH   2   3
ATOM      3  C   LIG A   1      -8.869  -3.821 127.808  0.00  0.00    -0.000 C 
BRANCH   3   5
ATOM      4  C   LIG A   1      -7.713  -2.046 129.222  0.00  0.00    +0.004 C 
ATOM      5  C   LIG A   1      -8.166  -3.497 129.127  0.00  0.00    -0.003 C 
ENDBRANCH   3   5
ENDBRANCH   2   3
ENDBRANCH   1   2
BRANCH   1   6
ATOM      6  C   LIG A   1      -8.435  -2.907 124.278  0.00  0.00    -0.000 C 
BRANCH   6   7
ATOM      7  C   LIG A   1      -7.166  -3.758 124.374  0.00  0.00    -0.000 C 
BRANCH   7   8
ATOM      8  C   LIG A   1      -5.845  -2.978 124.465  0.00  0.00    -0.000 C 
BRANCH   8   9
ATOM      9  C   LIG A   1      -4.838  -3.303 123.356  0.00  0.00    -0.003 C 
ATOM     10  C   LIG A   1      -4.162  -4.648 123.572  0.00  0.00    +0.004 C 
ENDBRANCH   8   9
ENDBRANCH   7   8
ENDBRANCH   6   7
ENDBRANCH   1   6
TORSDOF 7
ENDMDL
MODEL 4
REMARK VINA RESULT:      -4.3      1.081      4.264
REMARK  Name = NuBBE_2115
REMARK  9 active torsions:
REMARK  status: ('A' for Active; 'I' for Inactive)
REMARK    1  A    between atoms: C_1  and  C_2
REMARK    2  A    between atoms: C_2  and  C_3
REMARK    3  A    between atoms: C_3  and  C_4
REMARK    4  A    between atoms: C_4  and  C_5
REMARK    5  A    between atoms: C_5  and  C_6
REMARK    6  A    between atoms: C_6  and  C_7
REMARK    7  A    between atoms: C_7  and  C_8
REMARK    8  A    between atoms: C_8  and  C_9
REMARK    9  A    between atoms: C_9  and  C_10
REMARK                            x       y       z     vdW  Elec       q    Type
REMARK                         _______ _______ _______ _____ _____    ______ ____
ROOT
ATOM      1  C   LIG A   1      -9.389  -3.303 124.112  0.00  0.00    -0.000 C 
ENDROOT
BRANCH   1   2
ATOM      2  C   LIG A   1      -8.404  -3.789 125.160  0.00  0.00    -0.000 C 
BRANCH   2   3
ATOM      3  C   LIG A   1      -8.497  -2.984 126.454  0.00  0.00    -0.000 C 
BRANCH   3   5
ATOM      4  C   LIG A   1      -8.385  -3.317 128.977  0.00  0.00    +0.004 C 
ATOM      5  C   LIG A   1      -8.882  -3.864 127.645  0.00  0.00    -0.003 C 
ENDBRANCH   3   5
ENDBRANCH   2   3
ENDBRANCH   1   2
BRANCH   1   6
ATOM      6  C   LIG A   1      -8.664  -2.646 122.942  0.00  0.00    -0.000 C 
BRANCH   6   7
ATOM      7  C   LIG A   1      -8.125  -1.239 123.214  0.00  0.00    -0.000 C 
BRANCH   7   8
ATOM      8  C   LIG A   1      -6.595  -1.114 123.293  0.00  0.00    -0.000 C 
BRANCH   8   9
ATOM      9  C   LIG A   1      -5.830  -2.301 122.697  0.00  0.00    -0.003 C 
ATOM     10  C   LIG A   1      -4.998  -3.029 123.742  0.00  0.00    +0.004 C 
ENDBRANCH   8   9
ENDBRANCH   7   8
ENDBRANCH   6   7
ENDBRANCH   1   6
TORSDOF 7
ENDMDL
MODEL 5
REMARK VINA RESULT:      -4.3      1.540      2.711
REMARK  Name = NuBBE_2115
REMARK  9 active torsions:
REMARK  status: ('A' for Active; 'I' for Inactive)
REMARK    1  A    between atoms: C_1  and  C_2
REMARK    2  A    between atoms: C_2  and  C_3
REMARK    3  A    between atoms: C_3  and  C_4
REMARK    4  A    between atoms: C_4  and  C_5
REMARK    5  A    between atoms: C_5  and  C_6
REMARK    6  A    between atoms: C_6  and  C_7
REMARK    7  A    between atoms: C_7  and  C_8
REMARK    8  A    between atoms: C_8  and  C_9
REMARK    9  A    between atoms: C_9  and  C_10
REMARK                            x       y       z     vdW  Elec       q    Type
REMARK                         _______ _______ _______ _____ _____    ______ ____
ROOT
ATOM      1  C   LIG A   1      -8.739  -3.338 124.255  0.00  0.00    -0.000 C 
ENDROOT
BRANCH   1   2
ATOM      2  C   LIG A   1      -7.264  -3.639 124.452  0.00  0.00    -0.000 C 
BRANCH   2   3
ATOM      3  C   LIG A   1      -6.373  -2.502 123.956  0.00  0.00    -0.000 C 
BRANCH   3   5
ATOM      4  C   LIG A   1      -4.699  -4.414 123.782  0.00  0.00    +0.004 C 
ATOM      5  C   LIG A   1      -5.097  -3.026 123.294  0.00  0.00    -0.003 C 
ENDBRANCH   3   5
ENDBRANCH   2   3
ENDBRANCH   1   2
BRANCH   1   6
ATOM      6  C   LIG A   1      -9.455  -3.209 125.596  0.00  0.00    -0.000 C 
BRANCH   6   7
ATOM      7  C   LIG A   1      -8.555  -2.874 126.788  0.00  0.00    -0.000 C 
BRANCH   7   8
ATOM      8  C   LIG A   1      -8.697  -3.794 128.011  0.00  0.00    -0.000 C 
BRANCH   8   9
ATOM      9  C   LIG A   1      -8.327  -3.137 129.345  0.00  0.00    -0.003 C 
ATOM     10  C   LIG A   1      -6.987  -3.626 129.872  0.00  0.00    +0.004 C 
ENDBRANCH   8   9
ENDBRANCH   7   8
ENDBRANCH   6   7
ENDBRANCH   1   6
TORSDOF 7
ENDMDL
MODEL 6
REMARK VINA RESULT:      -4.2      0.992      2.432
REMARK  Name = NuBBE_2115
REMARK  9 active torsions:
REMARK  status: ('A' for Active; 'I' for Inactive)
REMARK    1  A    between atoms: C_1  and  C_2
REMARK    2  A    between atoms: C_2  and  C_3
REMARK    3  A    between atoms: C_3  and  C_4
REMARK    4  A    between atoms: C_4  and  C_5
REMARK    5  A    between atoms: C_5  and  C_6
REMARK    6  A    between atoms: C_6  and  C_7
REMARK    7  A    between atoms: C_7  and  C_8
REMARK    8  A    between atoms: C_8  and  C_9
REMARK    9  A    between atoms: C_9  and  C_10
REMARK                            x       y       z     vdW  Elec       q    Type
REMARK                         _______ _______ _______ _____ _____    ______ ____
ROOT
ATOM      1  C   LIG A   1      -6.656  -0.922 126.071  0.00  0.00    -0.000 C 
ENDROOT
BRANCH   1   2
ATOM      2  C   LIG A   1      -5.759  -1.304 124.908  0.00  0.00    -0.000 C 
BRANCH   2   3
ATOM      3  C   LIG A   1      -5.372  -2.782 124.941  0.00  0.00    -0.000 C 
BRANCH   3   5
ATOM      4  C   LIG A   1      -4.214  -4.575 123.551  0.00  0.00    +0.004 C 
ATOM      5  C   LIG A   1      -5.086  -3.326 123.540  0.00  0.00    -0.003 C 
ENDBRANCH   3   5
ENDBRANCH   2   3
ENDBRANCH   1   2
BRANCH   1   6
ATOM      6  C   LIG A   1      -7.528  -2.098 126.499  0.00  0.00    -0.000 C 
BRANCH   6   7
ATOM      7  C   LIG A   1      -8.861  -2.228 125.758  0.00  0.00    -0.000 C 
BRANCH   7   8
ATOM      8  C   LIG A   1      -9.007  -3.468 124.861  0.00  0.00    -0.000 C 
BRANCH   8   9
ATOM      9  C   LIG A   1      -9.403  -3.160 123.413  0.00  0.00    -0.003 C 
ATOM     10  C   LIG A   1      -8.842  -1.829 122.937  0.00  0.00    +0.004 C 
ENDBRANCH   8   9
ENDBRANCH   7   8
ENDBRANCH   6   7
ENDBRANCH   1   6
TORSDOF 7
ENDMDL
MODEL 7
REMARK VINA RESULT:      -4.2     12.337     13.690
REMARK  Name = NuBBE_2115
REMARK  9 active torsions:
REMARK  status: ('A' for Active; 'I' for Inactive)
REMARK    1  A    between atoms: C_1  and  C_2
REMARK    2  A    between atoms: C_2  and  C_3
REMARK    3  A    between atoms: C_3  and  C_4
REMARK    4  A    between atoms: C_4  and  C_5
REMARK    5  A    between atoms: C_5  and  C_6
REMARK    6  A    between atoms: C_6  and  C_7
REMARK    7  A    between atoms: C_7  and  C_8
REMARK    8  A    between atoms: C_8  and  C_9
REMARK    9  A    between atoms: C_9  and  C_10
REMARK                            x       y       z     vdW  Elec       q    Type
REMARK                         _______ _______ _______ _____ _____    ______ ____
ROOT
ATOM      1  C   LIG A   1     -12.052   6.649 131.528  0.00  0.00    -0.000 C 
ENDROOT
BRANCH   1   2
ATOM      2  C   LIG A   1     -10.798   6.448 130.696  0.00  0.00    -0.000 C 
BRANCH   2   3
ATOM      3  C   LIG A   1      -9.532   6.455 131.550  0.00  0.00    -0.000 C 
BRANCH   3   5
ATOM      4  C   LIG A   1      -6.995   6.654 131.449  0.00  0.00    +0.004 C 
ATOM      5  C   LIG A   1      -8.321   6.965 130.767  0.00  0.00    -0.003 C 
ENDBRANCH   3   5
ENDBRANCH   2   3
ENDBRANCH   1   2
BRANCH   1   6
ATOM      6  C   LIG A   1     -12.815   7.890 131.077  0.00  0.00    -0.000 C 
BRANCH   6   7
ATOM      7  C   LIG A   1     -12.616   8.283 129.611  0.00  0.00    -0.000 C 
BRANCH   7   8
ATOM      8  C   LIG A   1     -13.124   9.680 129.219  0.00  0.00    -0.000 C 
BRANCH   8   9
ATOM      9  C   LIG A   1     -13.338  10.632 130.401  0.00  0.00    -0.003 C 
ATOM     10  C   LIG A   1     -13.781  12.015 129.950  0.00  0.00    +0.004 C 
ENDBRANCH   8   9
ENDBRANCH   7   8
ENDBRANCH   6   7
ENDBRANCH   1   6
TORSDOF 7
ENDMDL
MODEL 8
REMARK VINA RESULT:      -3.9      2.105      4.788
REMARK  Name = NuBBE_2115
REMARK  9 active torsions:
REMARK  status: ('A' for Active; 'I' for Inactive)
REMARK    1  A    between atoms: C_1  and  C_2
REMARK    2  A    between atoms: C_2  and  C_3
REMARK    3  A    between atoms: C_3  and  C_4
REMARK    4  A    between atoms: C_4  and  C_5
REMARK    5  A    between atoms: C_5  and  C_6
REMARK    6  A    between atoms: C_6  and  C_7
REMARK    7  A    between atoms: C_7  and  C_8
REMARK    8  A    between atoms: C_8  and  C_9
REMARK    9  A    between atoms: C_9  and  C_10
REMARK                            x       y       z     vdW  Elec       q    Type
REMARK                         _______ _______ _______ _____ _____    ______ ____
ROOT
ATOM      1  C   LIG A   1      -9.022  -3.631 127.183  0.00  0.00    -0.000 C 
ENDROOT
BRANCH   1   2
ATOM      2  C   LIG A   1      -8.875  -3.863 128.676  0.00  0.00    -0.000 C 
BRANCH   2   3
ATOM      3  C   LIG A   1      -7.878  -2.896 129.314  0.00  0.00    -0.000 C 
BRANCH   3   5
ATOM      4  C   LIG A   1      -5.390  -3.345 129.615  0.00  0.00    +0.004 C 
ATOM      5  C   LIG A   1      -6.801  -3.633 130.111  0.00  0.00    -0.003 C 
ENDBRANCH   3   5
ENDBRANCH   2   3
ENDBRANCH   1   2
BRANCH   1   6
ATOM      6  C   LIG A   1      -8.005  -2.608 126.685  0.00  0.00    -0.000 C 
BRANCH   6   7
ATOM      7  C   LIG A   1      -7.464  -2.858 125.275  0.00  0.00    -0.000 C 
BRANCH   7   8
ATOM      8  C   LIG A   1      -8.279  -3.836 124.412  0.00  0.00    -0.000 C 
BRANCH   8   9
ATOM      9  C   LIG A   1      -9.323  -3.168 123.511  0.00  0.00    -0.003 C 
ATOM     10  C   LIG A   1      -8.787  -1.907 122.850  0.00  0.00    +0.004 C 
ENDBRANCH   8   9
ENDBRANCH   7   8
ENDBRANCH   6   7
ENDBRANCH   1   6
TORSDOF 7
ENDMDL
MODEL 9
REMARK VINA RESULT:      -3.9      2.516      5.062
REMARK  Name = NuBBE_2115
REMARK  9 active torsions:
REMARK  status: ('A' for Active; 'I' for Inactive)
REMARK    1  A    between atoms: C_1  and  C_2
REMARK    2  A    between atoms: C_2  and  C_3
REMARK    3  A    between atoms: C_3  and  C_4
REMARK    4  A    between atoms: C_4  and  C_5
REMARK    5  A    between atoms: C_5  and  C_6
REMARK    6  A    between atoms: C_6  and  C_7
REMARK    7  A    between atoms: C_7  and  C_8
REMARK    8  A    between atoms: C_8  and  C_9
REMARK    9  A    between atoms: C_9  and  C_10
REMARK                            x       y       z     vdW  Elec       q    Type
REMARK                         _______ _______ _______ _____ _____    ______ ____
ROOT
ATOM      1  C   LIG A   1      -8.384  -2.771 126.980  0.00  0.00    -0.000 C 
ENDROOT
BRANCH   1   2
ATOM      2  C   LIG A   1      -9.372  -2.984 125.847  0.00  0.00    -0.000 C 
BRANCH   2   3
ATOM      3  C   LIG A   1      -8.730  -3.675 124.645  0.00  0.00    -0.000 C 
BRANCH   3   5
ATOM      4  C   LIG A   1      -9.077  -1.640 123.153  0.00  0.00    +0.004 C 
ATOM      5  C   LIG A   1      -9.280  -3.141 123.321  0.00  0.00    -0.003 C 
ENDBRANCH   3   5
ENDBRANCH   2   3
ENDBRANCH   1   2
BRANCH   1   6
ATOM      6  C   LIG A   1      -8.646  -3.744 128.125  0.00  0.00    -0.000 C 
BRANCH   6   7
ATOM      7  C   LIG A   1      -7.775  -3.542 129.367  0.00  0.00    -0.000 C 
BRANCH   7   8
ATOM      8  C   LIG A   1      -6.399  -2.903 129.119  0.00  0.00    -0.000 C 
BRANCH   8   9
ATOM      9  C   LIG A   1      -5.238  -3.597 129.840  0.00  0.00    -0.003 C 
ATOM     10  C   LIG A   1      -5.703  -4.791 130.658  0.00  0.00    +0.004 C 
ENDBRANCH   8   9
ENDBRANCH   7   8
ENDBRANCH   6   7
ENDBRANCH   1   6
TORSDOF 7
ENDMDL
