MODEL 1
REMARK VINA RESULT:      -8.2      0.000      0.000
REMARK  Name = NuBBE_370
REMARK  10 active torsions:
REMARK  status: ('A' for Active; 'I' for Inactive)
REMARK    1  A    between atoms: O_1  and  C_2
REMARK    2  A    between atoms: C_8  and  O_28
REMARK    3  A    between atoms: C_9  and  C_10
REMARK    4  A    between atoms: C_13  and  C_24
REMARK    5  A    between atoms: C_15  and  O_23
REMARK    6  A    between atoms: C_17  and  O_22
REMARK    7  A    between atoms: C_19  and  O_21
REMARK    8  A    between atoms: C_24  and  O_25
REMARK    9  A    between atoms: C_26  and  O_27
REMARK   10  A    between atoms: C_34  and  O_35
REMARK                            x       y       z     vdW  Elec       q    Type
REMARK                         _______ _______ _______ _____ _____    ______ ____
ROOT
ATOM      1  C   LIG A   1      -2.396   4.784 132.203  0.00  0.00    +0.162 A 
ATOM      2  C   LIG A   1      -3.589   4.063 132.263  0.00  0.00    +0.096 A 
ATOM      3  C   LIG A   1      -4.775   4.662 131.834  0.00  0.00    +0.143 A 
ATOM      4  O   LIG A   1      -5.915   3.899 131.922  0.00  0.00    -0.454 OA
ATOM      5  C   LIG A   1      -7.096   4.437 131.470  0.00  0.00    +0.146 A 
ATOM      6  C   LIG A   1      -8.217   3.612 131.549  0.00  0.00    +0.093 A 
ATOM      7  C   LIG A   1      -9.454   4.074 131.090  0.00  0.00    +0.130 A 
ATOM      8  C   LIG A   1      -9.606   5.360 130.546  0.00  0.00    +0.067 A 
ATOM      9  C   LIG A   1      -8.465   6.184 130.492  0.00  0.00    +0.140 A 
ATOM     10  C   LIG A   1      -7.221   5.722 130.951  0.00  0.00    +0.106 A 
ATOM     11  C   LIG A   1      -6.016   6.564 130.891  0.00  0.00    +0.204 A 
ATOM     12  O   LIG A   1      -6.072   7.711 130.467  0.00  0.00    -0.286 OA
ATOM     13  C   LIG A   1      -4.755   5.969 131.349  0.00  0.00    +0.068 A 
ATOM     14  C   LIG A   1      -3.563   6.697 131.289  0.00  0.00    +0.064 A 
ATOM     15  C   LIG A   1      -2.384   6.096 131.719  0.00  0.00    +0.159 A 
ENDROOT
BRANCH   8  16
ATOM     16  C   LIG A   1     -10.956   5.835 130.028  0.00  0.00    +0.187 C 
ATOM     17  O   LIG A   1     -10.723   6.358 128.704  0.00  0.00    -0.361 OA
ATOM     18  C   LIG A   1     -11.886   6.922 128.086  0.00  0.00    +0.175 C 
ATOM     19  C   LIG A   1     -12.439   8.071 128.932  0.00  0.00    +0.176 C 
ATOM     20  C   LIG A   1     -12.811   7.534 130.313  0.00  0.00    +0.177 C 
ATOM     21  C   LIG A   1     -11.616   6.857 130.986  0.00  0.00    +0.179 C 
BRANCH  21  22
ATOM     22  O   LIG A   1     -12.088   6.222 132.187  0.00  0.00    -0.386 OA
ATOM     23  H   LIG A   1     -13.019   5.988 131.998  0.00  0.00    +0.210 HD
ENDBRANCH  21  22
BRANCH  20  24
ATOM     24  O   LIG A   1     -13.283   8.602 131.154  0.00  0.00    -0.387 OA
ATOM     25  H   LIG A   1     -13.537   9.328 130.548  0.00  0.00    +0.210 HD
ENDBRANCH  20  24
BRANCH  19  26
ATOM     26  O   LIG A   1     -13.597   8.682 128.350  0.00  0.00    -0.387 OA
ATOM     27  H   LIG A   1     -14.120   9.097 129.060  0.00  0.00    +0.210 HD
ENDBRANCH  19  26
BRANCH  18  28
ATOM     28  C   LIG A   1     -11.480   7.407 126.690  0.00  0.00    +0.190 C 
BRANCH  28  29
ATOM     29  O   LIG A   1     -10.482   6.537 126.151  0.00  0.00    -0.392 OA
ATOM     30  H   LIG A   1     -10.224   5.954 126.892  0.00  0.00    +0.209 HD
ENDBRANCH  28  29
ENDBRANCH  18  28
ENDBRANCH   8  16
BRANCH   1  31
ATOM     31  O   LIG A   1      -1.225   4.215 132.615  0.00  0.00    -0.503 OA
ATOM     32  H   LIG A   1      -0.517   4.879 132.602  0.00  0.00    +0.292 HD
ENDBRANCH   1  31
BRANCH   9  33
ATOM     33  O   LIG A   1      -8.599   7.451 129.977  0.00  0.00    -0.505 OA
ATOM     34  H   LIG A   1      -7.748   7.711 129.558  0.00  0.00    +0.292 HD
ENDBRANCH   9  33
BRANCH   7  35
ATOM     35  O   LIG A   1     -10.543   3.248 131.166  0.00  0.00    -0.506 OA
ATOM     36  H   LIG A   1     -10.264   2.368 131.469  0.00  0.00    +0.292 HD
ENDBRANCH   7  35
BRANCH  15  37
ATOM     37  O   LIG A   1      -1.203   6.780 131.672  0.00  0.00    -0.503 OA
ATOM     38  H   LIG A   1      -0.724   6.546 130.862  0.00  0.00    +0.292 HD
ENDBRANCH  15  37
TORSDOF 10
ENDMDL
MODEL 2
REMARK VINA RESULT:      -7.7      2.456      4.162
REMARK  Name = NuBBE_370
REMARK  10 active torsions:
REMARK  status: ('A' for Active; 'I' for Inactive)
REMARK    1  A    between atoms: O_1  and  C_2
REMARK    2  A    between atoms: C_8  and  O_28
REMARK    3  A    between atoms: C_9  and  C_10
REMARK    4  A    between atoms: C_13  and  C_24
REMARK    5  A    between atoms: C_15  and  O_23
REMARK    6  A    between atoms: C_17  and  O_22
REMARK    7  A    between atoms: C_19  and  O_21
REMARK    8  A    between atoms: C_24  and  O_25
REMARK    9  A    between atoms: C_26  and  O_27
REMARK   10  A    between atoms: C_34  and  O_35
REMARK                            x       y       z     vdW  Elec       q    Type
REMARK                         _______ _______ _______ _____ _____    ______ ____
ROOT
ATOM      1  C   LIG A   1      -5.142   0.084 133.293  0.00  0.00    +0.162 A 
ATOM      2  C   LIG A   1      -5.194   1.367 132.748  0.00  0.00    +0.096 A 
ATOM      3  C   LIG A   1      -6.412   1.864 132.277  0.00  0.00    +0.143 A 
ATOM      4  O   LIG A   1      -6.394   3.133 131.751  0.00  0.00    -0.454 OA
ATOM      5  C   LIG A   1      -7.579   3.675 131.315  0.00  0.00    +0.146 A 
ATOM      6  C   LIG A   1      -7.515   4.978 130.821  0.00  0.00    +0.093 A 
ATOM      7  C   LIG A   1      -8.679   5.611 130.377  0.00  0.00    +0.130 A 
ATOM      8  C   LIG A   1      -9.928   4.969 130.414  0.00  0.00    +0.067 A 
ATOM      9  C   LIG A   1      -9.969   3.647 130.900  0.00  0.00    +0.140 A 
ATOM     10  C   LIG A   1      -8.800   3.010 131.347  0.00  0.00    +0.106 A 
ATOM     11  C   LIG A   1      -8.825   1.634 131.869  0.00  0.00    +0.204 A 
ATOM     12  O   LIG A   1      -9.867   0.992 131.897  0.00  0.00    -0.286 OA
ATOM     13  C   LIG A   1      -7.558   1.077 132.358  0.00  0.00    +0.068 A 
ATOM     14  C   LIG A   1      -7.512  -0.212 132.901  0.00  0.00    +0.064 A 
ATOM     15  C   LIG A   1      -6.297  -0.702 133.367  0.00  0.00    +0.159 A 
ENDROOT
BRANCH   8  16
ATOM     16  C   LIG A   1     -11.189   5.685 129.951  0.00  0.00    +0.187 C 
ATOM     17  O   LIG A   1     -10.896   6.223 128.644  0.00  0.00    -0.361 OA
ATOM     18  C   LIG A   1     -11.959   6.999 128.080  0.00  0.00    +0.175 C 
ATOM     19  C   LIG A   1     -12.299   8.183 128.988  0.00  0.00    +0.176 C 
ATOM     20  C   LIG A   1     -12.731   7.652 130.354  0.00  0.00    +0.177 C 
ATOM     21  C   LIG A   1     -11.653   6.756 130.967  0.00  0.00    +0.179 C 
BRANCH  21  22
ATOM     22  O   LIG A   1     -12.204   6.153 132.151  0.00  0.00    -0.386 OA
ATOM     23  H   LIG A   1     -13.016   5.700 131.847  0.00  0.00    +0.210 HD
ENDBRANCH  21  22
BRANCH  20  24
ATOM     24  O   LIG A   1     -13.004   8.743 131.250  0.00  0.00    -0.387 OA
ATOM     25  H   LIG A   1     -12.573   8.509 132.097  0.00  0.00    +0.210 HD
ENDBRANCH  20  24
BRANCH  19  26
ATOM     26  O   LIG A   1     -13.349   9.004 128.462  0.00  0.00    -0.387 OA
ATOM     27  H   LIG A   1     -12.985   9.555 127.746  0.00  0.00    +0.210 HD
ENDBRANCH  19  26
BRANCH  18  28
ATOM     28  C   LIG A   1     -11.501   7.474 126.696  0.00  0.00    +0.190 C 
BRANCH  28  29
ATOM     29  O   LIG A   1     -10.541   6.558 126.167  0.00  0.00    -0.392 OA
ATOM     30  H   LIG A   1     -11.054   5.763 125.923  0.00  0.00    +0.209 HD
ENDBRANCH  28  29
ENDBRANCH  18  28
ENDBRANCH   8  16
BRANCH   1  31
ATOM     31  O   LIG A   1      -3.963  -0.419 133.762  0.00  0.00    -0.503 OA
ATOM     32  H   LIG A   1      -3.399   0.305 134.073  0.00  0.00    +0.292 HD
ENDBRANCH   1  31
BRANCH   9  33
ATOM     33  O   LIG A   1     -11.180   3.000 130.927  0.00  0.00    -0.505 OA
ATOM     34  H   LIG A   1     -11.093   2.150 130.438  0.00  0.00    +0.292 HD
ENDBRANCH   9  33
BRANCH   7  35
ATOM     35  O   LIG A   1      -8.601   6.893 129.903  0.00  0.00    -0.506 OA
ATOM     36  H   LIG A   1      -8.837   7.516 130.610  0.00  0.00    +0.292 HD
ENDBRANCH   7  35
BRANCH  15  37
ATOM     37  O   LIG A   1      -6.218  -1.956 133.904  0.00  0.00    -0.503 OA
ATOM     38  H   LIG A   1      -6.325  -1.904 134.867  0.00  0.00    +0.292 HD
ENDBRANCH  15  37
TORSDOF 10
ENDMDL
MODEL 3
REMARK VINA RESULT:      -7.2      6.154      8.577
REMARK  Name = NuBBE_370
REMARK  10 active torsions:
REMARK  status: ('A' for Active; 'I' for Inactive)
REMARK    1  A    between atoms: O_1  and  C_2
REMARK    2  A    between atoms: C_8  and  O_28
REMARK    3  A    between atoms: C_9  and  C_10
REMARK    4  A    between atoms: C_13  and  C_24
REMARK    5  A    between atoms: C_15  and  O_23
REMARK    6  A    between atoms: C_17  and  O_22
REMARK    7  A    between atoms: C_19  and  O_21
REMARK    8  A    between atoms: C_24  and  O_25
REMARK    9  A    between atoms: C_26  and  O_27
REMARK   10  A    between atoms: C_34  and  O_35
REMARK                            x       y       z     vdW  Elec       q    Type
REMARK                         _______ _______ _______ _____ _____    ______ ____
ROOT
ATOM      1  C   LIG A   1      -5.586   4.707 120.390  0.00  0.00    +0.162 A 
ATOM      2  C   LIG A   1      -6.578   3.812 120.791  0.00  0.00    +0.096 A 
ATOM      3  C   LIG A   1      -6.699   3.482 122.143  0.00  0.00    +0.143 A 
ATOM      4  O   LIG A   1      -7.694   2.595 122.471  0.00  0.00    -0.454 OA
ATOM      5  C   LIG A   1      -7.873   2.276 123.796  0.00  0.00    +0.146 A 
ATOM      6  C   LIG A   1      -8.918   1.398 124.082  0.00  0.00    +0.093 A 
ATOM      7  C   LIG A   1      -9.181   1.039 125.407  0.00  0.00    +0.130 A 
ATOM      8  C   LIG A   1      -8.418   1.541 126.474  0.00  0.00    +0.067 A 
ATOM      9  C   LIG A   1      -7.355   2.413 126.162  0.00  0.00    +0.140 A 
ATOM     10  C   LIG A   1      -7.089   2.776 124.832  0.00  0.00    +0.106 A 
ATOM     11  C   LIG A   1      -5.993   3.694 124.488  0.00  0.00    +0.204 A 
ATOM     12  O   LIG A   1      -5.255   4.144 125.356  0.00  0.00    -0.286 OA
ATOM     13  C   LIG A   1      -5.830   4.049 123.073  0.00  0.00    +0.068 A 
ATOM     14  C   LIG A   1      -4.831   4.944 122.677  0.00  0.00    +0.064 A 
ATOM     15  C   LIG A   1      -4.716   5.269 121.329  0.00  0.00    +0.159 A 
ENDROOT
BRANCH   8  16
ATOM     16  C   LIG A   1      -8.737   1.159 127.912  0.00  0.00    +0.187 C 
ATOM     17  O   LIG A   1      -8.876   2.396 128.641  0.00  0.00    -0.361 OA
ATOM     18  C   LIG A   1      -9.109   2.225 130.044  0.00  0.00    +0.175 C 
ATOM     19  C   LIG A   1      -7.958   1.450 130.688  0.00  0.00    +0.176 C 
ATOM     20  C   LIG A   1      -7.849   0.079 130.022  0.00  0.00    +0.177 C 
ATOM     21  C   LIG A   1      -7.670   0.210 128.509  0.00  0.00    +0.179 C 
BRANCH  21  22
ATOM     22  O   LIG A   1      -7.762  -1.108 127.939  0.00  0.00    -0.386 OA
ATOM     23  H   LIG A   1      -7.308  -1.039 127.075  0.00  0.00    +0.210 HD
ENDBRANCH  21  22
BRANCH  20  24
ATOM     24  O   LIG A   1      -6.738  -0.655 130.567  0.00  0.00    -0.387 OA
ATOM     25  H   LIG A   1      -5.976  -0.458 129.986  0.00  0.00    +0.210 HD
ENDBRANCH  20  24
BRANCH  19  26
ATOM     26  O   LIG A   1      -8.133   1.263 132.098  0.00  0.00    -0.387 OA
ATOM     27  H   LIG A   1      -7.293   1.465 132.546  0.00  0.00    +0.210 HD
ENDBRANCH  19  26
BRANCH  18  28
ATOM     28  C   LIG A   1      -9.256   3.619 130.663  0.00  0.00    +0.190 C 
BRANCH  28  29
ATOM     29  O   LIG A   1     -10.101   3.548 131.812  0.00  0.00    -0.392 OA
ATOM     30  H   LIG A   1     -10.715   4.303 131.725  0.00  0.00    +0.209 HD
ENDBRANCH  28  29
ENDBRANCH  18  28
ENDBRANCH   8  16
BRANCH   1  31
ATOM     31  O   LIG A   1      -5.453   5.045 119.073  0.00  0.00    -0.503 OA
ATOM     32  H   LIG A   1      -4.789   5.745 118.981  0.00  0.00    +0.292 HD
ENDBRANCH   1  31
BRANCH   9  33
ATOM     33  O   LIG A   1      -6.588   2.900 127.192  0.00  0.00    -0.505 OA
ATOM     34  H   LIG A   1      -5.793   3.337 126.811  0.00  0.00    +0.292 HD
ENDBRANCH   9  33
BRANCH   7  35
ATOM     35  O   LIG A   1     -10.217   0.184 125.672  0.00  0.00    -0.506 OA
ATOM     36  H   LIG A   1     -10.876   0.631 126.227  0.00  0.00    +0.292 HD
ENDBRANCH   7  35
BRANCH  15  37
ATOM     37  O   LIG A   1      -3.751   6.140 120.908  0.00  0.00    -0.503 OA
ATOM     38  H   LIG A   1      -3.969   6.461 120.019  0.00  0.00    +0.292 HD
ENDBRANCH  15  37
TORSDOF 10
ENDMDL
MODEL 4
REMARK VINA RESULT:      -7.2      6.026      9.171
REMARK  Name = NuBBE_370
REMARK  10 active torsions:
REMARK  status: ('A' for Active; 'I' for Inactive)
REMARK    1  A    between atoms: O_1  and  C_2
REMARK    2  A    between atoms: C_8  and  O_28
REMARK    3  A    between atoms: C_9  and  C_10
REMARK    4  A    between atoms: C_13  and  C_24
REMARK    5  A    between atoms: C_15  and  O_23
REMARK    6  A    between atoms: C_17  and  O_22
REMARK    7  A    between atoms: C_19  and  O_21
REMARK    8  A    between atoms: C_24  and  O_25
REMARK    9  A    between atoms: C_26  and  O_27
REMARK   10  A    between atoms: C_34  and  O_35
REMARK                            x       y       z     vdW  Elec       q    Type
REMARK                         _______ _______ _______ _____ _____    ______ ____
ROOT
ATOM      1  C   LIG A   1      -5.804   4.607 120.234  0.00  0.00    +0.162 A 
ATOM      2  C   LIG A   1      -5.277   4.469 121.518  0.00  0.00    +0.096 A 
ATOM      3  C   LIG A   1      -6.056   3.889 122.522  0.00  0.00    +0.143 A 
ATOM      4  O   LIG A   1      -5.479   3.785 123.764  0.00  0.00    -0.454 OA
ATOM      5  C   LIG A   1      -6.198   3.182 124.768  0.00  0.00    +0.146 A 
ATOM      6  C   LIG A   1      -5.556   3.069 126.002  0.00  0.00    +0.093 A 
ATOM      7  C   LIG A   1      -6.209   2.449 127.071  0.00  0.00    +0.130 A 
ATOM      8  C   LIG A   1      -7.508   1.929 126.941  0.00  0.00    +0.067 A 
ATOM      9  C   LIG A   1      -8.145   2.070 125.693  0.00  0.00    +0.140 A 
ATOM     10  C   LIG A   1      -7.491   2.691 124.617  0.00  0.00    +0.106 A 
ATOM     11  C   LIG A   1      -8.136   2.836 123.303  0.00  0.00    +0.204 A 
ATOM     12  O   LIG A   1      -9.282   2.445 123.119  0.00  0.00    -0.286 OA
ATOM     13  C   LIG A   1      -7.348   3.455 122.230  0.00  0.00    +0.068 A 
ATOM     14  C   LIG A   1      -7.883   3.593 120.945  0.00  0.00    +0.064 A 
ATOM     15  C   LIG A   1      -7.102   4.172 119.950  0.00  0.00    +0.159 A 
ENDROOT
BRANCH   8  16
ATOM     16  C   LIG A   1      -8.192   1.235 128.110  0.00  0.00    +0.187 C 
ATOM     17  O   LIG A   1      -8.265   2.206 129.175  0.00  0.00    -0.361 OA
ATOM     18  C   LIG A   1      -8.823   1.697 130.392  0.00  0.00    +0.175 C 
ATOM     19  C   LIG A   1      -7.992   0.521 130.912  0.00  0.00    +0.176 C 
ATOM     20  C   LIG A   1      -7.985  -0.585 129.857  0.00  0.00    +0.177 C 
ATOM     21  C   LIG A   1      -7.463  -0.069 128.516  0.00  0.00    +0.179 C 
BRANCH  21  22
ATOM     22  O   LIG A   1      -7.660  -1.106 127.538  0.00  0.00    -0.386 OA
ATOM     23  H   LIG A   1      -6.835  -1.631 127.560  0.00  0.00    +0.210 HD
ENDBRANCH  21  22
BRANCH  20  24
ATOM     24  O   LIG A   1      -7.165  -1.684 130.292  0.00  0.00    -0.387 OA
ATOM     25  H   LIG A   1      -6.331  -1.613 129.785  0.00  0.00    +0.210 HD
ENDBRANCH  20  24
BRANCH  19  26
ATOM     26  O   LIG A   1      -8.498  -0.018 132.139  0.00  0.00    -0.387 OA
ATOM     27  H   LIG A   1      -9.471   0.004 132.111  0.00  0.00    +0.210 HD
ENDBRANCH  19  26
BRANCH  18  28
ATOM     28  C   LIG A   1      -8.852   2.847 131.405  0.00  0.00    +0.190 C 
BRANCH  28  29
ATOM     29  O   LIG A   1      -9.920   2.644 132.331  0.00  0.00    -0.392 OA
ATOM     30  H   LIG A   1     -10.496   3.427 132.232  0.00  0.00    +0.209 HD
ENDBRANCH  28  29
ENDBRANCH  18  28
ENDBRANCH   8  16
BRANCH   1  31
ATOM     31  O   LIG A   1      -5.057   5.168 119.239  0.00  0.00    -0.503 OA
ATOM     32  H   LIG A   1      -4.193   4.730 119.191  0.00  0.00    +0.292 HD
ENDBRANCH   1  31
BRANCH   9  33
ATOM     33  O   LIG A   1      -9.422   1.581 125.554  0.00  0.00    -0.505 OA
ATOM     34  H   LIG A   1      -9.380   0.733 125.057  0.00  0.00    +0.292 HD
ENDBRANCH   9  33
BRANCH   7  35
ATOM     35  O   LIG A   1      -5.562   2.338 128.272  0.00  0.00    -0.506 OA
ATOM     36  H   LIG A   1      -5.548   1.407 128.549  0.00  0.00    +0.292 HD
ENDBRANCH   7  35
BRANCH  15  37
ATOM     37  O   LIG A   1      -7.595   4.322 118.685  0.00  0.00    -0.503 OA
ATOM     38  H   LIG A   1      -7.242   5.136 118.293  0.00  0.00    +0.292 HD
ENDBRANCH  15  37
TORSDOF 10
ENDMDL
MODEL 5
REMARK VINA RESULT:      -7.1      5.211      5.829
REMARK  Name = NuBBE_370
REMARK  10 active torsions:
REMARK  status: ('A' for Active; 'I' for Inactive)
REMARK    1  A    between atoms: O_1  and  C_2
REMARK    2  A    between atoms: C_8  and  O_28
REMARK    3  A    between atoms: C_9  and  C_10
REMARK    4  A    between atoms: C_13  and  C_24
REMARK    5  A    between atoms: C_15  and  O_23
REMARK    6  A    between atoms: C_17  and  O_22
REMARK    7  A    between atoms: C_19  and  O_21
REMARK    8  A    between atoms: C_24  and  O_25
REMARK    9  A    between atoms: C_26  and  O_27
REMARK   10  A    between atoms: C_34  and  O_35
REMARK                            x       y       z     vdW  Elec       q    Type
REMARK                         _______ _______ _______ _____ _____    ______ ____
ROOT
ATOM      1  C   LIG A   1      -1.917   5.952 132.744  0.00  0.00    +0.162 A 
ATOM      2  C   LIG A   1      -2.264   4.689 132.266  0.00  0.00    +0.096 A 
ATOM      3  C   LIG A   1      -3.005   4.580 131.088  0.00  0.00    +0.143 A 
ATOM      4  O   LIG A   1      -3.315   3.307 130.673  0.00  0.00    -0.454 OA
ATOM      5  C   LIG A   1      -4.007   3.155 129.496  0.00  0.00    +0.146 A 
ATOM      6  C   LIG A   1      -4.268   1.844 129.100  0.00  0.00    +0.093 A 
ATOM      7  C   LIG A   1      -4.948   1.601 127.904  0.00  0.00    +0.130 A 
ATOM      8  C   LIG A   1      -5.383   2.649 127.076  0.00  0.00    +0.067 A 
ATOM      9  C   LIG A   1      -5.126   3.967 127.502  0.00  0.00    +0.140 A 
ATOM     10  C   LIG A   1      -4.441   4.214 128.704  0.00  0.00    +0.106 A 
ATOM     11  C   LIG A   1      -4.153   5.582 129.159  0.00  0.00    +0.204 A 
ATOM     12  O   LIG A   1      -4.533   6.552 128.514  0.00  0.00    -0.286 OA
ATOM     13  C   LIG A   1      -3.387   5.732 130.402  0.00  0.00    +0.068 A 
ATOM     14  C   LIG A   1      -3.045   7.002 130.878  0.00  0.00    +0.064 A 
ATOM     15  C   LIG A   1      -2.308   7.103 132.053  0.00  0.00    +0.159 A 
ENDROOT
BRANCH   8  16
ATOM     16  C   LIG A   1      -6.100   2.364 125.764  0.00  0.00    +0.187 C 
ATOM     17  O   LIG A   1      -5.597   3.320 124.808  0.00  0.00    -0.361 OA
ATOM     18  C   LIG A   1      -6.220   3.244 123.521  0.00  0.00    +0.175 C 
ATOM     19  C   LIG A   1      -7.728   3.479 123.641  0.00  0.00    +0.176 C 
ATOM     20  C   LIG A   1      -8.324   2.410 124.556  0.00  0.00    +0.177 C 
ATOM     21  C   LIG A   1      -7.639   2.405 125.924  0.00  0.00    +0.179 C 
BRANCH  21  22
ATOM     22  O   LIG A   1      -8.122   1.264 126.654  0.00  0.00    -0.386 OA
ATOM     23  H   LIG A   1      -8.909   1.589 127.135  0.00  0.00    +0.210 HD
ENDBRANCH  21  22
BRANCH  20  24
ATOM     24  O   LIG A   1      -9.733   2.636 124.735  0.00  0.00    -0.387 OA
ATOM     25  H   LIG A   1      -9.824   3.576 124.992  0.00  0.00    +0.210 HD
ENDBRANCH  20  24
BRANCH  19  26
ATOM     26  O   LIG A   1      -8.401   3.428 122.377  0.00  0.00    -0.387 OA
ATOM     27  H   LIG A   1      -9.334   3.197 122.530  0.00  0.00    +0.210 HD
ENDBRANCH  19  26
BRANCH  18  28
ATOM     28  C   LIG A   1      -5.564   4.299 122.624  0.00  0.00    +0.190 C 
BRANCH  28  29
ATOM     29  O   LIG A   1      -6.004   4.126 121.277  0.00  0.00    -0.392 OA
ATOM     30  H   LIG A   1      -6.935   4.424 121.272  0.00  0.00    +0.209 HD
ENDBRANCH  28  29
ENDBRANCH  18  28
ENDBRANCH   8  16
BRANCH   1  31
ATOM     31  O   LIG A   1      -1.189   6.080 133.893  0.00  0.00    -0.503 OA
ATOM     32  H   LIG A   1      -0.616   6.860 133.831  0.00  0.00    +0.292 HD
ENDBRANCH   1  31
BRANCH   9  33
ATOM     33  O   LIG A   1      -5.559   5.004 126.712  0.00  0.00    -0.505 OA
ATOM     34  H   LIG A   1      -4.855   5.214 126.057  0.00  0.00    +0.292 HD
ENDBRANCH   9  33
BRANCH   7  35
ATOM     35  O   LIG A   1      -5.189   0.308 127.525  0.00  0.00    -0.506 OA
ATOM     36  H   LIG A   1      -4.410  -0.239 127.723  0.00  0.00    +0.292 HD
ENDBRANCH   7  35
BRANCH  15  37
ATOM     37  O   LIG A   1      -1.957   8.329 132.544  0.00  0.00    -0.503 OA
ATOM     38  H   LIG A   1      -1.322   8.750 131.942  0.00  0.00    +0.292 HD
ENDBRANCH  15  37
TORSDOF 10
ENDMDL
MODEL 6
REMARK VINA RESULT:      -7.0      6.998      8.407
REMARK  Name = NuBBE_370
REMARK  10 active torsions:
REMARK  status: ('A' for Active; 'I' for Inactive)
REMARK    1  A    between atoms: O_1  and  C_2
REMARK    2  A    between atoms: C_8  and  O_28
REMARK    3  A    between atoms: C_9  and  C_10
REMARK    4  A    between atoms: C_13  and  C_24
REMARK    5  A    between atoms: C_15  and  O_23
REMARK    6  A    between atoms: C_17  and  O_22
REMARK    7  A    between atoms: C_19  and  O_21
REMARK    8  A    between atoms: C_24  and  O_25
REMARK    9  A    between atoms: C_26  and  O_27
REMARK   10  A    between atoms: C_34  and  O_35
REMARK                            x       y       z     vdW  Elec       q    Type
REMARK                         _______ _______ _______ _____ _____    ______ ____
ROOT
ATOM      1  C   LIG A   1      -5.938  -4.164 132.034  0.00  0.00    +0.162 A 
ATOM      2  C   LIG A   1      -5.805  -4.041 130.651  0.00  0.00    +0.096 A 
ATOM      3  C   LIG A   1      -6.399  -2.958 129.998  0.00  0.00    +0.143 A 
ATOM      4  O   LIG A   1      -6.232  -2.897 128.636  0.00  0.00    -0.454 OA
ATOM      5  C   LIG A   1      -6.765  -1.825 127.961  0.00  0.00    +0.146 A 
ATOM      6  C   LIG A   1      -6.540  -1.790 126.586  0.00  0.00    +0.093 A 
ATOM      7  C   LIG A   1      -7.030  -0.722 125.828  0.00  0.00    +0.130 A 
ATOM      8  C   LIG A   1      -7.751   0.330 126.415  0.00  0.00    +0.067 A 
ATOM      9  C   LIG A   1      -7.983   0.267 127.803  0.00  0.00    +0.140 A 
ATOM     10  C   LIG A   1      -7.491  -0.804 128.567  0.00  0.00    +0.106 A 
ATOM     11  C   LIG A   1      -7.713  -0.881 130.019  0.00  0.00    +0.204 A 
ATOM     12  O   LIG A   1      -8.367  -0.023 130.601  0.00  0.00    -0.286 OA
ATOM     13  C   LIG A   1      -7.115  -2.015 130.733  0.00  0.00    +0.068 A 
ATOM     14  C   LIG A   1      -7.254  -2.134 132.120  0.00  0.00    +0.064 A 
ATOM     15  C   LIG A   1      -6.661  -3.215 132.764  0.00  0.00    +0.159 A 
ENDROOT
BRANCH   8  16
ATOM     16  C   LIG A   1      -8.253   1.497 125.577  0.00  0.00    +0.187 C 
ATOM     17  O   LIG A   1      -8.937   0.920 124.444  0.00  0.00    -0.361 OA
ATOM     18  C   LIG A   1      -9.419   1.884 123.501  0.00  0.00    +0.175 C 
ATOM     19  C   LIG A   1      -8.262   2.720 122.949  0.00  0.00    +0.176 C 
ATOM     20  C   LIG A   1      -7.579   3.445 124.108  0.00  0.00    +0.177 C 
ATOM     21  C   LIG A   1      -7.109   2.460 125.179  0.00  0.00    +0.179 C 
BRANCH  21  22
ATOM     22  O   LIG A   1      -6.649   3.223 126.309  0.00  0.00    -0.386 OA
ATOM     23  H   LIG A   1      -7.331   3.912 126.439  0.00  0.00    +0.210 HD
ENDBRANCH  21  22
BRANCH  20  24
ATOM     24  O   LIG A   1      -6.450   4.197 123.630  0.00  0.00    -0.387 OA
ATOM     25  H   LIG A   1      -5.658   3.668 123.859  0.00  0.00    +0.210 HD
ENDBRANCH  20  24
BRANCH  19  26
ATOM     26  O   LIG A   1      -8.687   3.692 121.987  0.00  0.00    -0.387 OA
ATOM     27  H   LIG A   1      -8.401   4.573 122.287  0.00  0.00    +0.210 HD
ENDBRANCH  19  26
BRANCH  18  28
ATOM     28  C   LIG A   1     -10.133   1.118 122.381  0.00  0.00    +0.190 C 
BRANCH  28  29
ATOM     29  O   LIG A   1     -11.394   0.640 122.855  0.00  0.00    -0.392 OA
ATOM     30  H   LIG A   1     -11.940   1.441 122.981  0.00  0.00    +0.209 HD
ENDBRANCH  28  29
ENDBRANCH  18  28
ENDBRANCH   8  16
BRANCH   1  31
ATOM     31  O   LIG A   1      -5.363  -5.213 132.692  0.00  0.00    -0.503 OA
ATOM     32  H   LIG A   1      -5.435  -6.016 132.154  0.00  0.00    +0.292 HD
ENDBRANCH   1  31
BRANCH   9  33
ATOM     33  O   LIG A   1      -8.701   1.280 128.391  0.00  0.00    -0.505 OA
ATOM     34  H   LIG A   1      -9.645   1.009 128.439  0.00  0.00    +0.292 HD
ENDBRANCH   9  33
BRANCH   7  35
ATOM     35  O   LIG A   1      -6.792  -0.699 124.480  0.00  0.00    -0.506 OA
ATOM     36  H   LIG A   1      -6.529  -1.584 124.180  0.00  0.00    +0.292 HD
ENDBRANCH   7  35
BRANCH  15  37
ATOM     37  O   LIG A   1      -6.778  -3.361 134.118  0.00  0.00    -0.503 OA
ATOM     38  H   LIG A   1      -6.618  -2.507 134.551  0.00  0.00    +0.292 HD
ENDBRANCH  15  37
TORSDOF 10
ENDMDL
MODEL 7
REMARK VINA RESULT:      -7.0      6.176      8.138
REMARK  Name = NuBBE_370
REMARK  10 active torsions:
REMARK  status: ('A' for Active; 'I' for Inactive)
REMARK    1  A    between atoms: O_1  and  C_2
REMARK    2  A    between atoms: C_8  and  O_28
REMARK    3  A    between atoms: C_9  and  C_10
REMARK    4  A    between atoms: C_13  and  C_24
REMARK    5  A    between atoms: C_15  and  O_23
REMARK    6  A    between atoms: C_17  and  O_22
REMARK    7  A    between atoms: C_19  and  O_21
REMARK    8  A    between atoms: C_24  and  O_25
REMARK    9  A    between atoms: C_26  and  O_27
REMARK   10  A    between atoms: C_34  and  O_35
REMARK                            x       y       z     vdW  Elec       q    Type
REMARK                         _______ _______ _______ _____ _____    ______ ____
ROOT
ATOM      1  C   LIG A   1      -6.800  -3.354 134.090  0.00  0.00    +0.162 A 
ATOM      2  C   LIG A   1      -7.302  -2.143 133.614  0.00  0.00    +0.096 A 
ATOM      3  C   LIG A   1      -7.234  -1.861 132.247  0.00  0.00    +0.143 A 
ATOM      4  O   LIG A   1      -7.744  -0.651 131.845  0.00  0.00    -0.454 OA
ATOM      5  C   LIG A   1      -7.734  -0.353 130.503  0.00  0.00    +0.146 A 
ATOM      6  C   LIG A   1      -8.294   0.872 130.140  0.00  0.00    +0.093 A 
ATOM      7  C   LIG A   1      -8.343   1.243 128.794  0.00  0.00    +0.130 A 
ATOM      8  C   LIG A   1      -7.840   0.410 127.781  0.00  0.00    +0.067 A 
ATOM      9  C   LIG A   1      -7.262  -0.815 128.169  0.00  0.00    +0.140 A 
ATOM     10  C   LIG A   1      -7.213  -1.190 129.522  0.00  0.00    +0.106 A 
ATOM     11  C   LIG A   1      -6.625  -2.470 129.945  0.00  0.00    +0.204 A 
ATOM     12  O   LIG A   1      -6.129  -3.234 129.127  0.00  0.00    -0.286 OA
ATOM     13  C   LIG A   1      -6.668  -2.790 131.377  0.00  0.00    +0.068 A 
ATOM     14  C   LIG A   1      -6.159  -4.005 131.848  0.00  0.00    +0.064 A 
ATOM     15  C   LIG A   1      -6.230  -4.280 133.210  0.00  0.00    +0.159 A 
ENDROOT
BRANCH   8  16
ATOM     16  C   LIG A   1      -7.926   0.820 126.317  0.00  0.00    +0.187 C 
ATOM     17  O   LIG A   1      -7.395   2.159 126.237  0.00  0.00    -0.361 OA
ATOM     18  C   LIG A   1      -7.465   2.738 124.929  0.00  0.00    +0.175 C 
ATOM     19  C   LIG A   1      -8.916   2.800 124.447  0.00  0.00    +0.176 C 
ATOM     20  C   LIG A   1      -9.485   1.382 124.404  0.00  0.00    +0.177 C 
ATOM     21  C   LIG A   1      -9.367   0.695 125.765  0.00  0.00    +0.179 C 
BRANCH  21  22
ATOM     22  O   LIG A   1      -9.747  -0.682 125.598  0.00  0.00    -0.386 OA
ATOM     23  H   LIG A   1     -10.711  -0.697 125.764  0.00  0.00    +0.210 HD
ENDBRANCH  21  22
BRANCH  20  24
ATOM     24  O   LIG A   1     -10.867   1.411 124.008  0.00  0.00    -0.387 OA
ATOM     25  H   LIG A   1     -11.143   0.475 123.926  0.00  0.00    +0.210 HD
ENDBRANCH  20  24
BRANCH  19  26
ATOM     26  O   LIG A   1      -9.046   3.387 123.146  0.00  0.00    -0.387 OA
ATOM     27  H   LIG A   1      -8.579   2.824 122.503  0.00  0.00    +0.210 HD
ENDBRANCH  19  26
BRANCH  18  28
ATOM     28  C   LIG A   1      -6.846   4.138 125.008  0.00  0.00    +0.190 C 
BRANCH  28  29
ATOM     29  O   LIG A   1      -7.879   5.111 125.172  0.00  0.00    -0.392 OA
ATOM     30  H   LIG A   1      -7.961   5.547 124.301  0.00  0.00    +0.209 HD
ENDBRANCH  28  29
ENDBRANCH  18  28
ENDBRANCH   8  16
BRANCH   1  31
ATOM     31  O   LIG A   1      -6.860  -3.651 135.421  0.00  0.00    -0.503 OA
ATOM     32  H   LIG A   1      -5.984  -3.922 135.736  0.00  0.00    +0.292 HD
ENDBRANCH   1  31
BRANCH   9  33
ATOM     33  O   LIG A   1      -6.751  -1.634 127.192  0.00  0.00    -0.505 OA
ATOM     34  H   LIG A   1      -6.511  -2.497 127.600  0.00  0.00    +0.292 HD
ENDBRANCH   9  33
BRANCH   7  35
ATOM     35  O   LIG A   1      -8.904   2.444 128.454  0.00  0.00    -0.506 OA
ATOM     36  H   LIG A   1      -8.224   3.138 128.470  0.00  0.00    +0.292 HD
ENDBRANCH   7  35
BRANCH  15  37
ATOM     37  O   LIG A   1      -5.743  -5.457 133.703  0.00  0.00    -0.503 OA
ATOM     38  H   LIG A   1      -4.862  -5.311 134.083  0.00  0.00    +0.292 HD
ENDBRANCH  15  37
TORSDOF 10
ENDMDL
MODEL 8
REMARK VINA RESULT:      -6.9      4.530      7.235
REMARK  Name = NuBBE_370
REMARK  10 active torsions:
REMARK  status: ('A' for Active; 'I' for Inactive)
REMARK    1  A    between atoms: O_1  and  C_2
REMARK    2  A    between atoms: C_8  and  O_28
REMARK    3  A    between atoms: C_9  and  C_10
REMARK    4  A    between atoms: C_13  and  C_24
REMARK    5  A    between atoms: C_15  and  O_23
REMARK    6  A    between atoms: C_17  and  O_22
REMARK    7  A    between atoms: C_19  and  O_21
REMARK    8  A    between atoms: C_24  and  O_25
REMARK    9  A    between atoms: C_26  and  O_27
REMARK   10  A    between atoms: C_34  and  O_35
REMARK                            x       y       z     vdW  Elec       q    Type
REMARK                         _______ _______ _______ _____ _____    ______ ____
ROOT
ATOM      1  C   LIG A   1      -5.912   3.817 122.043  0.00  0.00    +0.162 A 
ATOM      2  C   LIG A   1      -5.168   4.179 123.166  0.00  0.00    +0.096 A 
ATOM      3  C   LIG A   1      -5.776   4.178 124.423  0.00  0.00    +0.143 A 
ATOM      4  O   LIG A   1      -4.988   4.547 125.486  0.00  0.00    -0.454 OA
ATOM      5  C   LIG A   1      -5.537   4.518 126.746  0.00  0.00    +0.146 A 
ATOM      6  C   LIG A   1      -4.688   4.868 127.795  0.00  0.00    +0.093 A 
ATOM      7  C   LIG A   1      -5.161   4.844 129.110  0.00  0.00    +0.130 A 
ATOM      8  C   LIG A   1      -6.482   4.474 129.412  0.00  0.00    +0.067 A 
ATOM      9  C   LIG A   1      -7.329   4.142 128.337  0.00  0.00    +0.140 A 
ATOM     10  C   LIG A   1      -6.855   4.164 127.015  0.00  0.00    +0.106 A 
ATOM     11  C   LIG A   1      -7.721   3.808 125.880  0.00  0.00    +0.204 A 
ATOM     12  O   LIG A   1      -8.897   3.513 126.055  0.00  0.00    -0.286 OA
ATOM     13  C   LIG A   1      -7.116   3.814 124.543  0.00  0.00    +0.068 A 
ATOM     14  C   LIG A   1      -7.869   3.453 123.421  0.00  0.00    +0.064 A 
ATOM     15  C   LIG A   1      -7.257   3.457 122.171  0.00  0.00    +0.159 A 
ENDROOT
BRANCH   8  16
ATOM     16  C   LIG A   1      -6.971   4.429 130.853  0.00  0.00    +0.187 C 
ATOM     17  O   LIG A   1      -7.650   3.166 131.014  0.00  0.00    -0.361 OA
ATOM     18  C   LIG A   1      -8.244   2.982 132.304  0.00  0.00    +0.175 C 
ATOM     19  C   LIG A   1      -9.270   4.082 132.583  0.00  0.00    +0.176 C 
ATOM     20  C   LIG A   1      -8.566   5.438 132.539  0.00  0.00    +0.177 C 
ATOM     21  C   LIG A   1      -7.855   5.651 131.202  0.00  0.00    +0.179 C 
BRANCH  21  22
ATOM     22  O   LIG A   1      -7.071   6.853 131.307  0.00  0.00    -0.386 OA
ATOM     23  H   LIG A   1      -7.607   7.541 130.864  0.00  0.00    +0.210 HD
ENDBRANCH  21  22
BRANCH  20  24
ATOM     24  O   LIG A   1      -9.515   6.500 132.743  0.00  0.00    -0.387 OA
ATOM     25  H   LIG A   1      -9.876   6.368 133.644  0.00  0.00    +0.210 HD
ENDBRANCH  20  24
BRANCH  19  26
ATOM     26  O   LIG A   1      -9.908   3.937 133.858  0.00  0.00    -0.387 OA
ATOM     27  H   LIG A   1     -10.761   4.405 133.835  0.00  0.00    +0.210 HD
ENDBRANCH  19  26
BRANCH  18  28
ATOM     28  C   LIG A   1      -8.898   1.596 132.319  0.00  0.00    +0.190 C 
BRANCH  28  29
ATOM     29  O   LIG A   1     -10.300   1.724 132.074  0.00  0.00    -0.392 OA
ATOM     30  H   LIG A   1     -10.679   0.850 132.294  0.00  0.00    +0.209 HD
ENDBRANCH  28  29
ENDBRANCH  18  28
ENDBRANCH   8  16
BRANCH   1  31
ATOM     31  O   LIG A   1      -5.335   3.808 120.806  0.00  0.00    -0.503 OA
ATOM     32  H   LIG A   1      -4.643   3.130 120.772  0.00  0.00    +0.292 HD
ENDBRANCH   1  31
BRANCH   9  33
ATOM     33  O   LIG A   1      -8.629   3.793 128.614  0.00  0.00    -0.505 OA
ATOM     34  H   LIG A   1      -8.630   3.162 129.369  0.00  0.00    +0.292 HD
ENDBRANCH   9  33
BRANCH   7  35
ATOM     35  O   LIG A   1      -4.312   5.181 130.129  0.00  0.00    -0.506 OA
ATOM     36  H   LIG A   1      -4.767   5.774 130.750  0.00  0.00    +0.292 HD
ENDBRANCH   7  35
BRANCH  15  37
ATOM     37  O   LIG A   1      -7.965   3.108 121.056  0.00  0.00    -0.503 OA
ATOM     38  H   LIG A   1      -8.348   3.904 120.653  0.00  0.00    +0.292 HD
ENDBRANCH  15  37
TORSDOF 10
ENDMDL
MODEL 9
REMARK VINA RESULT:      -6.9      2.918      8.772
REMARK  Name = NuBBE_370
REMARK  10 active torsions:
REMARK  status: ('A' for Active; 'I' for Inactive)
REMARK    1  A    between atoms: O_1  and  C_2
REMARK    2  A    between atoms: C_8  and  O_28
REMARK    3  A    between atoms: C_9  and  C_10
REMARK    4  A    between atoms: C_13  and  C_24
REMARK    5  A    between atoms: C_15  and  O_23
REMARK    6  A    between atoms: C_17  and  O_22
REMARK    7  A    between atoms: C_19  and  O_21
REMARK    8  A    between atoms: C_24  and  O_25
REMARK    9  A    between atoms: C_26  and  O_27
REMARK   10  A    between atoms: C_34  and  O_35
REMARK                            x       y       z     vdW  Elec       q    Type
REMARK                         _______ _______ _______ _____ _____    ______ ____
ROOT
ATOM      1  C   LIG A   1     -11.273   8.065 128.548  0.00  0.00    +0.162 A 
ATOM      2  C   LIG A   1      -9.923   7.993 128.893  0.00  0.00    +0.096 A 
ATOM      3  C   LIG A   1      -9.549   7.327 130.062  0.00  0.00    +0.143 A 
ATOM      4  O   LIG A   1      -8.205   7.294 130.346  0.00  0.00    -0.454 OA
ATOM      5  C   LIG A   1      -7.791   6.612 131.465  0.00  0.00    +0.146 A 
ATOM      6  C   LIG A   1      -6.415   6.578 131.691  0.00  0.00    +0.093 A 
ATOM      7  C   LIG A   1      -5.909   5.887 132.795  0.00  0.00    +0.130 A 
ATOM      8  C   LIG A   1      -6.752   5.217 133.696  0.00  0.00    +0.067 A 
ATOM      9  C   LIG A   1      -8.140   5.278 133.461  0.00  0.00    +0.140 A 
ATOM     10  C   LIG A   1      -8.651   5.971 132.351  0.00  0.00    +0.106 A 
ATOM     11  C   LIG A   1     -10.096   6.036 132.081  0.00  0.00    +0.204 A 
ATOM     12  O   LIG A   1     -10.900   5.511 132.841  0.00  0.00    -0.286 OA
ATOM     13  C   LIG A   1     -10.524   6.741 130.868  0.00  0.00    +0.068 A 
ATOM     14  C   LIG A   1     -11.879   6.813 130.529  0.00  0.00    +0.064 A 
ATOM     15  C   LIG A   1     -12.246   7.479 129.363  0.00  0.00    +0.159 A 
ENDROOT
BRANCH   8  16
ATOM     16  C   LIG A   1      -6.180   4.448 134.879  0.00  0.00    +0.187 C 
ATOM     17  O   LIG A   1      -5.255   5.340 135.536  0.00  0.00    -0.361 OA
ATOM     18  C   LIG A   1      -4.562   4.751 136.642  0.00  0.00    +0.175 C 
ATOM     19  C   LIG A   1      -3.761   3.530 136.184  0.00  0.00    +0.176 C 
ATOM     20  C   LIG A   1      -4.721   2.504 135.585  0.00  0.00    +0.177 C 
ATOM     21  C   LIG A   1      -5.538   3.109 134.443  0.00  0.00    +0.179 C 
BRANCH  21  22
ATOM     22  O   LIG A   1      -6.538   2.148 134.059  0.00  0.00    -0.386 OA
ATOM     23  H   LIG A   1      -6.883   2.473 133.204  0.00  0.00    +0.210 HD
ENDBRANCH  21  22
BRANCH  20  24
ATOM     24  O   LIG A   1      -3.992   1.366 135.093  0.00  0.00    -0.387 OA
ATOM     25  H   LIG A   1      -3.211   1.728 134.628  0.00  0.00    +0.210 HD
ENDBRANCH  20  24
BRANCH  19  26
ATOM     26  O   LIG A   1      -3.033   2.910 137.252  0.00  0.00    -0.387 OA
ATOM     27  H   LIG A   1      -3.316   3.309 138.094  0.00  0.00    +0.210 HD
ENDBRANCH  19  26
BRANCH  18  28
ATOM     28  C   LIG A   1      -3.645   5.825 137.238  0.00  0.00    +0.190 C 
BRANCH  28  29
ATOM     29  O   LIG A   1      -2.359   5.756 136.620  0.00  0.00    -0.392 OA
ATOM     30  H   LIG A   1      -1.954   4.935 136.964  0.00  0.00    +0.209 HD
ENDBRANCH  28  29
ENDBRANCH  18  28
ENDBRANCH   8  16
BRANCH   1  31
ATOM     31  O   LIG A   1     -11.660   8.709 127.408  0.00  0.00    -0.503 OA
ATOM     32  H   LIG A   1     -11.132   9.514 127.291  0.00  0.00    +0.292 HD
ENDBRANCH   1  31
BRANCH   9  33
ATOM     33  O   LIG A   1      -8.980   4.641 134.342  0.00  0.00    -0.505 OA
ATOM     34  H   LIG A   1      -9.782   5.197 134.468  0.00  0.00    +0.292 HD
ENDBRANCH   9  33
BRANCH   7  35
ATOM     35  O   LIG A   1      -4.555   5.856 132.998  0.00  0.00    -0.506 OA
ATOM     36  H   LIG A   1      -4.155   6.670 132.651  0.00  0.00    +0.292 HD
ENDBRANCH   7  35
BRANCH  15  37
ATOM     37  O   LIG A   1     -13.561   7.566 129.003  0.00  0.00    -0.503 OA
ATOM     38  H   LIG A   1     -13.895   6.683 128.779  0.00  0.00    +0.292 HD
ENDBRANCH  15  37
TORSDOF 10
ENDMDL
