MODEL 1
REMARK VINA RESULT:      -5.5      0.000      0.000
REMARK  Name = NuBBE_1761
REMARK  6 active torsions:
REMARK  status: ('A' for Active; 'I' for Inactive)
REMARK    1  A    between atoms: O_1  and  C_2
REMARK    2  A    between atoms: O_1  and  C_3
REMARK    3  A    between atoms: C_7  and  C_11
REMARK    4  A    between atoms: C_8  and  O_9
REMARK    5  A    between atoms: O_9  and  C_10
REMARK    6  A    between atoms: C_11  and  C_12
REMARK                            x       y       z     vdW  Elec       q    Type
REMARK                         _______ _______ _______ _____ _____    ______ ____
ROOT
ATOM      1  C   LIG A   1      -7.890  -2.440 126.520  0.00  0.00    +0.208 A 
ATOM      2  C   LIG A   1      -7.190  -1.462 127.216  0.00  0.00    +0.211 A 
ATOM      3  C   LIG A   1      -6.012  -0.933 126.734  0.00  0.00    +0.170 A 
ATOM      4  C   LIG A   1      -5.455  -1.330 125.539  0.00  0.00    +0.057 A 
ATOM      5  C   LIG A   1      -6.138  -2.285 124.768  0.00  0.00    +0.005 A 
ATOM      6  C   LIG A   1      -7.370  -2.826 125.255  0.00  0.00    +0.169 A 
ATOM      7  O   LIG A   1      -5.486   0.029 127.541  0.00  0.00    -0.453 OA
ATOM      8  C   LIG A   1      -6.506   0.120 128.547  0.00  0.00    +0.467 C 
ATOM      9  O   LIG A   1      -7.527  -0.882 128.406  0.00  0.00    -0.449 OA
ENDROOT
BRANCH   1  10
ATOM     10  O   LIG A   1      -9.028  -3.062 126.961  0.00  0.00    -0.488 OA
ATOM     11  C   LIG A   1      -8.923  -4.029 128.000  0.00  0.00    +0.277 C 
ENDBRANCH   1  10
BRANCH   6  12
ATOM     12  O   LIG A   1      -7.955  -3.746 124.413  0.00  0.00    -0.491 OA
ATOM     13  C   LIG A   1      -9.114  -3.355 123.684  0.00  0.00    +0.277 C 
ENDBRANCH   6  12
BRANCH   5  14
ATOM     14  C   LIG A   1      -5.613  -2.588 123.372  0.00  0.00    +0.065 C 
BRANCH  14  15
ATOM     15  C   LIG A   1      -4.393  -3.473 123.319  0.00  0.00    -0.030 C 
ATOM     16  C   LIG A   1      -4.384  -4.780 123.652  0.00  0.00    +0.004 C 
ENDBRANCH  14  15
ENDBRANCH   5  14
TORSDOF 4
ENDMDL
MODEL 2
REMARK VINA RESULT:      -5.5      2.850      4.573
REMARK  Name = NuBBE_1761
REMARK  6 active torsions:
REMARK  status: ('A' for Active; 'I' for Inactive)
REMARK    1  A    between atoms: O_1  and  C_2
REMARK    2  A    between atoms: O_1  and  C_3
REMARK    3  A    between atoms: C_7  and  C_11
REMARK    4  A    between atoms: C_8  and  O_9
REMARK    5  A    between atoms: O_9  and  C_10
REMARK    6  A    between atoms: C_11  and  C_12
REMARK                            x       y       z     vdW  Elec       q    Type
REMARK                         _______ _______ _______ _____ _____    ______ ____
ROOT
ATOM      1  C   LIG A   1      -7.291   0.433 124.587  0.00  0.00    +0.208 A 
ATOM      2  C   LIG A   1      -8.421   0.332 123.787  0.00  0.00    +0.211 A 
ATOM      3  C   LIG A   1      -8.746  -0.838 123.134  0.00  0.00    +0.170 A 
ATOM      4  C   LIG A   1      -7.981  -1.978 123.234  0.00  0.00    +0.057 A 
ATOM      5  C   LIG A   1      -6.847  -1.953 124.062  0.00  0.00    +0.005 A 
ATOM      6  C   LIG A   1      -6.514  -0.745 124.755  0.00  0.00    +0.169 A 
ATOM      7  O   LIG A   1      -9.901  -0.751 122.419  0.00  0.00    -0.453 OA
ATOM      8  C   LIG A   1     -10.327   0.577 122.760  0.00  0.00    +0.467 C 
ATOM      9  O   LIG A   1      -9.354   1.299 123.535  0.00  0.00    -0.449 OA
ENDROOT
BRANCH   1  10
ATOM     10  O   LIG A   1      -6.864   1.574 125.212  0.00  0.00    -0.488 OA
ATOM     11  C   LIG A   1      -6.250   2.596 124.435  0.00  0.00    +0.277 C 
ENDBRANCH   1  10
BRANCH   6  12
ATOM     12  O   LIG A   1      -5.390  -0.840 125.545  0.00  0.00    -0.491 OA
ATOM     13  C   LIG A   1      -5.559  -0.948 126.954  0.00  0.00    +0.277 C 
ENDBRANCH   6  12
BRANCH   5  14
ATOM     14  C   LIG A   1      -6.109  -3.261 124.307  0.00  0.00    +0.065 C 
BRANCH  14  15
ATOM     15  C   LIG A   1      -4.862  -3.462 123.485  0.00  0.00    -0.030 C 
ATOM     16  C   LIG A   1      -4.085  -4.564 123.532  0.00  0.00    +0.004 C 
ENDBRANCH  14  15
ENDBRANCH   5  14
TORSDOF 4
ENDMDL
MODEL 3
REMARK VINA RESULT:      -5.4      2.260      2.596
REMARK  Name = NuBBE_1761
REMARK  6 active torsions:
REMARK  status: ('A' for Active; 'I' for Inactive)
REMARK    1  A    between atoms: O_1  and  C_2
REMARK    2  A    between atoms: O_1  and  C_3
REMARK    3  A    between atoms: C_7  and  C_11
REMARK    4  A    between atoms: C_8  and  O_9
REMARK    5  A    between atoms: O_9  and  C_10
REMARK    6  A    between atoms: C_11  and  C_12
REMARK                            x       y       z     vdW  Elec       q    Type
REMARK                         _______ _______ _______ _____ _____    ______ ____
ROOT
ATOM      1  C   LIG A   1      -8.307  -0.266 124.637  0.00  0.00    +0.208 A 
ATOM      2  C   LIG A   1      -7.491   0.379 125.557  0.00  0.00    +0.211 A 
ATOM      3  C   LIG A   1      -6.187  -0.015 125.772  0.00  0.00    +0.170 A 
ATOM      4  C   LIG A   1      -5.608  -1.062 125.092  0.00  0.00    +0.057 A 
ATOM      5  C   LIG A   1      -6.368  -1.728 124.116  0.00  0.00    +0.005 A 
ATOM      6  C   LIG A   1      -7.717  -1.312 123.877  0.00  0.00    +0.169 A 
ATOM      7  O   LIG A   1      -5.540   0.751 126.693  0.00  0.00    -0.453 OA
ATOM      8  C   LIG A   1      -6.546   1.735 126.976  0.00  0.00    +0.467 C 
ATOM      9  O   LIG A   1      -7.807   1.449 126.346  0.00  0.00    -0.449 OA
ENDROOT
BRANCH   1  10
ATOM     10  O   LIG A   1      -9.627   0.020 124.414  0.00  0.00    -0.488 OA
ATOM     11  C   LIG A   1      -9.961   1.115 123.570  0.00  0.00    +0.277 C 
ENDBRANCH   1  10
BRANCH   6  12
ATOM     12  O   LIG A   1      -8.361  -2.029 122.893  0.00  0.00    -0.491 OA
ATOM     13  C   LIG A   1      -9.230  -3.086 123.285  0.00  0.00    +0.277 C 
ENDBRANCH   6  12
BRANCH   5  14
ATOM     14  C   LIG A   1      -5.670  -2.763 123.246  0.00  0.00    +0.065 C 
BRANCH  14  15
ATOM     15  C   LIG A   1      -4.757  -3.713 123.979  0.00  0.00    -0.030 C 
ATOM     16  C   LIG A   1      -4.274  -4.860 123.460  0.00  0.00    +0.004 C 
ENDBRANCH  14  15
ENDBRANCH   5  14
TORSDOF 4
ENDMDL
MODEL 4
REMARK VINA RESULT:      -5.1      2.843      4.207
REMARK  Name = NuBBE_1761
REMARK  6 active torsions:
REMARK  status: ('A' for Active; 'I' for Inactive)
REMARK    1  A    between atoms: O_1  and  C_2
REMARK    2  A    between atoms: O_1  and  C_3
REMARK    3  A    between atoms: C_7  and  C_11
REMARK    4  A    between atoms: C_8  and  O_9
REMARK    5  A    between atoms: O_9  and  C_10
REMARK    6  A    between atoms: C_11  and  C_12
REMARK                            x       y       z     vdW  Elec       q    Type
REMARK                         _______ _______ _______ _____ _____    ______ ____
ROOT
ATOM      1  C   LIG A   1      -9.426   0.279 125.160  0.00  0.00    +0.208 A 
ATOM      2  C   LIG A   1      -8.755   1.249 125.894  0.00  0.00    +0.211 A 
ATOM      3  C   LIG A   1      -7.909   0.917 126.931  0.00  0.00    +0.170 A 
ATOM      4  C   LIG A   1      -7.669  -0.387 127.303  0.00  0.00    +0.057 A 
ATOM      5  C   LIG A   1      -8.285  -1.415 126.571  0.00  0.00    +0.005 A 
ATOM      6  C   LIG A   1      -9.151  -1.077 125.483  0.00  0.00    +0.169 A 
ATOM      7  O   LIG A   1      -7.326   2.000 127.515  0.00  0.00    -0.453 OA
ATOM      8  C   LIG A   1      -7.822   3.055 126.677  0.00  0.00    +0.467 C 
ATOM      9  O   LIG A   1      -8.799   2.604 125.723  0.00  0.00    -0.449 OA
ENDROOT
BRANCH   1  10
ATOM     10  O   LIG A   1     -10.331   0.528 124.163  0.00  0.00    -0.488 OA
ATOM     11  C   LIG A   1      -9.854   0.948 122.890  0.00  0.00    +0.277 C 
ENDBRANCH   1  10
BRANCH   6  12
ATOM     12  O   LIG A   1      -9.690  -2.165 124.833  0.00  0.00    -0.491 OA
ATOM     13  C   LIG A   1      -9.080  -2.601 123.623  0.00  0.00    +0.277 C 
ENDBRANCH   6  12
BRANCH   5  14
ATOM     14  C   LIG A   1      -7.879  -2.851 126.872  0.00  0.00    +0.065 C 
BRANCH  14  15
ATOM     15  C   LIG A   1      -8.594  -3.494 128.033  0.00  0.00    -0.030 C 
ATOM     16  C   LIG A   1      -8.256  -3.320 129.328  0.00  0.00    +0.004 C 
ENDBRANCH  14  15
ENDBRANCH   5  14
TORSDOF 4
ENDMDL
MODEL 5
REMARK VINA RESULT:      -5.0      4.363      5.763
REMARK  Name = NuBBE_1761
REMARK  6 active torsions:
REMARK  status: ('A' for Active; 'I' for Inactive)
REMARK    1  A    between atoms: O_1  and  C_2
REMARK    2  A    between atoms: O_1  and  C_3
REMARK    3  A    between atoms: C_7  and  C_11
REMARK    4  A    between atoms: C_8  and  O_9
REMARK    5  A    between atoms: O_9  and  C_10
REMARK    6  A    between atoms: C_11  and  C_12
REMARK                            x       y       z     vdW  Elec       q    Type
REMARK                         _______ _______ _______ _____ _____    ______ ____
ROOT
ATOM      1  C   LIG A   1      -9.030   1.301 125.830  0.00  0.00    +0.208 A 
ATOM      2  C   LIG A   1      -8.995  -0.014 125.382  0.00  0.00    +0.211 A 
ATOM      3  C   LIG A   1      -8.897  -0.321 124.042  0.00  0.00    +0.170 A 
ATOM      4  C   LIG A   1      -8.823   0.646 123.064  0.00  0.00    +0.057 A 
ATOM      5  C   LIG A   1      -8.811   1.994 123.456  0.00  0.00    +0.005 A 
ATOM      6  C   LIG A   1      -8.895   2.319 124.847  0.00  0.00    +0.169 A 
ATOM      7  O   LIG A   1      -8.853  -1.660 123.800  0.00  0.00    -0.453 OA
ATOM      8  C   LIG A   1      -8.840  -2.173 125.141  0.00  0.00    +0.467 C 
ATOM      9  O   LIG A   1      -9.033  -1.153 126.136  0.00  0.00    -0.449 OA
ENDROOT
BRANCH   1  10
ATOM     10  O   LIG A   1      -9.193   1.688 127.133  0.00  0.00    -0.488 OA
ATOM     11  C   LIG A   1      -8.110   1.520 128.041  0.00  0.00    +0.277 C 
ENDBRANCH   1  10
BRANCH   6  12
ATOM     12  O   LIG A   1      -8.865   3.670 125.114  0.00  0.00    -0.491 OA
ATOM     13  C   LIG A   1      -7.656   4.234 125.612  0.00  0.00    +0.277 C 
ENDBRANCH   6  12
BRANCH   5  14
ATOM     14  C   LIG A   1      -8.551   3.048 122.389  0.00  0.00    +0.065 C 
BRANCH  14  15
ATOM     15  C   LIG A   1      -7.104   3.243 122.014  0.00  0.00    -0.030 C 
ATOM     16  C   LIG A   1      -6.683   3.760 120.841  0.00  0.00    +0.004 C 
ENDBRANCH  14  15
ENDBRANCH   5  14
TORSDOF 4
ENDMDL
MODEL 6
REMARK VINA RESULT:      -5.0      3.119      3.633
REMARK  Name = NuBBE_1761
REMARK  6 active torsions:
REMARK  status: ('A' for Active; 'I' for Inactive)
REMARK    1  A    between atoms: O_1  and  C_2
REMARK    2  A    between atoms: O_1  and  C_3
REMARK    3  A    between atoms: C_7  and  C_11
REMARK    4  A    between atoms: C_8  and  O_9
REMARK    5  A    between atoms: O_9  and  C_10
REMARK    6  A    between atoms: C_11  and  C_12
REMARK                            x       y       z     vdW  Elec       q    Type
REMARK                         _______ _______ _______ _____ _____    ______ ____
ROOT
ATOM      1  C   LIG A   1      -8.374   0.361 125.452  0.00  0.00    +0.208 A 
ATOM      2  C   LIG A   1      -8.037   1.296 124.482  0.00  0.00    +0.211 A 
ATOM      3  C   LIG A   1      -7.227   0.972 123.413  0.00  0.00    +0.170 A 
ATOM      4  C   LIG A   1      -6.705  -0.289 123.235  0.00  0.00    +0.057 A 
ATOM      5  C   LIG A   1      -7.044  -1.290 124.160  0.00  0.00    +0.005 A 
ATOM      6  C   LIG A   1      -7.898  -0.965 125.261  0.00  0.00    +0.169 A 
ATOM      7  O   LIG A   1      -7.029   2.011 122.557  0.00  0.00    -0.453 OA
ATOM      8  C   LIG A   1      -7.876   3.009 123.146  0.00  0.00    +0.467 C 
ATOM      9  O   LIG A   1      -8.431   2.602 124.408  0.00  0.00    -0.449 OA
ENDROOT
BRANCH   1  10
ATOM     10  O   LIG A   1      -9.115   0.619 126.574  0.00  0.00    -0.488 OA
ATOM     11  C   LIG A   1      -8.504   1.309 127.658  0.00  0.00    +0.277 C 
ENDBRANCH   1  10
BRANCH   6  12
ATOM     12  O   LIG A   1      -8.170  -2.025 126.097  0.00  0.00    -0.491 OA
ATOM     13  C   LIG A   1      -9.404  -2.716 125.933  0.00  0.00    +0.277 C 
ENDBRANCH   6  12
BRANCH   5  14
ATOM     14  C   LIG A   1      -6.611  -2.719 123.861  0.00  0.00    +0.065 C 
BRANCH  14  15
ATOM     15  C   LIG A   1      -5.152  -2.894 123.529  0.00  0.00    -0.030 C 
ATOM     16  C   LIG A   1      -4.488  -4.067 123.604  0.00  0.00    +0.004 C 
ENDBRANCH  14  15
ENDBRANCH   5  14
TORSDOF 4
ENDMDL
MODEL 7
REMARK VINA RESULT:      -4.9      5.500      7.050
REMARK  Name = NuBBE_1761
REMARK  6 active torsions:
REMARK  status: ('A' for Active; 'I' for Inactive)
REMARK    1  A    between atoms: O_1  and  C_2
REMARK    2  A    between atoms: O_1  and  C_3
REMARK    3  A    between atoms: C_7  and  C_11
REMARK    4  A    between atoms: C_8  and  O_9
REMARK    5  A    between atoms: O_9  and  C_10
REMARK    6  A    between atoms: C_11  and  C_12
REMARK                            x       y       z     vdW  Elec       q    Type
REMARK                         _______ _______ _______ _____ _____    ______ ____
ROOT
ATOM      1  C   LIG A   1      -6.957   2.418 123.380  0.00  0.00    +0.208 A 
ATOM      2  C   LIG A   1      -6.440   3.286 122.427  0.00  0.00    +0.211 A 
ATOM      3  C   LIG A   1      -5.483   4.226 122.747  0.00  0.00    +0.170 A 
ATOM      4  C   LIG A   1      -4.976   4.364 124.020  0.00  0.00    +0.057 A 
ATOM      5  C   LIG A   1      -5.429   3.487 125.018  0.00  0.00    +0.005 A 
ATOM      6  C   LIG A   1      -6.410   2.498 124.689  0.00  0.00    +0.169 A 
ATOM      7  O   LIG A   1      -5.082   4.968 121.679  0.00  0.00    -0.453 OA
ATOM      8  C   LIG A   1      -5.821   4.337 120.622  0.00  0.00    +0.467 C 
ATOM      9  O   LIG A   1      -6.751   3.349 121.098  0.00  0.00    -0.449 OA
ENDROOT
BRANCH   1  10
ATOM     10  O   LIG A   1      -7.954   1.505 123.158  0.00  0.00    -0.488 OA
ATOM     11  C   LIG A   1      -9.296   1.965 123.051  0.00  0.00    +0.277 C 
ENDBRANCH   1  10
BRANCH   6  12
ATOM     12  O   LIG A   1      -6.771   1.688 125.743  0.00  0.00    -0.491 OA
ATOM     13  C   LIG A   1      -7.928   2.035 126.497  0.00  0.00    +0.277 C 
ENDBRANCH   6  12
BRANCH   5  14
ATOM     14  C   LIG A   1      -4.739   3.527 126.375  0.00  0.00    +0.065 C 
BRANCH  14  15
ATOM     15  C   LIG A   1      -3.232   3.522 126.332  0.00  0.00    -0.030 C 
ATOM     16  C   LIG A   1      -2.438   3.528 127.422  0.00  0.00    +0.004 C 
ENDBRANCH  14  15
ENDBRANCH   5  14
TORSDOF 4
ENDMDL
MODEL 8
REMARK VINA RESULT:      -4.8      2.949      4.358
REMARK  Name = NuBBE_1761
REMARK  6 active torsions:
REMARK  status: ('A' for Active; 'I' for Inactive)
REMARK    1  A    between atoms: O_1  and  C_2
REMARK    2  A    between atoms: O_1  and  C_3
REMARK    3  A    between atoms: C_7  and  C_11
REMARK    4  A    between atoms: C_8  and  O_9
REMARK    5  A    between atoms: O_9  and  C_10
REMARK    6  A    between atoms: C_11  and  C_12
REMARK                            x       y       z     vdW  Elec       q    Type
REMARK                         _______ _______ _______ _____ _____    ______ ____
ROOT
ATOM      1  C   LIG A   1      -6.029   0.953 125.705  0.00  0.00    +0.208 A 
ATOM      2  C   LIG A   1      -6.803   1.632 124.774  0.00  0.00    +0.211 A 
ATOM      3  C   LIG A   1      -7.318   1.002 123.661  0.00  0.00    +0.170 A 
ATOM      4  C   LIG A   1      -7.106  -0.333 123.402  0.00  0.00    +0.057 A 
ATOM      5  C   LIG A   1      -6.367  -1.085 124.329  0.00  0.00    +0.005 A 
ATOM      6  C   LIG A   1      -5.843  -0.440 125.495  0.00  0.00    +0.169 A 
ATOM      7  O   LIG A   1      -8.069   1.824 122.878  0.00  0.00    -0.453 OA
ATOM      8  C   LIG A   1      -8.053   3.027 123.661  0.00  0.00    +0.467 C 
ATOM      9  O   LIG A   1      -7.177   2.947 124.799  0.00  0.00    -0.449 OA
ENDROOT
BRANCH   1  10
ATOM     10  O   LIG A   1      -5.427   1.520 126.797  0.00  0.00    -0.488 OA
ATOM     11  C   LIG A   1      -4.201   2.219 126.620  0.00  0.00    +0.277 C 
ENDBRANCH   1  10
BRANCH   6  12
ATOM     12  O   LIG A   1      -5.145  -1.277 126.337  0.00  0.00    -0.491 OA
ATOM     13  C   LIG A   1      -5.784  -1.729 127.525  0.00  0.00    +0.277 C 
ENDBRANCH   6  12
BRANCH   5  14
ATOM     14  C   LIG A   1      -6.287  -2.592 124.129  0.00  0.00    +0.065 C 
BRANCH  14  15
ATOM     15  C   LIG A   1      -5.077  -3.079 123.372  0.00  0.00    -0.030 C 
ATOM     16  C   LIG A   1      -4.352  -4.166 123.710  0.00  0.00    +0.004 C 
ENDBRANCH  14  15
ENDBRANCH   5  14
TORSDOF 4
ENDMDL
MODEL 9
REMARK VINA RESULT:      -4.8      7.627      9.839
REMARK  Name = NuBBE_1761
REMARK  6 active torsions:
REMARK  status: ('A' for Active; 'I' for Inactive)
REMARK    1  A    between atoms: O_1  and  C_2
REMARK    2  A    between atoms: O_1  and  C_3
REMARK    3  A    between atoms: C_7  and  C_11
REMARK    4  A    between atoms: C_8  and  O_9
REMARK    5  A    between atoms: O_9  and  C_10
REMARK    6  A    between atoms: C_11  and  C_12
REMARK                            x       y       z     vdW  Elec       q    Type
REMARK                         _______ _______ _______ _____ _____    ______ ____
ROOT
ATOM      1  C   LIG A   1      -9.242   4.007 130.779  0.00  0.00    +0.208 A 
ATOM      2  C   LIG A   1     -10.195   4.958 130.438  0.00  0.00    +0.211 A 
ATOM      3  C   LIG A   1      -9.965   6.307 130.602  0.00  0.00    +0.170 A 
ATOM      4  C   LIG A   1      -8.783   6.801 131.107  0.00  0.00    +0.057 A 
ATOM      5  C   LIG A   1      -7.763   5.892 131.431  0.00  0.00    +0.005 A 
ATOM      6  C   LIG A   1      -7.990   4.490 131.247  0.00  0.00    +0.169 A 
ATOM      7  O   LIG A   1     -11.005   7.083 130.189  0.00  0.00    -0.453 OA
ATOM      8  C   LIG A   1     -11.889   6.084 129.658  0.00  0.00    +0.467 C 
ATOM      9  O   LIG A   1     -11.434   4.742 129.903  0.00  0.00    -0.449 OA
ENDROOT
BRANCH   1  10
ATOM     10  O   LIG A   1      -9.418   2.650 130.710  0.00  0.00    -0.488 OA
ATOM     11  C   LIG A   1      -9.962   1.970 131.835  0.00  0.00    +0.277 C 
ENDBRANCH   1  10
BRANCH   6  12
ATOM     12  O   LIG A   1      -6.918   3.696 131.588  0.00  0.00    -0.491 OA
ATOM     13  C   LIG A   1      -6.111   3.162 130.544  0.00  0.00    +0.277 C 
ENDBRANCH   6  12
BRANCH   5  14
ATOM     14  C   LIG A   1      -6.401   6.450 131.819  0.00  0.00    +0.065 C 
BRANCH  14  15
ATOM     15  C   LIG A   1      -5.694   7.232 130.741  0.00  0.00    -0.030 C 
ATOM     16  C   LIG A   1      -4.364   7.456 130.709  0.00  0.00    +0.004 C 
ENDBRANCH  14  15
ENDBRANCH   5  14
TORSDOF 4
ENDMDL
