MODEL 1
REMARK VINA RESULT:      -6.9      0.000      0.000
REMARK  Name = NuBBE_2339
REMARK  12 active torsions:
REMARK  status: ('A' for Active; 'I' for Inactive)
REMARK    1  A    between atoms: C_1  and  O_2
REMARK    2  A    between atoms: O_2  and  C_3
REMARK    3  A    between atoms: C_4  and  O_5
REMARK    4  A    between atoms: O_5  and  C_6
REMARK    5  A    between atoms: C_7  and  O_8
REMARK    6  A    between atoms: O_8  and  C_9
REMARK    7  A    between atoms: C_11  and  C_12
REMARK    8  A    between atoms: C_16  and  C_17
REMARK    9  A    between atoms: C_17  and  C_18
REMARK   10  A    between atoms: C_20  and  C_22
REMARK   11  A    between atoms: C_25  and  O_26
REMARK   12  A    between atoms: O_26  and  C_27
REMARK                            x       y       z     vdW  Elec       q    Type
REMARK                         _______ _______ _______ _____ _____    ______ ____
ROOT
ATOM      1  C   LIG A   1      -5.332  -1.594 128.259  0.00  0.00    +0.207 C 
ATOM      2  O   LIG A   1      -5.953  -0.496 128.927  0.00  0.00    -0.487 OA
ATOM      3  C   LIG A   1      -6.482  -1.024 130.080  0.00  0.00    +0.113 C 
ATOM      4  C   LIG A   1      -6.833  -2.479 129.979  0.00  0.00    +0.059 C 
ATOM      5  C   LIG A   1      -5.729  -2.915 128.990  0.00  0.00    +0.049 C 
ATOM      6  C   LIG A   1      -4.474  -3.530 129.639  0.00  0.00    +0.013 C 
ATOM      7  C   LIG A   1      -6.523  -0.300 131.196  0.00  0.00    +0.096 C 
ATOM      8  C   LIG A   1      -6.909  -0.950 132.460  0.00  0.00    +0.223 C 
ATOM      9  C   LIG A   1      -6.888  -2.466 132.501  0.00  0.00    +0.164 C 
ATOM     10  C   LIG A   1      -6.821  -3.142 131.340  0.00  0.00    +0.038 C 
ATOM     11  O   LIG A   1      -7.191  -0.235 133.407  0.00  0.00    -0.284 OA
ENDROOT
BRANCH   1  16
ATOM     12  C   LIG A   1      -6.464  -0.310 124.854  0.00  0.00    +0.166 A 
ATOM     13  C   LIG A   1      -6.438  -1.472 124.048  0.00  0.00    +0.203 A 
ATOM     14  C   LIG A   1      -5.902  -2.655 124.599  0.00  0.00    +0.166 A 
ATOM     15  C   LIG A   1      -5.491  -2.671 125.945  0.00  0.00    +0.057 A 
ATOM     16  C   LIG A   1      -5.609  -1.546 126.772  0.00  0.00    +0.000 A 
ATOM     17  C   LIG A   1      -6.103  -0.373 126.205  0.00  0.00    +0.057 A 
BRANCH  12  19
ATOM     18  C   LIG A   1      -8.259   1.235 124.582  0.00  0.00    +0.277 C 
ATOM     19  O   LIG A   1      -6.906   0.876 124.326  0.00  0.00    -0.491 OA
ENDBRANCH  12  19
BRANCH  13  20
ATOM     20  O   LIG A   1      -6.908  -1.546 122.762  0.00  0.00    -0.488 OA
ATOM     21  C   LIG A   1      -8.242  -1.974 122.533  0.00  0.00    +0.277 C 
ENDBRANCH  13  20
BRANCH  14  22
ATOM     22  O   LIG A   1      -5.705  -3.877 124.000  0.00  0.00    -0.491 OA
ATOM     23  C   LIG A   1      -4.394  -4.282 123.638  0.00  0.00    +0.277 C 
ENDBRANCH  14  22
ENDBRANCH   1  16
BRANCH   9  24
ATOM     24  O   LIG A   1      -6.964  -3.201 133.679  0.00  0.00    -0.492 OA
ATOM     25  C   LIG A   1      -8.272  -3.506 134.149  0.00  0.00    +0.277 C 
ENDBRANCH   9  24
BRANCH   4  26
ATOM     26  C   LIG A   1      -8.258  -2.668 129.345  0.00  0.00    +0.045 C 
BRANCH  26  27
ATOM     27  C   LIG A   1      -8.374  -3.725 128.262  0.00  0.00    -0.033 C 
ATOM     28  C   LIG A   1      -8.933  -3.527 127.062  0.00  0.00    +0.004 C 
ENDBRANCH  26  27
ENDBRANCH   4  26
TORSDOF 7
ENDMDL
MODEL 2
REMARK VINA RESULT:      -6.6      2.392      4.181
REMARK  Name = NuBBE_2339
REMARK  12 active torsions:
REMARK  status: ('A' for Active; 'I' for Inactive)
REMARK    1  A    between atoms: C_1  and  O_2
REMARK    2  A    between atoms: O_2  and  C_3
REMARK    3  A    between atoms: C_4  and  O_5
REMARK    4  A    between atoms: O_5  and  C_6
REMARK    5  A    between atoms: C_7  and  O_8
REMARK    6  A    between atoms: O_8  and  C_9
REMARK    7  A    between atoms: C_11  and  C_12
REMARK    8  A    between atoms: C_16  and  C_17
REMARK    9  A    between atoms: C_17  and  C_18
REMARK   10  A    between atoms: C_20  and  C_22
REMARK   11  A    between atoms: C_25  and  O_26
REMARK   12  A    between atoms: O_26  and  C_27
REMARK                            x       y       z     vdW  Elec       q    Type
REMARK                         _______ _______ _______ _____ _____    ______ ____
ROOT
ATOM      1  C   LIG A   1      -7.414  -2.121 127.506  0.00  0.00    +0.207 C 
ATOM      2  O   LIG A   1      -6.015  -1.891 127.679  0.00  0.00    -0.487 OA
ATOM      3  C   LIG A   1      -5.722  -2.363 128.935  0.00  0.00    +0.113 C 
ATOM      4  C   LIG A   1      -6.880  -2.324 129.887  0.00  0.00    +0.059 C 
ATOM      5  C   LIG A   1      -8.020  -2.567 128.874  0.00  0.00    +0.049 C 
ATOM      6  C   LIG A   1      -8.496  -4.029 128.762  0.00  0.00    +0.013 C 
ATOM      7  C   LIG A   1      -4.540  -2.923 129.186  0.00  0.00    +0.096 C 
ATOM      8  C   LIG A   1      -4.324  -3.595 130.479  0.00  0.00    +0.223 C 
ATOM      9  C   LIG A   1      -5.550  -3.933 131.304  0.00  0.00    +0.164 C 
ATOM     10  C   LIG A   1      -6.722  -3.353 130.987  0.00  0.00    +0.038 C 
ATOM     11  O   LIG A   1      -3.179  -3.869 130.795  0.00  0.00    -0.284 OA
ENDROOT
BRANCH   1  16
ATOM     12  C   LIG A   1      -9.157   0.006 124.868  0.00  0.00    +0.166 A 
ATOM     13  C   LIG A   1      -9.064   1.314 125.399  0.00  0.00    +0.203 A 
ATOM     14  C   LIG A   1      -8.553   1.470 126.704  0.00  0.00    +0.166 A 
ATOM     15  C   LIG A   1      -8.076   0.346 127.404  0.00  0.00    +0.057 A 
ATOM     16  C   LIG A   1      -8.076  -0.936 126.838  0.00  0.00    +0.000 A 
ATOM     17  C   LIG A   1      -8.620  -1.083 125.564  0.00  0.00    +0.057 A 
BRANCH  12  19
ATOM     18  C   LIG A   1      -9.168  -1.226 122.827  0.00  0.00    +0.277 C 
ATOM     19  O   LIG A   1      -9.720  -0.191 123.634  0.00  0.00    -0.491 OA
ENDBRANCH  12  19
BRANCH  13  20
ATOM     20  O   LIG A   1      -9.425   2.458 124.734  0.00  0.00    -0.488 OA
ATOM     21  C   LIG A   1      -8.463   3.130 123.936  0.00  0.00    +0.277 C 
ENDBRANCH  13  20
BRANCH  14  22
ATOM     22  O   LIG A   1      -8.433   2.616 127.454  0.00  0.00    -0.491 OA
ATOM     23  C   LIG A   1      -8.328   2.527 128.867  0.00  0.00    +0.277 C 
ENDBRANCH  14  22
ENDBRANCH   1  16
BRANCH   9  24
ATOM     24  O   LIG A   1      -5.524  -4.791 132.397  0.00  0.00    -0.492 OA
ATOM     25  C   LIG A   1      -6.193  -4.341 133.570  0.00  0.00    +0.277 C 
ENDBRANCH   9  24
BRANCH   4  26
ATOM     26  C   LIG A   1      -7.013  -0.905 130.548  0.00  0.00    +0.045 C 
BRANCH  26  27
ATOM     27  C   LIG A   1      -8.061  -0.770 131.637  0.00  0.00    -0.033 C 
ATOM     28  C   LIG A   1      -9.071   0.110 131.619  0.00  0.00    +0.004 C 
ENDBRANCH  26  27
ENDBRANCH   4  26
TORSDOF 7
ENDMDL
MODEL 3
REMARK VINA RESULT:      -6.3      2.222      7.052
REMARK  Name = NuBBE_2339
REMARK  12 active torsions:
REMARK  status: ('A' for Active; 'I' for Inactive)
REMARK    1  A    between atoms: C_1  and  O_2
REMARK    2  A    between atoms: O_2  and  C_3
REMARK    3  A    between atoms: C_4  and  O_5
REMARK    4  A    between atoms: O_5  and  C_6
REMARK    5  A    between atoms: C_7  and  O_8
REMARK    6  A    between atoms: O_8  and  C_9
REMARK    7  A    between atoms: C_11  and  C_12
REMARK    8  A    between atoms: C_16  and  C_17
REMARK    9  A    between atoms: C_17  and  C_18
REMARK   10  A    between atoms: C_20  and  C_22
REMARK   11  A    between atoms: C_25  and  O_26
REMARK   12  A    between atoms: O_26  and  C_27
REMARK                            x       y       z     vdW  Elec       q    Type
REMARK                         _______ _______ _______ _____ _____    ______ ____
ROOT
ATOM      1  C   LIG A   1      -7.645  -2.053 128.944  0.00  0.00    +0.207 C 
ATOM      2  O   LIG A   1      -7.675  -0.713 128.453  0.00  0.00    -0.487 OA
ATOM      3  C   LIG A   1      -7.921  -0.824 127.106  0.00  0.00    +0.113 C 
ATOM      4  C   LIG A   1      -7.445  -2.112 126.504  0.00  0.00    +0.059 C 
ATOM      5  C   LIG A   1      -7.658  -3.032 127.727  0.00  0.00    +0.049 C 
ATOM      6  C   LIG A   1      -8.980  -3.823 127.730  0.00  0.00    +0.013 C 
ATOM      7  C   LIG A   1      -8.646   0.097 126.475  0.00  0.00    +0.096 C 
ATOM      8  C   LIG A   1      -9.059  -0.146 125.082  0.00  0.00    +0.223 C 
ATOM      9  C   LIG A   1      -8.956  -1.565 124.559  0.00  0.00    +0.164 C 
ATOM     10  C   LIG A   1      -8.229  -2.458 125.255  0.00  0.00    +0.038 C 
ATOM     11  O   LIG A   1      -9.490   0.799 124.442  0.00  0.00    -0.284 OA
ENDROOT
BRANCH   1  16
ATOM     12  C   LIG A   1      -4.516  -1.344 131.001  0.00  0.00    +0.166 A 
ATOM     13  C   LIG A   1      -4.203  -2.608 131.554  0.00  0.00    +0.203 A 
ATOM     14  C   LIG A   1      -5.117  -3.666 131.363  0.00  0.00    +0.166 A 
ATOM     15  C   LIG A   1      -6.259  -3.462 130.566  0.00  0.00    +0.057 A 
ATOM     16  C   LIG A   1      -6.517  -2.237 129.936  0.00  0.00    +0.000 A 
ATOM     17  C   LIG A   1      -5.628  -1.190 130.165  0.00  0.00    +0.057 A 
BRANCH  12  19
ATOM     18  C   LIG A   1      -4.112   0.672 132.207  0.00  0.00    +0.277 C 
ATOM     19  O   LIG A   1      -3.690  -0.275 131.232  0.00  0.00    -0.491 OA
ENDBRANCH  12  19
BRANCH  13  20
ATOM     20  O   LIG A   1      -3.063  -2.895 132.260  0.00  0.00    -0.488 OA
ATOM     21  C   LIG A   1      -3.033  -2.658 133.659  0.00  0.00    +0.277 C 
ENDBRANCH  13  20
BRANCH  14  22
ATOM     22  O   LIG A   1      -5.071  -4.948 131.856  0.00  0.00    -0.491 OA
ATOM     23  C   LIG A   1      -5.599  -5.229 133.142  0.00  0.00    +0.277 C 
ENDBRANCH  14  22
ENDBRANCH   1  16
BRANCH   9  24
ATOM     24  O   LIG A   1      -9.551  -1.991 123.378  0.00  0.00    -0.492 OA
ATOM     25  C   LIG A   1      -9.722  -3.396 123.227  0.00  0.00    +0.277 C 
ENDBRANCH   9  24
BRANCH   4  26
ATOM     26  C   LIG A   1      -5.922  -2.026 126.129  0.00  0.00    +0.045 C 
BRANCH  26  27
ATOM     27  C   LIG A   1      -5.571  -2.330 124.684  0.00  0.00    -0.033 C 
ATOM     28  C   LIG A   1      -5.093  -3.503 124.247  0.00  0.00    +0.004 C 
ENDBRANCH  26  27
ENDBRANCH   4  26
TORSDOF 7
ENDMDL
MODEL 4
REMARK VINA RESULT:      -6.3      2.115      3.432
REMARK  Name = NuBBE_2339
REMARK  12 active torsions:
REMARK  status: ('A' for Active; 'I' for Inactive)
REMARK    1  A    between atoms: C_1  and  O_2
REMARK    2  A    between atoms: O_2  and  C_3
REMARK    3  A    between atoms: C_4  and  O_5
REMARK    4  A    between atoms: O_5  and  C_6
REMARK    5  A    between atoms: C_7  and  O_8
REMARK    6  A    between atoms: O_8  and  C_9
REMARK    7  A    between atoms: C_11  and  C_12
REMARK    8  A    between atoms: C_16  and  C_17
REMARK    9  A    between atoms: C_17  and  C_18
REMARK   10  A    between atoms: C_20  and  C_22
REMARK   11  A    between atoms: C_25  and  O_26
REMARK   12  A    between atoms: O_26  and  C_27
REMARK                            x       y       z     vdW  Elec       q    Type
REMARK                         _______ _______ _______ _____ _____    ______ ____
ROOT
ATOM      1  C   LIG A   1      -7.269  -2.361 127.361  0.00  0.00    +0.207 C 
ATOM      2  O   LIG A   1      -5.872  -2.189 127.601  0.00  0.00    -0.487 OA
ATOM      3  C   LIG A   1      -5.696  -2.466 128.935  0.00  0.00    +0.113 C 
ATOM      4  C   LIG A   1      -6.908  -2.202 129.777  0.00  0.00    +0.059 C 
ATOM      5  C   LIG A   1      -7.994  -2.541 128.732  0.00  0.00    +0.049 C 
ATOM      6  C   LIG A   1      -8.564  -3.970 128.818  0.00  0.00    +0.013 C 
ATOM      7  C   LIG A   1      -4.576  -3.046 129.361  0.00  0.00    +0.096 C 
ATOM      8  C   LIG A   1      -4.494  -3.509 130.756  0.00  0.00    +0.223 C 
ATOM      9  C   LIG A   1      -5.792  -3.634 131.530  0.00  0.00    +0.164 C 
ATOM     10  C   LIG A   1      -6.896  -3.046 131.036  0.00  0.00    +0.038 C 
ATOM     11  O   LIG A   1      -3.394  -3.796 131.199  0.00  0.00    -0.284 OA
ENDROOT
BRANCH   1  16
ATOM     12  C   LIG A   1      -8.603   1.025 126.229  0.00  0.00    +0.166 A 
ATOM     13  C   LIG A   1      -9.077   0.762 124.922  0.00  0.00    +0.203 A 
ATOM     14  C   LIG A   1      -8.819  -0.507 124.361  0.00  0.00    +0.166 A 
ATOM     15  C   LIG A   1      -8.180  -1.493 125.136  0.00  0.00    +0.057 A 
ATOM     16  C   LIG A   1      -7.800  -1.264 126.465  0.00  0.00    +0.000 A 
ATOM     17  C   LIG A   1      -8.024   0.005 126.994  0.00  0.00    +0.057 A 
BRANCH  12  19
ATOM     18  C   LIG A   1      -8.021   2.567 127.951  0.00  0.00    +0.277 C 
ATOM     19  O   LIG A   1      -8.767   2.271 126.776  0.00  0.00    -0.491 OA
ENDBRANCH  12  19
BRANCH  13  20
ATOM     20  O   LIG A   1      -9.787   1.647 124.152  0.00  0.00    -0.488 OA
ATOM     21  C   LIG A   1      -9.098   2.459 123.214  0.00  0.00    +0.277 C 
ENDBRANCH  13  20
BRANCH  14  22
ATOM     22  O   LIG A   1      -9.112  -0.970 123.100  0.00  0.00    -0.491 OA
ATOM     23  C   LIG A   1      -8.326  -2.004 122.529  0.00  0.00    +0.277 C 
ENDBRANCH  14  22
ENDBRANCH   1  16
BRANCH   9  24
ATOM     24  O   LIG A   1      -5.899  -4.302 132.744  0.00  0.00    -0.492 OA
ATOM     25  C   LIG A   1      -6.881  -3.812 133.650  0.00  0.00    +0.277 C 
ENDBRANCH   9  24
BRANCH   4  26
ATOM     26  C   LIG A   1      -6.984  -0.689 130.192  0.00  0.00    +0.045 C 
BRANCH  26  27
ATOM     27  C   LIG A   1      -8.350  -0.178 130.611  0.00  0.00    -0.033 C 
ATOM     28  C   LIG A   1      -8.720   0.058 131.876  0.00  0.00    +0.004 C 
ENDBRANCH  26  27
ENDBRANCH   4  26
TORSDOF 7
ENDMDL
MODEL 5
REMARK VINA RESULT:      -6.2      2.235      7.251
REMARK  Name = NuBBE_2339
REMARK  12 active torsions:
REMARK  status: ('A' for Active; 'I' for Inactive)
REMARK    1  A    between atoms: C_1  and  O_2
REMARK    2  A    between atoms: O_2  and  C_3
REMARK    3  A    between atoms: C_4  and  O_5
REMARK    4  A    between atoms: O_5  and  C_6
REMARK    5  A    between atoms: C_7  and  O_8
REMARK    6  A    between atoms: O_8  and  C_9
REMARK    7  A    between atoms: C_11  and  C_12
REMARK    8  A    between atoms: C_16  and  C_17
REMARK    9  A    between atoms: C_17  and  C_18
REMARK   10  A    between atoms: C_20  and  C_22
REMARK   11  A    between atoms: C_25  and  O_26
REMARK   12  A    between atoms: O_26  and  C_27
REMARK                            x       y       z     vdW  Elec       q    Type
REMARK                         _______ _______ _______ _____ _____    ______ ____
ROOT
ATOM      1  C   LIG A   1      -7.338  -1.870 129.366  0.00  0.00    +0.207 C 
ATOM      2  O   LIG A   1      -7.366  -0.565 128.788  0.00  0.00    -0.487 OA
ATOM      3  C   LIG A   1      -7.731  -0.757 127.477  0.00  0.00    +0.113 C 
ATOM      4  C   LIG A   1      -7.351  -2.100 126.929  0.00  0.00    +0.059 C 
ATOM      5  C   LIG A   1      -7.489  -2.926 128.227  0.00  0.00    +0.049 C 
ATOM      6  C   LIG A   1      -8.833  -3.662 128.396  0.00  0.00    +0.013 C 
ATOM      7  C   LIG A   1      -8.475   0.148 126.846  0.00  0.00    +0.096 C 
ATOM      8  C   LIG A   1      -9.015  -0.171 125.513  0.00  0.00    +0.223 C 
ATOM      9  C   LIG A   1      -9.005  -1.625 125.084  0.00  0.00    +0.164 C 
ATOM     10  C   LIG A   1      -8.251  -2.497 125.777  0.00  0.00    +0.038 C 
ATOM     11  O   LIG A   1      -9.467   0.745 124.846  0.00  0.00    -0.284 OA
ENDROOT
BRANCH   1  16
ATOM     12  C   LIG A   1      -3.943  -3.020 130.661  0.00  0.00    +0.166 A 
ATOM     13  C   LIG A   1      -3.972  -2.634 132.021  0.00  0.00    +0.203 A 
ATOM     14  C   LIG A   1      -5.060  -1.858 132.473  0.00  0.00    +0.166 A 
ATOM     15  C   LIG A   1      -6.118  -1.565 131.592  0.00  0.00    +0.057 A 
ATOM     16  C   LIG A   1      -6.136  -2.032 130.271  0.00  0.00    +0.000 A 
ATOM     17  C   LIG A   1      -5.037  -2.763 129.826  0.00  0.00    +0.057 A 
BRANCH  12  19
ATOM     18  C   LIG A   1      -2.819  -3.925 128.763  0.00  0.00    +0.277 C 
ATOM     19  O   LIG A   1      -2.863  -3.707 130.169  0.00  0.00    -0.491 OA
ENDBRANCH  12  19
BRANCH  13  20
ATOM     20  O   LIG A   1      -3.020  -2.967 132.952  0.00  0.00    -0.488 OA
ATOM     21  C   LIG A   1      -3.143  -4.188 133.664  0.00  0.00    +0.277 C 
ENDBRANCH  13  20
BRANCH  14  22
ATOM     22  O   LIG A   1      -5.274  -1.309 133.715  0.00  0.00    -0.491 OA
ATOM     23  C   LIG A   1      -5.220   0.099 133.883  0.00  0.00    +0.277 C 
ENDBRANCH  14  22
ENDBRANCH   1  16
BRANCH   9  24
ATOM     24  O   LIG A   1      -9.714  -2.105 123.989  0.00  0.00    -0.492 OA
ATOM     25  C   LIG A   1      -9.151  -3.225 123.313  0.00  0.00    +0.277 C 
ENDBRANCH   9  24
BRANCH   4  26
ATOM     26  C   LIG A   1      -5.865  -2.100 126.422  0.00  0.00    +0.045 C 
BRANCH  26  27
ATOM     27  C   LIG A   1      -5.670  -2.192 124.920  0.00  0.00    -0.033 C 
ATOM     28  C   LIG A   1      -5.155  -3.251 124.283  0.00  0.00    +0.004 C 
ENDBRANCH  26  27
ENDBRANCH   4  26
TORSDOF 7
ENDMDL
MODEL 6
REMARK VINA RESULT:      -6.1      4.911      6.983
REMARK  Name = NuBBE_2339
REMARK  12 active torsions:
REMARK  status: ('A' for Active; 'I' for Inactive)
REMARK    1  A    between atoms: C_1  and  O_2
REMARK    2  A    between atoms: O_2  and  C_3
REMARK    3  A    between atoms: C_4  and  O_5
REMARK    4  A    between atoms: O_5  and  C_6
REMARK    5  A    between atoms: C_7  and  O_8
REMARK    6  A    between atoms: O_8  and  C_9
REMARK    7  A    between atoms: C_11  and  C_12
REMARK    8  A    between atoms: C_16  and  C_17
REMARK    9  A    between atoms: C_17  and  C_18
REMARK   10  A    between atoms: C_20  and  C_22
REMARK   11  A    between atoms: C_25  and  O_26
REMARK   12  A    between atoms: O_26  and  C_27
REMARK                            x       y       z     vdW  Elec       q    Type
REMARK                         _______ _______ _______ _____ _____    ______ ____
ROOT
ATOM      1  C   LIG A   1      -4.236   3.272 126.158  0.00  0.00    +0.207 C 
ATOM      2  O   LIG A   1      -4.936   4.498 126.368  0.00  0.00    -0.487 OA
ATOM      3  C   LIG A   1      -4.353   5.065 127.475  0.00  0.00    +0.113 C 
ATOM      4  C   LIG A   1      -3.746   4.071 128.420  0.00  0.00    +0.059 C 
ATOM      5  C   LIG A   1      -3.311   3.007 127.388  0.00  0.00    +0.049 C 
ATOM      6  C   LIG A   1      -1.839   3.091 126.940  0.00  0.00    +0.013 C 
ATOM      7  C   LIG A   1      -4.243   6.388 127.577  0.00  0.00    +0.096 C 
ATOM      8  C   LIG A   1      -3.443   6.958 128.674  0.00  0.00    +0.223 C 
ATOM      9  C   LIG A   1      -2.497   6.028 129.408  0.00  0.00    +0.164 C 
ATOM     10  C   LIG A   1      -2.643   4.700 129.246  0.00  0.00    +0.038 C 
ATOM     11  O   LIG A   1      -3.562   8.150 128.908  0.00  0.00    -0.284 OA
ENDROOT
BRANCH   1  16
ATOM     12  C   LIG A   1      -5.734  -0.216 125.821  0.00  0.00    +0.166 A 
ATOM     13  C   LIG A   1      -6.786  -0.024 124.894  0.00  0.00    +0.203 A 
ATOM     14  C   LIG A   1      -7.091   1.293 124.493  0.00  0.00    +0.166 A 
ATOM     15  C   LIG A   1      -6.298   2.362 124.954  0.00  0.00    +0.057 A 
ATOM     16  C   LIG A   1      -5.195   2.161 125.793  0.00  0.00    +0.000 A 
ATOM     17  C   LIG A   1      -4.928   0.860 126.213  0.00  0.00    +0.057 A 
BRANCH  12  19
ATOM     18  C   LIG A   1      -5.692  -1.713 127.675  0.00  0.00    +0.277 C 
ATOM     19  O   LIG A   1      -5.461  -1.474 126.292  0.00  0.00    -0.491 OA
ENDBRANCH  12  19
BRANCH  13  20
ATOM     20  O   LIG A   1      -7.534  -1.030 124.337  0.00  0.00    -0.488 OA
ATOM     21  C   LIG A   1      -8.691  -1.493 125.015  0.00  0.00    +0.277 C 
ENDBRANCH  13  20
BRANCH  14  22
ATOM     22  O   LIG A   1      -8.099   1.735 123.670  0.00  0.00    -0.491 OA
ATOM     23  C   LIG A   1      -9.346   2.122 124.226  0.00  0.00    +0.277 C 
ENDBRANCH  14  22
ENDBRANCH   1  16
BRANCH   9  24
ATOM     24  O   LIG A   1      -1.500   6.472 130.269  0.00  0.00    -0.492 OA
ATOM     25  C   LIG A   1      -1.862   6.610 131.638  0.00  0.00    +0.277 C 
ENDBRANCH   9  24
BRANCH   4  26
ATOM     26  C   LIG A   1      -4.831   3.491 129.397  0.00  0.00    +0.045 C 
BRANCH  26  27
ATOM     27  C   LIG A   1      -4.752   2.002 129.677  0.00  0.00    -0.033 C 
ATOM     28  C   LIG A   1      -4.193   1.461 130.768  0.00  0.00    +0.004 C 
ENDBRANCH  26  27
ENDBRANCH   4  26
TORSDOF 7
ENDMDL
MODEL 7
REMARK VINA RESULT:      -6.1      2.565      7.876
REMARK  Name = NuBBE_2339
REMARK  12 active torsions:
REMARK  status: ('A' for Active; 'I' for Inactive)
REMARK    1  A    between atoms: C_1  and  O_2
REMARK    2  A    between atoms: O_2  and  C_3
REMARK    3  A    between atoms: C_4  and  O_5
REMARK    4  A    between atoms: O_5  and  C_6
REMARK    5  A    between atoms: C_7  and  O_8
REMARK    6  A    between atoms: O_8  and  C_9
REMARK    7  A    between atoms: C_11  and  C_12
REMARK    8  A    between atoms: C_16  and  C_17
REMARK    9  A    between atoms: C_17  and  C_18
REMARK   10  A    between atoms: C_20  and  C_22
REMARK   11  A    between atoms: C_25  and  O_26
REMARK   12  A    between atoms: O_26  and  C_27
REMARK                            x       y       z     vdW  Elec       q    Type
REMARK                         _______ _______ _______ _____ _____    ______ ____
ROOT
ATOM      1  C   LIG A   1      -8.114   1.645 126.427  0.00  0.00    +0.207 C 
ATOM      2  O   LIG A   1      -6.878   2.356 126.362  0.00  0.00    -0.487 OA
ATOM      3  C   LIG A   1      -6.643   2.556 125.023  0.00  0.00    +0.113 C 
ATOM      4  C   LIG A   1      -7.264   1.520 124.134  0.00  0.00    +0.059 C 
ATOM      5  C   LIG A   1      -8.516   1.208 124.983  0.00  0.00    +0.049 C 
ATOM      6  C   LIG A   1      -9.796   1.959 124.566  0.00  0.00    +0.013 C 
ATOM      7  C   LIG A   1      -6.035   3.663 124.603  0.00  0.00    +0.096 C 
ATOM      8  C   LIG A   1      -5.972   3.944 123.159  0.00  0.00    +0.223 C 
ATOM      9  C   LIG A   1      -6.905   3.164 122.254  0.00  0.00    +0.164 C 
ATOM     10  C   LIG A   1      -7.511   2.067 122.743  0.00  0.00    +0.038 C 
ATOM     11  O   LIG A   1      -5.201   4.809 122.778  0.00  0.00    -0.284 OA
ENDROOT
BRANCH   1  16
ATOM     12  C   LIG A   1      -7.793  -0.100 129.799  0.00  0.00    +0.166 A 
ATOM     13  C   LIG A   1      -7.619  -1.458 129.442  0.00  0.00    +0.203 A 
ATOM     14  C   LIG A   1      -7.757  -1.814 128.084  0.00  0.00    +0.166 A 
ATOM     15  C   LIG A   1      -7.976  -0.811 127.121  0.00  0.00    +0.057 A 
ATOM     16  C   LIG A   1      -8.049   0.545 127.463  0.00  0.00    +0.000 A 
ATOM     17  C   LIG A   1      -7.951   0.880 128.812  0.00  0.00    +0.057 A 
BRANCH  12  19
ATOM     18  C   LIG A   1      -8.986   0.440 131.791  0.00  0.00    +0.277 C 
ATOM     19  O   LIG A   1      -7.743   0.270 131.118  0.00  0.00    -0.491 OA
ENDBRANCH  12  19
BRANCH  13  20
ATOM     20  O   LIG A   1      -7.311  -2.467 130.318  0.00  0.00    -0.488 OA
ATOM     21  C   LIG A   1      -5.949  -2.766 130.584  0.00  0.00    +0.277 C 
ENDBRANCH  13  20
BRANCH  14  22
ATOM     22  O   LIG A   1      -7.704  -3.061 127.507  0.00  0.00    -0.491 OA
ATOM     23  C   LIG A   1      -8.903  -3.702 127.103  0.00  0.00    +0.277 C 
ENDBRANCH  14  22
ENDBRANCH   1  16
BRANCH   9  24
ATOM     24  O   LIG A   1      -7.149   3.505 120.928  0.00  0.00    -0.492 OA
ATOM     25  C   LIG A   1      -8.494   3.834 120.597  0.00  0.00    +0.277 C 
ENDBRANCH   9  24
BRANCH   4  26
ATOM     26  C   LIG A   1      -6.339   0.256 124.016  0.00  0.00    +0.045 C 
BRANCH  26  27
ATOM     27  C   LIG A   1      -6.874  -0.888 123.175  0.00  0.00    -0.033 C 
ATOM     28  C   LIG A   1      -6.198  -2.010 122.897  0.00  0.00    +0.004 C 
ENDBRANCH  26  27
ENDBRANCH   4  26
TORSDOF 7
ENDMDL
MODEL 8
REMARK VINA RESULT:      -6.1      2.155      3.698
REMARK  Name = NuBBE_2339
REMARK  12 active torsions:
REMARK  status: ('A' for Active; 'I' for Inactive)
REMARK    1  A    between atoms: C_1  and  O_2
REMARK    2  A    between atoms: O_2  and  C_3
REMARK    3  A    between atoms: C_4  and  O_5
REMARK    4  A    between atoms: O_5  and  C_6
REMARK    5  A    between atoms: C_7  and  O_8
REMARK    6  A    between atoms: O_8  and  C_9
REMARK    7  A    between atoms: C_11  and  C_12
REMARK    8  A    between atoms: C_16  and  C_17
REMARK    9  A    between atoms: C_17  and  C_18
REMARK   10  A    between atoms: C_20  and  C_22
REMARK   11  A    between atoms: C_25  and  O_26
REMARK   12  A    between atoms: O_26  and  C_27
REMARK                            x       y       z     vdW  Elec       q    Type
REMARK                         _______ _______ _______ _____ _____    ______ ____
ROOT
ATOM      1  C   LIG A   1      -7.345   0.760 128.351  0.00  0.00    +0.207 C 
ATOM      2  O   LIG A   1      -8.499   1.324 128.975  0.00  0.00    -0.487 OA
ATOM      3  C   LIG A   1      -8.314   1.132 130.322  0.00  0.00    +0.113 C 
ATOM      4  C   LIG A   1      -7.459  -0.054 130.657  0.00  0.00    +0.059 C 
ATOM      5  C   LIG A   1      -6.526  -0.021 129.426  0.00  0.00    +0.049 C 
ATOM      6  C   LIG A   1      -5.176   0.689 129.645  0.00  0.00    +0.013 C 
ATOM      7  C   LIG A   1      -8.760   2.029 131.199  0.00  0.00    +0.096 C 
ATOM      8  C   LIG A   1      -8.378   1.900 132.615  0.00  0.00    +0.223 C 
ATOM      9  C   LIG A   1      -7.218   0.980 132.946  0.00  0.00    +0.164 C 
ATOM     10  C   LIG A   1      -6.797   0.111 132.009  0.00  0.00    +0.038 C 
ATOM     11  O   LIG A   1      -8.992   2.562 133.435  0.00  0.00    -0.284 OA
ENDROOT
BRANCH   1  16
ATOM     12  C   LIG A   1      -7.195  -1.769 125.504  0.00  0.00    +0.166 A 
ATOM     13  C   LIG A   1      -8.217  -1.329 124.630  0.00  0.00    +0.203 A 
ATOM     14  C   LIG A   1      -9.055  -0.279 125.058  0.00  0.00    +0.166 A 
ATOM     15  C   LIG A   1      -8.804   0.354 126.291  0.00  0.00    +0.057 A 
ATOM     16  C   LIG A   1      -7.730  -0.017 127.111  0.00  0.00    +0.000 A 
ATOM     17  C   LIG A   1      -6.933  -1.081 126.695  0.00  0.00    +0.057 A 
BRANCH  12  19
ATOM     18  C   LIG A   1      -5.272  -2.569 124.344  0.00  0.00    +0.277 C 
ATOM     19  O   LIG A   1      -6.411  -2.838 125.153  0.00  0.00    -0.491 OA
ENDBRANCH  12  19
BRANCH  13  20
ATOM     20  O   LIG A   1      -8.454  -1.840 123.379  0.00  0.00    -0.488 OA
ATOM     21  C   LIG A   1      -9.300  -2.971 123.239  0.00  0.00    +0.277 C 
ENDBRANCH  13  20
BRANCH  14  22
ATOM     22  O   LIG A   1     -10.147   0.269 124.427  0.00  0.00    -0.491 OA
ATOM     23  C   LIG A   1     -10.052   1.559 123.845  0.00  0.00    +0.277 C 
ENDBRANCH  14  22
ENDBRANCH   1  16
BRANCH   9  24
ATOM     24  O   LIG A   1      -6.581   0.965 134.181  0.00  0.00    -0.492 OA
ATOM     25  C   LIG A   1      -5.578   1.953 134.387  0.00  0.00    +0.277 C 
ENDBRANCH   9  24
BRANCH   4  26
ATOM     26  C   LIG A   1      -8.312  -1.373 130.676  0.00  0.00    +0.045 C 
BRANCH  26  27
ATOM     27  C   LIG A   1      -7.649  -2.607 130.093  0.00  0.00    -0.033 C 
ATOM     28  C   LIG A   1      -8.178  -3.373 129.131  0.00  0.00    +0.004 C 
ENDBRANCH  26  27
ENDBRANCH   4  26
TORSDOF 7
ENDMDL
MODEL 9
REMARK VINA RESULT:      -6.0      3.437      4.828
REMARK  Name = NuBBE_2339
REMARK  12 active torsions:
REMARK  status: ('A' for Active; 'I' for Inactive)
REMARK    1  A    between atoms: C_1  and  O_2
REMARK    2  A    between atoms: O_2  and  C_3
REMARK    3  A    between atoms: C_4  and  O_5
REMARK    4  A    between atoms: O_5  and  C_6
REMARK    5  A    between atoms: C_7  and  O_8
REMARK    6  A    between atoms: O_8  and  C_9
REMARK    7  A    between atoms: C_11  and  C_12
REMARK    8  A    between atoms: C_16  and  C_17
REMARK    9  A    between atoms: C_17  and  C_18
REMARK   10  A    between atoms: C_20  and  C_22
REMARK   11  A    between atoms: C_25  and  O_26
REMARK   12  A    between atoms: O_26  and  C_27
REMARK                            x       y       z     vdW  Elec       q    Type
REMARK                         _______ _______ _______ _____ _____    ______ ____
ROOT
ATOM      1  C   LIG A   1      -7.907   1.864 128.335  0.00  0.00    +0.207 C 
ATOM      2  O   LIG A   1      -9.113   2.539 128.691  0.00  0.00    -0.487 OA
ATOM      3  C   LIG A   1      -8.994   2.813 130.032  0.00  0.00    +0.113 C 
ATOM      4  C   LIG A   1      -8.114   1.852 130.774  0.00  0.00    +0.059 C 
ATOM      5  C   LIG A   1      -7.118   1.527 129.639  0.00  0.00    +0.049 C 
ATOM      6  C   LIG A   1      -5.809   2.341 129.661  0.00  0.00    +0.013 C 
ATOM      7  C   LIG A   1      -9.520   3.924 130.542  0.00  0.00    +0.096 C 
ATOM      8  C   LIG A   1      -9.211   4.290 131.935  0.00  0.00    +0.223 C 
ATOM      9  C   LIG A   1      -8.037   3.595 132.597  0.00  0.00    +0.164 C 
ATOM     10  C   LIG A   1      -7.533   2.489 132.020  0.00  0.00    +0.038 C 
ATOM     11  O   LIG A   1      -9.893   5.152 132.464  0.00  0.00    -0.284 OA
ENDROOT
BRANCH   1  16
ATOM     12  C   LIG A   1      -9.296  -0.140 125.406  0.00  0.00    +0.166 A 
ATOM     13  C   LIG A   1      -9.029  -1.478 125.779  0.00  0.00    +0.203 A 
ATOM     14  C   LIG A   1      -8.253  -1.708 126.934  0.00  0.00    +0.166 A 
ATOM     15  C   LIG A   1      -7.843  -0.617 127.724  0.00  0.00    +0.057 A 
ATOM     16  C   LIG A   1      -8.193   0.702 127.409  0.00  0.00    +0.000 A 
ATOM     17  C   LIG A   1      -8.926   0.918 126.244  0.00  0.00    +0.057 A 
BRANCH  12  19
ATOM     18  C   LIG A   1     -10.096   1.486 123.857  0.00  0.00    +0.277 C 
ATOM     19  O   LIG A   1      -9.981   0.122 124.247  0.00  0.00    -0.491 OA
ENDBRANCH  12  19
BRANCH  13  20
ATOM     20  O   LIG A   1      -9.478  -2.585 125.105  0.00  0.00    -0.488 OA
ATOM     21  C   LIG A   1      -8.683  -3.137 124.066  0.00  0.00    +0.277 C 
ENDBRANCH  13  20
BRANCH  14  22
ATOM     22  O   LIG A   1      -7.806  -2.900 127.453  0.00  0.00    -0.491 OA
ATOM     23  C   LIG A   1      -8.620  -3.624 128.361  0.00  0.00    +0.277 C 
ENDBRANCH  14  22
ENDBRANCH   1  16
BRANCH   9  24
ATOM     24  O   LIG A   1      -7.468   4.023 133.790  0.00  0.00    -0.492 OA
ATOM     25  C   LIG A   1      -6.566   5.121 133.703  0.00  0.00    +0.277 C 
ENDBRANCH   9  24
BRANCH   4  26
ATOM     26  C   LIG A   1      -8.916   0.570 131.198  0.00  0.00    +0.045 C 
BRANCH  26  27
ATOM     27  C   LIG A   1      -8.132  -0.494 131.944  0.00  0.00    -0.033 C 
ATOM     28  C   LIG A   1      -7.621  -1.597 131.382  0.00  0.00    +0.004 C 
ENDBRANCH  26  27
ENDBRANCH   4  26
TORSDOF 7
ENDMDL
