MODEL 1
REMARK VINA RESULT:      -6.7      0.000      0.000
REMARK  Name = NuBBE_2294
REMARK  5 active torsions:
REMARK  status: ('A' for Active; 'I' for Inactive)
REMARK    1  A    between atoms: C_1  and  C_2
REMARK    2  A    between atoms: C_6  and  C_7
REMARK    3  A    between atoms: C_10  and  C_11
REMARK    4  A    between atoms: C_11  and  C_12
REMARK    5  A    between atoms: C_11  and  C_13
REMARK                            x       y       z     vdW  Elec       q    Type
REMARK                         _______ _______ _______ _____ _____    ______ ____
ROOT
ATOM      1  C   LIG A   1      -9.387  -4.047 128.176  0.00  0.00    +0.044 C 
ATOM      2  C   LIG A   1      -8.152  -3.247 127.985  0.00  0.00    -0.043 A 
ATOM      3  C   LIG A   1      -7.319  -2.769 128.935  0.00  0.00    +0.004 A 
ATOM      4  C   LIG A   1      -6.229  -2.035 128.314  0.00  0.00    +0.009 A 
ATOM      5  C   LIG A   1      -6.367  -2.071 126.976  0.00  0.00    -0.015 A 
ATOM      6  C   LIG A   1      -5.513  -1.467 125.973  0.00  0.00    -0.043 A 
ATOM      7  C   LIG A   1      -5.600   0.033 125.898  0.00  0.00    +0.044 C 
ATOM      8  C   LIG A   1      -5.317  -2.246 124.885  0.00  0.00    +0.004 A 
ATOM      9  C   LIG A   1      -6.389  -2.212 123.887  0.00  0.00    +0.004 A 
ATOM     10  C   LIG A   1      -7.673  -2.555 124.159  0.00  0.00    -0.044 A 
ATOM     11  C   LIG A   1      -8.150  -3.028 125.479  0.00  0.00    +0.012 A 
ATOM     12  C   LIG A   1      -7.611  -2.813 126.697  0.00  0.00    -0.015 A 
ENDROOT
BRANCH  10  13
ATOM     13  C   LIG A   1      -8.712  -2.479 123.039  0.00  0.00    +0.013 C 
ATOM     14  C   LIG A   1      -9.851  -3.484 123.237  0.00  0.00    +0.012 C 
ATOM     15  C   LIG A   1      -9.257  -1.061 122.838  0.00  0.00    +0.012 C 
ENDBRANCH  10  13
TORSDOF 1
ENDMDL
MODEL 2
REMARK VINA RESULT:      -6.5      1.705      3.247
REMARK  Name = NuBBE_2294
REMARK  5 active torsions:
REMARK  status: ('A' for Active; 'I' for Inactive)
REMARK    1  A    between atoms: C_1  and  C_2
REMARK    2  A    between atoms: C_6  and  C_7
REMARK    3  A    between atoms: C_10  and  C_11
REMARK    4  A    between atoms: C_11  and  C_12
REMARK    5  A    between atoms: C_11  and  C_13
REMARK                            x       y       z     vdW  Elec       q    Type
REMARK                         _______ _______ _______ _____ _____    ______ ____
ROOT
ATOM      1  C   LIG A   1      -4.160  -2.975 129.073  0.00  0.00    +0.044 C 
ATOM      2  C   LIG A   1      -5.608  -2.793 128.809  0.00  0.00    -0.043 A 
ATOM      3  C   LIG A   1      -6.631  -2.912 129.684  0.00  0.00    +0.004 A 
ATOM      4  C   LIG A   1      -7.892  -2.652 129.009  0.00  0.00    +0.009 A 
ATOM      5  C   LIG A   1      -7.659  -2.353 127.719  0.00  0.00    -0.015 A 
ATOM      6  C   LIG A   1      -8.624  -2.034 126.686  0.00  0.00    -0.043 A 
ATOM      7  C   LIG A   1      -9.450  -3.202 126.220  0.00  0.00    +0.044 C 
ATOM      8  C   LIG A   1      -8.231  -1.039 125.861  0.00  0.00    +0.004 A 
ATOM      9  C   LIG A   1      -7.320  -1.438 124.783  0.00  0.00    +0.004 A 
ATOM     10  C   LIG A   1      -6.114  -2.017 125.003  0.00  0.00    -0.044 A 
ATOM     11  C   LIG A   1      -5.550  -2.293 126.344  0.00  0.00    +0.012 A 
ATOM     12  C   LIG A   1      -6.202  -2.458 127.514  0.00  0.00    -0.015 A 
ENDROOT
BRANCH  10  13
ATOM     13  C   LIG A   1      -5.246  -2.396 123.802  0.00  0.00    +0.013 C 
ATOM     14  C   LIG A   1      -4.769  -3.850 123.868  0.00  0.00    +0.012 C 
ATOM     15  C   LIG A   1      -5.934  -2.104 122.464  0.00  0.00    +0.012 C 
ENDBRANCH  10  13
TORSDOF 1
ENDMDL
MODEL 3
REMARK VINA RESULT:      -6.5      1.902      5.376
REMARK  Name = NuBBE_2294
REMARK  5 active torsions:
REMARK  status: ('A' for Active; 'I' for Inactive)
REMARK    1  A    between atoms: C_1  and  C_2
REMARK    2  A    between atoms: C_6  and  C_7
REMARK    3  A    between atoms: C_10  and  C_11
REMARK    4  A    between atoms: C_11  and  C_12
REMARK    5  A    between atoms: C_11  and  C_13
REMARK                            x       y       z     vdW  Elec       q    Type
REMARK                         _______ _______ _______ _____ _____    ______ ____
ROOT
ATOM      1  C   LIG A   1      -8.797   2.815 124.143  0.00  0.00    +0.044 C 
ATOM      2  C   LIG A   1      -9.104   1.487 123.556  0.00  0.00    -0.043 A 
ATOM      3  C   LIG A   1     -10.186   1.132 122.830  0.00  0.00    +0.004 A 
ATOM      4  C   LIG A   1     -10.092  -0.268 122.452  0.00  0.00    +0.009 A 
ATOM      5  C   LIG A   1      -8.943  -0.784 122.923  0.00  0.00    -0.015 A 
ATOM      6  C   LIG A   1      -8.449  -2.140 122.785  0.00  0.00    -0.043 A 
ATOM      7  C   LIG A   1      -9.193  -3.162 123.601  0.00  0.00    +0.044 C 
ATOM      8  C   LIG A   1      -7.120  -2.214 122.551  0.00  0.00    +0.004 A 
ATOM      9  C   LIG A   1      -6.265  -2.102 123.737  0.00  0.00    +0.004 A 
ATOM     10  C   LIG A   1      -6.272  -1.026 124.562  0.00  0.00    -0.044 A 
ATOM     11  C   LIG A   1      -7.113   0.176 124.361  0.00  0.00    +0.012 A 
ATOM     12  C   LIG A   1      -8.270   0.290 123.676  0.00  0.00    -0.015 A 
ENDROOT
BRANCH  10  13
ATOM     13  C   LIG A   1      -5.340  -1.018 125.774  0.00  0.00    +0.013 C 
ATOM     14  C   LIG A   1      -5.270   0.359 126.443  0.00  0.00    +0.012 C 
ATOM     15  C   LIG A   1      -5.691  -2.106 126.794  0.00  0.00    +0.012 C 
ENDBRANCH  10  13
TORSDOF 1
ENDMDL
MODEL 4
REMARK VINA RESULT:      -6.5      1.801      3.671
REMARK  Name = NuBBE_2294
REMARK  5 active torsions:
REMARK  status: ('A' for Active; 'I' for Inactive)
REMARK    1  A    between atoms: C_1  and  C_2
REMARK    2  A    between atoms: C_6  and  C_7
REMARK    3  A    between atoms: C_10  and  C_11
REMARK    4  A    between atoms: C_11  and  C_12
REMARK    5  A    between atoms: C_11  and  C_13
REMARK                            x       y       z     vdW  Elec       q    Type
REMARK                         _______ _______ _______ _____ _____    ______ ____
ROOT
ATOM      1  C   LIG A   1      -8.044   1.425 126.734  0.00  0.00    +0.044 C 
ATOM      2  C   LIG A   1      -7.887   0.434 127.826  0.00  0.00    -0.043 A 
ATOM      3  C   LIG A   1      -7.564   0.667 129.117  0.00  0.00    +0.004 A 
ATOM      4  C   LIG A   1      -7.514  -0.587 129.850  0.00  0.00    +0.009 A 
ATOM      5  C   LIG A   1      -7.824  -1.603 129.024  0.00  0.00    -0.015 A 
ATOM      6  C   LIG A   1      -7.888  -3.018 129.333  0.00  0.00    -0.043 A 
ATOM      7  C   LIG A   1      -6.552  -3.669 129.562  0.00  0.00    +0.044 C 
ATOM      8  C   LIG A   1      -8.925  -3.656 128.745  0.00  0.00    +0.004 A 
ATOM      9  C   LIG A   1      -8.712  -4.046 127.348  0.00  0.00    +0.004 A 
ATOM     10  C   LIG A   1      -8.427  -3.160 126.362  0.00  0.00    -0.044 A 
ATOM     11  C   LIG A   1      -8.321  -1.696 126.558  0.00  0.00    +0.012 A 
ATOM     12  C   LIG A   1      -8.045  -1.015 127.690  0.00  0.00    -0.015 A 
ENDROOT
BRANCH  10  13
ATOM     13  C   LIG A   1      -8.221  -3.679 124.938  0.00  0.00    +0.013 C 
ATOM     14  C   LIG A   1      -9.371  -3.287 124.006  0.00  0.00    +0.012 C 
ATOM     15  C   LIG A   1      -6.869  -3.260 124.349  0.00  0.00    +0.012 C 
ENDBRANCH  10  13
TORSDOF 1
ENDMDL
MODEL 5
REMARK VINA RESULT:      -6.3      1.560      4.986
REMARK  Name = NuBBE_2294
REMARK  5 active torsions:
REMARK  status: ('A' for Active; 'I' for Inactive)
REMARK    1  A    between atoms: C_1  and  C_2
REMARK    2  A    between atoms: C_6  and  C_7
REMARK    3  A    between atoms: C_10  and  C_11
REMARK    4  A    between atoms: C_11  and  C_12
REMARK    5  A    between atoms: C_11  and  C_13
REMARK                            x       y       z     vdW  Elec       q    Type
REMARK                         _______ _______ _______ _____ _____    ______ ____
ROOT
ATOM      1  C   LIG A   1      -9.180   1.990 125.255  0.00  0.00    +0.044 C 
ATOM      2  C   LIG A   1      -9.213   0.822 124.341  0.00  0.00    -0.043 A 
ATOM      3  C   LIG A   1      -9.605   0.791 123.048  0.00  0.00    +0.004 A 
ATOM      4  C   LIG A   1      -9.481  -0.559 122.525  0.00  0.00    +0.009 A 
ATOM      5  C   LIG A   1      -8.993  -1.369 123.481  0.00  0.00    -0.015 A 
ATOM      6  C   LIG A   1      -8.719  -2.790 123.395  0.00  0.00    -0.043 A 
ATOM      7  C   LIG A   1      -9.944  -3.661 123.341  0.00  0.00    +0.044 C 
ATOM      8  C   LIG A   1      -7.580  -3.163 124.020  0.00  0.00    +0.004 A 
ATOM      9  C   LIG A   1      -7.690  -3.347 125.470  0.00  0.00    +0.004 A 
ATOM     10  C   LIG A   1      -8.081  -2.365 126.319  0.00  0.00    -0.044 A 
ATOM     11  C   LIG A   1      -8.418  -0.984 125.902  0.00  0.00    +0.012 A 
ATOM     12  C   LIG A   1      -8.829  -0.546 124.693  0.00  0.00    -0.015 A 
ENDROOT
BRANCH  10  13
ATOM     13  C   LIG A   1      -8.163  -2.670 127.815  0.00  0.00    +0.013 C 
ATOM     14  C   LIG A   1      -8.893  -3.987 128.099  0.00  0.00    +0.012 C 
ATOM     15  C   LIG A   1      -6.791  -2.643 128.497  0.00  0.00    +0.012 C 
ENDBRANCH  10  13
TORSDOF 1
ENDMDL
MODEL 6
REMARK VINA RESULT:      -6.1      1.729      3.659
REMARK  Name = NuBBE_2294
REMARK  5 active torsions:
REMARK  status: ('A' for Active; 'I' for Inactive)
REMARK    1  A    between atoms: C_1  and  C_2
REMARK    2  A    between atoms: C_6  and  C_7
REMARK    3  A    between atoms: C_10  and  C_11
REMARK    4  A    between atoms: C_11  and  C_12
REMARK    5  A    between atoms: C_11  and  C_13
REMARK                            x       y       z     vdW  Elec       q    Type
REMARK                         _______ _______ _______ _____ _____    ______ ____
ROOT
ATOM      1  C   LIG A   1      -7.308  -1.602 130.137  0.00  0.00    +0.044 C 
ATOM      2  C   LIG A   1      -7.909  -2.405 129.044  0.00  0.00    -0.043 A 
ATOM      3  C   LIG A   1      -8.528  -3.602 129.139  0.00  0.00    +0.004 A 
ATOM      4  C   LIG A   1      -8.968  -4.038 127.824  0.00  0.00    +0.009 A 
ATOM      5  C   LIG A   1      -8.643  -3.108 126.910  0.00  0.00    -0.015 A 
ATOM      6  C   LIG A   1      -8.885  -3.136 125.481  0.00  0.00    -0.043 A 
ATOM      7  C   LIG A   1      -8.035  -4.117 124.721  0.00  0.00    +0.044 C 
ATOM      8  C   LIG A   1      -9.264  -1.943 124.969  0.00  0.00    +0.004 A 
ATOM      9  C   LIG A   1      -8.173  -1.003 124.692  0.00  0.00    +0.004 A 
ATOM     10  C   LIG A   1      -7.312  -0.560 125.640  0.00  0.00    -0.044 A 
ATOM     11  C   LIG A   1      -7.374  -0.939 127.070  0.00  0.00    +0.012 A 
ATOM     12  C   LIG A   1      -7.926  -2.038 127.627  0.00  0.00    -0.015 A 
ENDROOT
BRANCH  10  13
ATOM     13  C   LIG A   1      -6.207   0.418 125.237  0.00  0.00    +0.013 C 
ATOM     14  C   LIG A   1      -6.764   1.677 124.564  0.00  0.00    +0.012 C 
ATOM     15  C   LIG A   1      -5.287   0.782 126.407  0.00  0.00    +0.012 C 
ENDBRANCH  10  13
TORSDOF 1
ENDMDL
MODEL 7
REMARK VINA RESULT:      -6.0     16.347     18.507
REMARK  Name = NuBBE_2294
REMARK  5 active torsions:
REMARK  status: ('A' for Active; 'I' for Inactive)
REMARK    1  A    between atoms: C_1  and  C_2
REMARK    2  A    between atoms: C_6  and  C_7
REMARK    3  A    between atoms: C_10  and  C_11
REMARK    4  A    between atoms: C_11  and  C_12
REMARK    5  A    between atoms: C_11  and  C_13
REMARK                            x       y       z     vdW  Elec       q    Type
REMARK                         _______ _______ _______ _____ _____    ______ ____
ROOT
ATOM      1  C   LIG A   1      -4.600  11.130 138.311  0.00  0.00    +0.044 C 
ATOM      2  C   LIG A   1      -5.906  11.533 138.888  0.00  0.00    -0.043 A 
ATOM      3  C   LIG A   1      -6.209  12.684 139.527  0.00  0.00    +0.004 A 
ATOM      4  C   LIG A   1      -7.605  12.671 139.933  0.00  0.00    +0.009 A 
ATOM      5  C   LIG A   1      -8.180  11.524 139.531  0.00  0.00    -0.015 A 
ATOM      6  C   LIG A   1      -9.550  11.094 139.728  0.00  0.00    -0.043 A 
ATOM      7  C   LIG A   1      -9.889  10.717 141.144  0.00  0.00    +0.044 C 
ATOM      8  C   LIG A   1     -10.084  10.470 138.654  0.00  0.00    +0.004 A 
ATOM      9  C   LIG A   1      -9.737   9.052 138.514  0.00  0.00    +0.004 A 
ATOM     10  C   LIG A   1      -8.462   8.605 138.401  0.00  0.00    -0.044 A 
ATOM     11  C   LIG A   1      -7.267   9.480 138.379  0.00  0.00    +0.012 A 
ATOM     12  C   LIG A   1      -7.127  10.727 138.876  0.00  0.00    -0.015 A 
ENDROOT
BRANCH  10  13
ATOM     13  C   LIG A   1      -8.215   7.102 138.263  0.00  0.00    +0.013 C 
ATOM     14  C   LIG A   1      -7.800   6.711 136.841  0.00  0.00    +0.012 C 
ATOM     15  C   LIG A   1      -7.211   6.573 139.293  0.00  0.00    +0.012 C 
ENDBRANCH  10  13
TORSDOF 1
ENDMDL
MODEL 8
REMARK VINA RESULT:      -5.9      4.347      6.651
REMARK  Name = NuBBE_2294
REMARK  5 active torsions:
REMARK  status: ('A' for Active; 'I' for Inactive)
REMARK    1  A    between atoms: C_1  and  C_2
REMARK    2  A    between atoms: C_6  and  C_7
REMARK    3  A    between atoms: C_10  and  C_11
REMARK    4  A    between atoms: C_11  and  C_12
REMARK    5  A    between atoms: C_11  and  C_13
REMARK                            x       y       z     vdW  Elec       q    Type
REMARK                         _______ _______ _______ _____ _____    ______ ____
ROOT
ATOM      1  C   LIG A   1      -4.101   4.104 126.225  0.00  0.00    +0.044 C 
ATOM      2  C   LIG A   1      -5.277   3.224 126.019  0.00  0.00    -0.043 A 
ATOM      3  C   LIG A   1      -5.860   2.397 126.914  0.00  0.00    +0.004 A 
ATOM      4  C   LIG A   1      -6.987   1.716 126.299  0.00  0.00    +0.009 A 
ATOM      5  C   LIG A   1      -7.123   2.131 125.027  0.00  0.00    -0.015 A 
ATOM      6  C   LIG A   1      -8.107   1.710 124.050  0.00  0.00    -0.043 A 
ATOM      7  C   LIG A   1      -7.912   0.312 123.528  0.00  0.00    +0.044 C 
ATOM      8  C   LIG A   1      -8.581   2.719 123.285  0.00  0.00    +0.004 A 
ATOM      9  C   LIG A   1      -7.731   3.104 122.154  0.00  0.00    +0.004 A 
ATOM     10  C   LIG A   1      -6.453   3.532 122.295  0.00  0.00    -0.044 A 
ATOM     11  C   LIG A   1      -5.762   3.692 123.595  0.00  0.00    +0.012 A 
ATOM     12  C   LIG A   1      -6.027   3.084 124.770  0.00  0.00    -0.015 A 
ENDROOT
BRANCH  10  13
ATOM     13  C   LIG A   1      -5.656   3.905 121.044  0.00  0.00    +0.013 C 
ATOM     14  C   LIG A   1      -6.561   4.355 119.893  0.00  0.00    +0.012 C 
ATOM     15  C   LIG A   1      -4.568   4.946 121.328  0.00  0.00    +0.012 C 
ENDBRANCH  10  13
TORSDOF 1
ENDMDL
MODEL 9
REMARK VINA RESULT:      -5.8     18.225     20.336
REMARK  Name = NuBBE_2294
REMARK  5 active torsions:
REMARK  status: ('A' for Active; 'I' for Inactive)
REMARK    1  A    between atoms: C_1  and  C_2
REMARK    2  A    between atoms: C_6  and  C_7
REMARK    3  A    between atoms: C_10  and  C_11
REMARK    4  A    between atoms: C_11  and  C_12
REMARK    5  A    between atoms: C_11  and  C_13
REMARK                            x       y       z     vdW  Elec       q    Type
REMARK                         _______ _______ _______ _____ _____    ______ ____
ROOT
ATOM      1  C   LIG A   1      -4.790  12.857 139.006  0.00  0.00    +0.044 C 
ATOM      2  C   LIG A   1      -5.758  11.734 138.967  0.00  0.00    -0.043 A 
ATOM      3  C   LIG A   1      -5.547  10.473 138.529  0.00  0.00    +0.004 A 
ATOM      4  C   LIG A   1      -6.765   9.691 138.665  0.00  0.00    +0.009 A 
ATOM      5  C   LIG A   1      -7.731  10.455 139.205  0.00  0.00    -0.015 A 
ATOM      6  C   LIG A   1      -9.099  10.083 139.508  0.00  0.00    -0.043 A 
ATOM      7  C   LIG A   1      -9.979   9.898 138.302  0.00  0.00    +0.044 C 
ATOM      8  C   LIG A   1      -9.553  10.587 140.677  0.00  0.00    +0.004 A 
ATOM      9  C   LIG A   1     -10.020  11.976 140.625  0.00  0.00    +0.004 A 
ATOM     10  C   LIG A   1      -9.234  13.012 140.242  0.00  0.00    -0.044 A 
ATOM     11  C   LIG A   1      -7.809  12.884 139.859  0.00  0.00    +0.012 A 
ATOM     12  C   LIG A   1      -7.156  11.799 139.395  0.00  0.00    -0.015 A 
ENDROOT
BRANCH  10  13
ATOM     13  C   LIG A   1      -9.828  14.421 140.221  0.00  0.00    +0.013 C 
ATOM     14  C   LIG A   1      -8.762  15.496 139.988  0.00  0.00    +0.012 C 
ATOM     15  C   LIG A   1     -10.977  14.561 139.217  0.00  0.00    +0.012 C 
ENDBRANCH  10  13
TORSDOF 1
ENDMDL
