MODEL 1
REMARK VINA RESULT:      -6.2      0.000      0.000
REMARK  Name = NuBBE_335
REMARK  14 active torsions:
REMARK  status: ('A' for Active; 'I' for Inactive)
REMARK    1  A    between atoms: C_2  and  O_3
REMARK    2  A    between atoms: C_2  and  C_5
REMARK    3  A    between atoms: O_3  and  C_4
REMARK    4  A    between atoms: C_8  and  O_10
REMARK    5  A    between atoms: O_10  and  C_11
REMARK    6  A    between atoms: C_14  and  C_16
REMARK    7  A    between atoms: C_16  and  O_17
REMARK    8  A    between atoms: C_18  and  O_20
REMARK    9  A    between atoms: C_21  and  O_23
REMARK   10  A    between atoms: C_24  and  O_26
REMARK   11  A    between atoms: C_27  and  C_28
REMARK   12  A    between atoms: C_31  and  C_33
REMARK   13  A    between atoms: C_33  and  C_34
REMARK   14  A    between atoms: C_34  and  O_35
REMARK                            x       y       z     vdW  Elec       q    Type
REMARK                         _______ _______ _______ _____ _____    ______ ____
ROOT
ATOM      1  C   LIG A   1      -7.561   3.805 128.663  0.00  0.00    +0.075 C 
ATOM      2  C   LIG A   1      -6.752   4.687 129.256  0.00  0.00    +0.201 C 
ATOM      3  O   LIG A   1      -6.665   4.807 130.619  0.00  0.00    -0.470 OA
ATOM      4  C   LIG A   1      -7.949   4.750 131.277  0.00  0.00    +0.316 C 
ATOM      5  C   LIG A   1      -8.902   3.596 130.753  0.00  0.00    +0.088 C 
ATOM      6  C   LIG A   1      -8.302   2.826 129.533  0.00  0.00    +0.052 C 
ENDROOT
BRANCH   1   8
ATOM      7  O   LIG A   1      -8.289   4.824 126.636  0.00  0.00    -0.245 OA
ATOM      8  C   LIG A   1      -7.720   3.917 127.193  0.00  0.00    +0.338 C 
BRANCH   8   9
ATOM      9  O   LIG A   1      -7.255   2.768 126.633  0.00  0.00    -0.465 OA
ATOM     10  C   LIG A   1      -5.875   2.779 126.252  0.00  0.00    +0.280 C 
ENDBRANCH   8   9
ENDBRANCH   1   8
BRANCH   5  11
ATOM     11  C   LIG A   1      -9.410   2.684 131.871  0.00  0.00    -0.025 C 
ATOM     12  C   LIG A   1      -9.099   2.791 133.173  0.00  0.00    +0.004 C 
ENDBRANCH   5  11
BRANCH   4  13
ATOM     13  O   LIG A   1      -8.631   6.019 131.153  0.00  0.00    -0.309 OA
BRANCH  13  14
ATOM     14  C   LIG A   1      -9.931   5.921 130.527  0.00  0.00    +0.286 C 
ATOM     15  O   LIG A   1      -9.896   6.631 129.288  0.00  0.00    -0.340 OA
ATOM     16  C   LIG A   1     -11.157   6.745 128.616  0.00  0.00    +0.178 C 
ATOM     17  C   LIG A   1     -12.151   7.525 129.489  0.00  0.00    +0.177 C 
ATOM     18  C   LIG A   1     -12.316   6.827 130.836  0.00  0.00    +0.179 C 
ATOM     19  C   LIG A   1     -10.965   6.547 131.503  0.00  0.00    +0.201 C 
BRANCH  17  20
ATOM     20  O   LIG A   1     -13.452   7.666 128.906  0.00  0.00    -0.387 OA
ATOM     21  H   LIG A   1     -13.911   8.375 129.409  0.00  0.00    +0.210 HD
ENDBRANCH  17  20
BRANCH  18  22
ATOM     22  O   LIG A   1     -13.091   7.678 131.710  0.00  0.00    -0.386 OA
ATOM     23  H   LIG A   1     -13.211   8.513 131.213  0.00  0.00    +0.210 HD
ENDBRANCH  18  22
BRANCH  19  24
ATOM     24  O   LIG A   1     -11.189   5.708 132.651  0.00  0.00    -0.384 OA
ATOM     25  H   LIG A   1     -12.015   6.045 133.052  0.00  0.00    +0.210 HD
ENDBRANCH  19  24
BRANCH  16  26
ATOM     26  C   LIG A   1     -10.888   7.495 127.300  0.00  0.00    +0.190 C 
BRANCH  26  27
ATOM     27  O   LIG A   1     -10.649   6.599 126.219  0.00  0.00    -0.392 OA
ATOM     28  H   LIG A   1      -9.788   6.174 126.399  0.00  0.00    +0.209 HD
ENDBRANCH  26  27
ENDBRANCH  16  26
ENDBRANCH  13  14
ENDBRANCH   4  13
BRANCH   6  29
ATOM     29  C   LIG A   1      -7.403   1.596 129.813  0.00  0.00    +0.129 C 
BRANCH  29  30
ATOM     30  C   LIG A   1      -7.800   0.266 129.201  0.00  0.00    +0.305 C 
ATOM     31  O   LIG A   1      -7.911  -0.769 129.842  0.00  0.00    -0.251 OA
BRANCH  30  32
ATOM     32  O   LIG A   1      -8.067   0.321 127.878  0.00  0.00    -0.481 OA
ATOM     33  H   LIG A   1      -8.577  -0.433 127.526  0.00  0.00    +0.295 HD
ENDBRANCH  30  32
ENDBRANCH  29  30
ENDBRANCH   6  29
TORSDOF 13
ENDMDL
MODEL 2
REMARK VINA RESULT:      -6.1      3.561      5.888
REMARK  Name = NuBBE_335
REMARK  14 active torsions:
REMARK  status: ('A' for Active; 'I' for Inactive)
REMARK    1  A    between atoms: C_2  and  O_3
REMARK    2  A    between atoms: C_2  and  C_5
REMARK    3  A    between atoms: O_3  and  C_4
REMARK    4  A    between atoms: C_8  and  O_10
REMARK    5  A    between atoms: O_10  and  C_11
REMARK    6  A    between atoms: C_14  and  C_16
REMARK    7  A    between atoms: C_16  and  O_17
REMARK    8  A    between atoms: C_18  and  O_20
REMARK    9  A    between atoms: C_21  and  O_23
REMARK   10  A    between atoms: C_24  and  O_26
REMARK   11  A    between atoms: C_27  and  C_28
REMARK   12  A    between atoms: C_31  and  C_33
REMARK   13  A    between atoms: C_33  and  C_34
REMARK   14  A    between atoms: C_34  and  O_35
REMARK                            x       y       z     vdW  Elec       q    Type
REMARK                         _______ _______ _______ _____ _____    ______ ____
ROOT
ATOM      1  C   LIG A   1      -5.176   5.865 133.385  0.00  0.00    +0.075 C 
ATOM      2  C   LIG A   1      -6.194   5.109 132.968  0.00  0.00    +0.201 C 
ATOM      3  O   LIG A   1      -6.530   4.990 131.644  0.00  0.00    -0.470 OA
ATOM      4  C   LIG A   1      -6.486   6.246 130.933  0.00  0.00    +0.316 C 
ATOM      5  C   LIG A   1      -5.199   7.123 131.234  0.00  0.00    +0.088 C 
ATOM      6  C   LIG A   1      -4.293   6.503 132.346  0.00  0.00    +0.052 C 
ENDROOT
BRANCH   1   8
ATOM      7  O   LIG A   1      -3.994   6.125 135.438  0.00  0.00    -0.245 OA
ATOM      8  C   LIG A   1      -5.046   6.077 134.847  0.00  0.00    +0.338 C 
BRANCH   8   9
ATOM      9  O   LIG A   1      -6.294   6.048 135.386  0.00  0.00    -0.465 OA
ATOM     10  C   LIG A   1      -6.385   6.447 136.758  0.00  0.00    +0.280 C 
ENDBRANCH   8   9
ENDBRANCH   1   8
BRANCH   5  11
ATOM     11  C   LIG A   1      -4.438   7.525 129.969  0.00  0.00    -0.025 C 
ATOM     12  C   LIG A   1      -3.781   8.682 129.784  0.00  0.00    +0.004 C 
ENDBRANCH   5  11
BRANCH   4  13
ATOM     13  O   LIG A   1      -7.668   7.026 131.220  0.00  0.00    -0.309 OA
BRANCH  13  14
ATOM     14  C   LIG A   1      -8.855   6.555 130.542  0.00  0.00    +0.286 C 
ATOM     15  O   LIG A   1      -9.289   7.562 129.626  0.00  0.00    -0.340 OA
ATOM     16  C   LIG A   1     -10.540   7.298 128.979  0.00  0.00    +0.178 C 
ATOM     17  C   LIG A   1     -11.663   7.204 130.023  0.00  0.00    +0.177 C 
ATOM     18  C   LIG A   1     -11.337   6.111 131.038  0.00  0.00    +0.179 C 
ATOM     19  C   LIG A   1      -9.932   6.280 131.626  0.00  0.00    +0.201 C 
BRANCH  17  20
ATOM     20  O   LIG A   1     -12.952   6.914 129.467  0.00  0.00    -0.387 OA
ATOM     21  H   LIG A   1     -13.486   7.735 129.552  0.00  0.00    +0.210 HD
ENDBRANCH  17  20
BRANCH  18  22
ATOM     22  O   LIG A   1     -12.297   6.175 132.116  0.00  0.00    -0.386 OA
ATOM     23  H   LIG A   1     -12.678   5.275 132.172  0.00  0.00    +0.210 HD
ENDBRANCH  18  22
BRANCH  19  24
ATOM     24  O   LIG A   1      -9.620   5.110 132.403  0.00  0.00    -0.384 OA
ATOM     25  H   LIG A   1      -9.394   5.450 133.292  0.00  0.00    +0.210 HD
ENDBRANCH  19  24
BRANCH  16  26
ATOM     26  C   LIG A   1     -10.794   8.470 128.016  0.00  0.00    +0.190 C 
BRANCH  26  27
ATOM     27  O   LIG A   1     -11.877   9.286 128.449  0.00  0.00    -0.392 OA
ATOM     28  H   LIG A   1     -12.670   8.964 127.979  0.00  0.00    +0.209 HD
ENDBRANCH  26  27
ENDBRANCH  16  26
ENDBRANCH  13  14
ENDBRANCH   4  13
BRANCH   6  29
ATOM     29  C   LIG A   1      -3.189   5.504 131.918  0.00  0.00    +0.129 C 
BRANCH  29  30
ATOM     30  C   LIG A   1      -1.788   5.712 132.461  0.00  0.00    +0.305 C 
ATOM     31  O   LIG A   1      -0.884   6.234 131.825  0.00  0.00    -0.251 OA
BRANCH  30  32
ATOM     32  O   LIG A   1      -1.622   5.308 133.740  0.00  0.00    -0.481 OA
ATOM     33  H   LIG A   1      -0.933   4.631 133.875  0.00  0.00    +0.295 HD
ENDBRANCH  30  32
ENDBRANCH  29  30
ENDBRANCH   6  29
TORSDOF 13
ENDMDL
MODEL 3
REMARK VINA RESULT:      -6.0      3.073      5.107
REMARK  Name = NuBBE_335
REMARK  14 active torsions:
REMARK  status: ('A' for Active; 'I' for Inactive)
REMARK    1  A    between atoms: C_2  and  O_3
REMARK    2  A    between atoms: C_2  and  C_5
REMARK    3  A    between atoms: O_3  and  C_4
REMARK    4  A    between atoms: C_8  and  O_10
REMARK    5  A    between atoms: O_10  and  C_11
REMARK    6  A    between atoms: C_14  and  C_16
REMARK    7  A    between atoms: C_16  and  O_17
REMARK    8  A    between atoms: C_18  and  O_20
REMARK    9  A    between atoms: C_21  and  O_23
REMARK   10  A    between atoms: C_24  and  O_26
REMARK   11  A    between atoms: C_27  and  C_28
REMARK   12  A    between atoms: C_31  and  C_33
REMARK   13  A    between atoms: C_33  and  C_34
REMARK   14  A    between atoms: C_34  and  O_35
REMARK                            x       y       z     vdW  Elec       q    Type
REMARK                         _______ _______ _______ _____ _____    ______ ____
ROOT
ATOM      1  C   LIG A   1      -3.409   5.143 129.693  0.00  0.00    +0.075 C 
ATOM      2  C   LIG A   1      -4.209   4.686 130.659  0.00  0.00    +0.201 C 
ATOM      3  O   LIG A   1      -5.326   3.936 130.397  0.00  0.00    -0.470 OA
ATOM      4  C   LIG A   1      -6.091   4.430 129.276  0.00  0.00    +0.316 C 
ATOM      5  C   LIG A   1      -5.218   4.818 128.011  0.00  0.00    +0.088 C 
ATOM      6  C   LIG A   1      -3.683   4.707 128.279  0.00  0.00    +0.052 C 
ENDROOT
BRANCH   1   8
ATOM      7  O   LIG A   1      -1.515   6.546 129.341  0.00  0.00    -0.245 OA
ATOM      8  C   LIG A   1      -2.358   6.112 130.088  0.00  0.00    +0.338 C 
BRANCH   8   9
ATOM      9  O   LIG A   1      -2.433   6.285 131.435  0.00  0.00    -0.465 OA
ATOM     10  C   LIG A   1      -2.559   7.640 131.879  0.00  0.00    +0.280 C 
ENDBRANCH   8   9
ENDBRANCH   1   8
BRANCH   5  11
ATOM     11  C   LIG A   1      -5.675   4.117 126.729  0.00  0.00    -0.025 C 
ATOM     12  C   LIG A   1      -5.720   4.670 125.506  0.00  0.00    +0.004 C 
ENDBRANCH   5  11
BRANCH   4  13
ATOM     13  O   LIG A   1      -6.882   5.572 129.674  0.00  0.00    -0.309 OA
BRANCH  13  14
ATOM     14  C   LIG A   1      -8.191   5.224 130.180  0.00  0.00    +0.286 C 
ATOM     15  O   LIG A   1      -9.173   5.979 129.467  0.00  0.00    -0.340 OA
ATOM     16  C   LIG A   1     -10.513   5.848 129.955  0.00  0.00    +0.178 C 
ATOM     17  C   LIG A   1     -10.601   6.356 131.402  0.00  0.00    +0.177 C 
ATOM     18  C   LIG A   1      -9.626   5.580 132.283  0.00  0.00    +0.179 C 
ATOM     19  C   LIG A   1      -8.211   5.568 131.694  0.00  0.00    +0.201 C 
BRANCH  17  20
ATOM     20  O   LIG A   1     -11.905   6.239 131.983  0.00  0.00    -0.387 OA
ATOM     21  H   LIG A   1     -12.546   6.248 131.239  0.00  0.00    +0.210 HD
ENDBRANCH  17  20
BRANCH  18  22
ATOM     22  O   LIG A   1      -9.576   6.204 133.585  0.00  0.00    -0.386 OA
ATOM     23  H   LIG A   1     -10.462   6.053 133.975  0.00  0.00    +0.210 HD
ENDBRANCH  18  22
BRANCH  19  24
ATOM     24  O   LIG A   1      -7.407   4.651 132.459  0.00  0.00    -0.384 OA
ATOM     25  H   LIG A   1      -6.482   4.880 132.237  0.00  0.00    +0.210 HD
ENDBRANCH  19  24
BRANCH  16  26
ATOM     26  C   LIG A   1     -11.404   6.695 129.030  0.00  0.00    +0.190 C 
BRANCH  26  27
ATOM     27  O   LIG A   1     -11.801   7.914 129.648  0.00  0.00    -0.392 OA
ATOM     28  H   LIG A   1     -11.400   8.634 129.123  0.00  0.00    +0.209 HD
ENDBRANCH  26  27
ENDBRANCH  16  26
ENDBRANCH  13  14
ENDBRANCH   4  13
BRANCH   6  29
ATOM     29  C   LIG A   1      -2.989   3.348 128.011  0.00  0.00    +0.129 C 
BRANCH  29  30
ATOM     30  C   LIG A   1      -2.098   3.229 126.790  0.00  0.00    +0.305 C 
ATOM     31  O   LIG A   1      -2.272   3.860 125.758  0.00  0.00    -0.251 OA
BRANCH  30  32
ATOM     32  O   LIG A   1      -1.051   2.388 126.946  0.00  0.00    -0.481 OA
ATOM     33  H   LIG A   1      -1.151   1.728 127.656  0.00  0.00    +0.295 HD
ENDBRANCH  30  32
ENDBRANCH  29  30
ENDBRANCH   6  29
TORSDOF 13
ENDMDL
MODEL 4
REMARK VINA RESULT:      -5.9      2.186      2.528
REMARK  Name = NuBBE_335
REMARK  14 active torsions:
REMARK  status: ('A' for Active; 'I' for Inactive)
REMARK    1  A    between atoms: C_2  and  O_3
REMARK    2  A    between atoms: C_2  and  C_5
REMARK    3  A    between atoms: O_3  and  C_4
REMARK    4  A    between atoms: C_8  and  O_10
REMARK    5  A    between atoms: O_10  and  C_11
REMARK    6  A    between atoms: C_14  and  C_16
REMARK    7  A    between atoms: C_16  and  O_17
REMARK    8  A    between atoms: C_18  and  O_20
REMARK    9  A    between atoms: C_21  and  O_23
REMARK   10  A    between atoms: C_24  and  O_26
REMARK   11  A    between atoms: C_27  and  C_28
REMARK   12  A    between atoms: C_31  and  C_33
REMARK   13  A    between atoms: C_33  and  C_34
REMARK   14  A    between atoms: C_34  and  O_35
REMARK                            x       y       z     vdW  Elec       q    Type
REMARK                         _______ _______ _______ _____ _____    ______ ____
ROOT
ATOM      1  C   LIG A   1      -5.486   5.118 130.251  0.00  0.00    +0.075 C 
ATOM      2  C   LIG A   1      -5.405   6.173 131.065  0.00  0.00    +0.201 C 
ATOM      3  O   LIG A   1      -6.103   6.252 132.242  0.00  0.00    -0.470 OA
ATOM      4  C   LIG A   1      -7.465   5.785 132.126  0.00  0.00    +0.316 C 
ATOM      5  C   LIG A   1      -7.622   4.423 131.328  0.00  0.00    +0.088 C 
ATOM      6  C   LIG A   1      -6.275   3.924 130.715  0.00  0.00    +0.052 C 
ENDROOT
BRANCH   1   8
ATOM      7  O   LIG A   1      -4.589   4.311 128.196  0.00  0.00    -0.245 OA
ATOM      8  C   LIG A   1      -4.850   5.243 128.918  0.00  0.00    +0.338 C 
BRANCH   8   9
ATOM      9  O   LIG A   1      -4.493   6.544 128.744  0.00  0.00    -0.465 OA
ATOM     10  C   LIG A   1      -3.203   6.760 128.162  0.00  0.00    +0.280 C 
ENDBRANCH   8   9
ENDBRANCH   1   8
BRANCH   5  11
ATOM     11  C   LIG A   1      -8.379   3.351 132.115  0.00  0.00    -0.025 C 
ATOM     12  C   LIG A   1      -8.499   3.298 133.452  0.00  0.00    +0.004 C 
ENDBRANCH   5  11
BRANCH   4  13
ATOM     13  O   LIG A   1      -8.290   6.795 131.504  0.00  0.00    -0.309 OA
BRANCH  13  14
ATOM     14  C   LIG A   1      -9.425   6.259 130.787  0.00  0.00    +0.286 C 
ATOM     15  O   LIG A   1      -9.479   6.867 129.495  0.00  0.00    -0.340 OA
ATOM     16  C   LIG A   1     -10.636   6.540 128.717  0.00  0.00    +0.178 C 
ATOM     17  C   LIG A   1     -11.907   7.022 129.432  0.00  0.00    +0.177 C 
ATOM     18  C   LIG A   1     -11.991   6.391 130.819  0.00  0.00    +0.179 C 
ATOM     19  C   LIG A   1     -10.697   6.588 131.615  0.00  0.00    +0.201 C 
BRANCH  17  20
ATOM     20  O   LIG A   1     -13.121   6.713 128.736  0.00  0.00    -0.387 OA
ATOM     21  H   LIG A   1     -13.697   6.237 129.373  0.00  0.00    +0.210 HD
ENDBRANCH  17  20
BRANCH  18  22
ATOM     22  O   LIG A   1     -13.076   7.009 131.547  0.00  0.00    -0.386 OA
ATOM     23  H   LIG A   1     -13.222   7.871 131.105  0.00  0.00    +0.210 HD
ENDBRANCH  18  22
BRANCH  19  24
ATOM     24  O   LIG A   1     -10.773   5.793 132.813  0.00  0.00    -0.384 OA
ATOM     25  H   LIG A   1     -10.913   4.878 132.499  0.00  0.00    +0.210 HD
ENDBRANCH  19  24
BRANCH  16  26
ATOM     26  C   LIG A   1     -10.474   7.254 127.363  0.00  0.00    +0.190 C 
BRANCH  26  27
ATOM     27  O   LIG A   1     -11.220   6.613 126.334  0.00  0.00    -0.392 OA
ATOM     28  H   LIG A   1     -10.569   6.171 125.755  0.00  0.00    +0.209 HD
ENDBRANCH  26  27
ENDBRANCH  16  26
ENDBRANCH  13  14
ENDBRANCH   4  13
BRANCH   6  29
ATOM     29  C   LIG A   1      -5.373   3.007 131.578  0.00  0.00    +0.129 C 
BRANCH  29  30
ATOM     30  C   LIG A   1      -4.873   1.713 130.965  0.00  0.00    +0.305 C 
ATOM     31  O   LIG A   1      -5.194   0.604 131.366  0.00  0.00    -0.251 OA
BRANCH  30  32
ATOM     32  O   LIG A   1      -4.063   1.881 129.896  0.00  0.00    -0.481 OA
ATOM     33  H   LIG A   1      -3.672   2.770 129.807  0.00  0.00    +0.295 HD
ENDBRANCH  30  32
ENDBRANCH  29  30
ENDBRANCH   6  29
TORSDOF 13
ENDMDL
MODEL 5
REMARK VINA RESULT:      -5.8      4.576      7.602
REMARK  Name = NuBBE_335
REMARK  14 active torsions:
REMARK  status: ('A' for Active; 'I' for Inactive)
REMARK    1  A    between atoms: C_2  and  O_3
REMARK    2  A    between atoms: C_2  and  C_5
REMARK    3  A    between atoms: O_3  and  C_4
REMARK    4  A    between atoms: C_8  and  O_10
REMARK    5  A    between atoms: O_10  and  C_11
REMARK    6  A    between atoms: C_14  and  C_16
REMARK    7  A    between atoms: C_16  and  O_17
REMARK    8  A    between atoms: C_18  and  O_20
REMARK    9  A    between atoms: C_21  and  O_23
REMARK   10  A    between atoms: C_24  and  O_26
REMARK   11  A    between atoms: C_27  and  C_28
REMARK   12  A    between atoms: C_31  and  C_33
REMARK   13  A    between atoms: C_33  and  C_34
REMARK   14  A    between atoms: C_34  and  O_35
REMARK                            x       y       z     vdW  Elec       q    Type
REMARK                         _______ _______ _______ _____ _____    ______ ____
ROOT
ATOM      1  C   LIG A   1      -6.574  -1.405 123.968  0.00  0.00    +0.075 C 
ATOM      2  C   LIG A   1      -6.068  -0.689 124.975  0.00  0.00    +0.201 C 
ATOM      3  O   LIG A   1      -6.733   0.371 125.533  0.00  0.00    -0.470 OA
ATOM      4  C   LIG A   1      -7.369   1.222 124.555  0.00  0.00    +0.316 C 
ATOM      5  C   LIG A   1      -8.158   0.439 123.423  0.00  0.00    +0.088 C 
ATOM      6  C   LIG A   1      -7.982  -1.109 123.525  0.00  0.00    +0.052 C 
ENDROOT
BRANCH   1   8
ATOM      7  O   LIG A   1      -5.506  -2.471 122.124  0.00  0.00    -0.245 OA
ATOM      8  C   LIG A   1      -5.673  -2.386 123.317  0.00  0.00    +0.338 C 
BRANCH   8   9
ATOM      9  O   LIG A   1      -5.214  -3.234 124.276  0.00  0.00    -0.465 OA
ATOM     10  C   LIG A   1      -4.473  -4.363 123.801  0.00  0.00    +0.280 C 
ENDBRANCH   8   9
ENDBRANCH   1   8
BRANCH   5  11
ATOM     11  C   LIG A   1      -9.615   0.888 123.289  0.00  0.00    -0.025 C 
ATOM     12  C   LIG A   1     -10.343   1.486 124.246  0.00  0.00    +0.004 C 
ENDBRANCH   5  11
BRANCH   4  13
ATOM     13  O   LIG A   1      -6.393   2.090 123.936  0.00  0.00    -0.309 OA
BRANCH  13  14
ATOM     14  C   LIG A   1      -6.035   3.233 124.746  0.00  0.00    +0.286 C 
ATOM     15  O   LIG A   1      -5.036   2.833 125.686  0.00  0.00    -0.340 OA
ATOM     16  C   LIG A   1      -4.681   3.825 126.656  0.00  0.00    +0.178 C 
ATOM     17  C   LIG A   1      -5.904   4.188 127.512  0.00  0.00    +0.177 C 
ATOM     18  C   LIG A   1      -7.034   4.687 126.615  0.00  0.00    +0.179 C 
ATOM     19  C   LIG A   1      -7.323   3.713 125.468  0.00  0.00    +0.201 C 
BRANCH  17  20
ATOM     20  O   LIG A   1      -5.648   5.197 128.496  0.00  0.00    -0.387 OA
ATOM     21  H   LIG A   1      -5.064   5.863 128.071  0.00  0.00    +0.210 HD
ENDBRANCH  17  20
BRANCH  18  22
ATOM     22  O   LIG A   1      -8.232   4.828 127.410  0.00  0.00    -0.386 OA
ATOM     23  H   LIG A   1      -8.284   4.007 127.942  0.00  0.00    +0.210 HD
ENDBRANCH  18  22
BRANCH  19  24
ATOM     24  O   LIG A   1      -8.241   4.344 124.556  0.00  0.00    -0.384 OA
ATOM     25  H   LIG A   1      -7.752   4.411 123.712  0.00  0.00    +0.210 HD
ENDBRANCH  19  24
BRANCH  16  26
ATOM     26  C   LIG A   1      -3.572   3.211 127.529  0.00  0.00    +0.190 C 
BRANCH  26  27
ATOM     27  O   LIG A   1      -3.051   4.152 128.462  0.00  0.00    -0.392 OA
ATOM     28  H   LIG A   1      -3.543   4.984 128.319  0.00  0.00    +0.209 HD
ENDBRANCH  26  27
ENDBRANCH  16  26
ENDBRANCH  13  14
ENDBRANCH   4  13
BRANCH   6  29
ATOM     29  C   LIG A   1      -8.980  -1.904 124.404  0.00  0.00    +0.129 C 
BRANCH  29  30
ATOM     30  C   LIG A   1      -9.157  -3.384 124.124  0.00  0.00    +0.305 C 
ATOM     31  O   LIG A   1      -8.427  -4.253 124.578  0.00  0.00    -0.251 OA
BRANCH  30  32
ATOM     32  O   LIG A   1     -10.229  -3.681 123.356  0.00  0.00    -0.481 OA
ATOM     33  H   LIG A   1     -10.971  -4.105 123.826  0.00  0.00    +0.295 HD
ENDBRANCH  30  32
ENDBRANCH  29  30
ENDBRANCH   6  29
TORSDOF 13
ENDMDL
MODEL 6
REMARK VINA RESULT:      -5.8      2.586      4.388
REMARK  Name = NuBBE_335
REMARK  14 active torsions:
REMARK  status: ('A' for Active; 'I' for Inactive)
REMARK    1  A    between atoms: C_2  and  O_3
REMARK    2  A    between atoms: C_2  and  C_5
REMARK    3  A    between atoms: O_3  and  C_4
REMARK    4  A    between atoms: C_8  and  O_10
REMARK    5  A    between atoms: O_10  and  C_11
REMARK    6  A    between atoms: C_14  and  C_16
REMARK    7  A    between atoms: C_16  and  O_17
REMARK    8  A    between atoms: C_18  and  O_20
REMARK    9  A    between atoms: C_21  and  O_23
REMARK   10  A    between atoms: C_24  and  O_26
REMARK   11  A    between atoms: C_27  and  C_28
REMARK   12  A    between atoms: C_31  and  C_33
REMARK   13  A    between atoms: C_33  and  C_34
REMARK   14  A    between atoms: C_34  and  O_35
REMARK                            x       y       z     vdW  Elec       q    Type
REMARK                         _______ _______ _______ _____ _____    ______ ____
ROOT
ATOM      1  C   LIG A   1      -8.546   1.157 125.972  0.00  0.00    +0.075 C 
ATOM      2  C   LIG A   1      -8.113   2.419 126.021  0.00  0.00    +0.201 C 
ATOM      3  O   LIG A   1      -7.382   2.907 127.073  0.00  0.00    -0.470 OA
ATOM      4  C   LIG A   1      -7.877   2.474 128.358  0.00  0.00    +0.316 C 
ATOM      5  C   LIG A   1      -8.235   0.931 128.434  0.00  0.00    +0.088 C 
ATOM      6  C   LIG A   1      -8.099   0.211 127.054  0.00  0.00    +0.052 C 
ENDROOT
BRANCH   1   8
ATOM      7  O   LIG A   1     -10.235   1.603 124.351  0.00  0.00    -0.245 OA
ATOM      8  C   LIG A   1      -9.499   0.812 124.890  0.00  0.00    +0.338 C 
BRANCH   8   9
ATOM      9  O   LIG A   1      -9.492  -0.540 124.742  0.00  0.00    -0.465 OA
ATOM     10  C   LIG A   1      -9.021  -1.022 123.479  0.00  0.00    +0.280 C 
ENDBRANCH   8   9
ENDBRANCH   1   8
BRANCH   5  11
ATOM     11  C   LIG A   1      -7.529   0.207 129.582  0.00  0.00    -0.025 C 
ATOM     12  C   LIG A   1      -8.087  -0.132 130.756  0.00  0.00    +0.004 C 
ENDBRANCH   5  11
BRANCH   4  13
ATOM     13  O   LIG A   1      -9.038   3.249 128.734  0.00  0.00    -0.309 OA
BRANCH  13  14
ATOM     14  C   LIG A   1      -8.771   4.235 129.758  0.00  0.00    +0.286 C 
ATOM     15  O   LIG A   1      -8.872   3.606 131.037  0.00  0.00    -0.340 OA
ATOM     16  C   LIG A   1      -8.773   4.491 132.159  0.00  0.00    +0.178 C 
ATOM     17  C   LIG A   1      -9.922   5.511 132.130  0.00  0.00    +0.177 C 
ATOM     18  C   LIG A   1      -9.887   6.292 130.820  0.00  0.00    +0.179 C 
ATOM     19  C   LIG A   1      -9.827   5.363 129.603  0.00  0.00    +0.201 C 
BRANCH  17  20
ATOM     20  O   LIG A   1      -9.889   6.457 133.205  0.00  0.00    -0.387 OA
ATOM     21  H   LIG A   1     -10.391   6.056 133.948  0.00  0.00    +0.210 HD
ENDBRANCH  17  20
BRANCH  18  22
ATOM     22  O   LIG A   1     -11.084   7.096 130.725  0.00  0.00    -0.386 OA
ATOM     23  H   LIG A   1     -10.973   7.801 131.396  0.00  0.00    +0.210 HD
ENDBRANCH  18  22
BRANCH  19  24
ATOM     24  O   LIG A   1      -9.585   6.163 128.430  0.00  0.00    -0.384 OA
ATOM     25  H   LIG A   1      -8.962   5.636 127.891  0.00  0.00    +0.210 HD
ENDBRANCH  19  24
BRANCH  16  26
ATOM     26  C   LIG A   1      -8.861   3.614 133.420  0.00  0.00    +0.190 C 
BRANCH  26  27
ATOM     27  O   LIG A   1     -10.089   3.804 134.114  0.00  0.00    -0.392 OA
ATOM     28  H   LIG A   1     -10.644   4.369 133.542  0.00  0.00    +0.209 HD
ENDBRANCH  26  27
ENDBRANCH  16  26
ENDBRANCH  13  14
ENDBRANCH   4  13
BRANCH   6  29
ATOM     29  C   LIG A   1      -6.725  -0.396 126.678  0.00  0.00    +0.129 C 
BRANCH  29  30
ATOM     30  C   LIG A   1      -6.669  -1.868 126.314  0.00  0.00    +0.305 C 
ATOM     31  O   LIG A   1      -5.648  -2.443 125.968  0.00  0.00    -0.251 OA
BRANCH  30  32
ATOM     32  O   LIG A   1      -7.847  -2.518 126.445  0.00  0.00    -0.481 OA
ATOM     33  H   LIG A   1      -7.794  -3.489 126.379  0.00  0.00    +0.295 HD
ENDBRANCH  30  32
ENDBRANCH  29  30
ENDBRANCH   6  29
TORSDOF 13
ENDMDL
MODEL 7
REMARK VINA RESULT:      -5.8      5.137      7.960
REMARK  Name = NuBBE_335
REMARK  14 active torsions:
REMARK  status: ('A' for Active; 'I' for Inactive)
REMARK    1  A    between atoms: C_2  and  O_3
REMARK    2  A    between atoms: C_2  and  C_5
REMARK    3  A    between atoms: O_3  and  C_4
REMARK    4  A    between atoms: C_8  and  O_10
REMARK    5  A    between atoms: O_10  and  C_11
REMARK    6  A    between atoms: C_14  and  C_16
REMARK    7  A    between atoms: C_16  and  O_17
REMARK    8  A    between atoms: C_18  and  O_20
REMARK    9  A    between atoms: C_21  and  O_23
REMARK   10  A    between atoms: C_24  and  O_26
REMARK   11  A    between atoms: C_27  and  C_28
REMARK   12  A    between atoms: C_31  and  C_33
REMARK   13  A    between atoms: C_33  and  C_34
REMARK   14  A    between atoms: C_34  and  O_35
REMARK                            x       y       z     vdW  Elec       q    Type
REMARK                         _______ _______ _______ _____ _____    ______ ____
ROOT
ATOM      1  C   LIG A   1      -6.791  -1.724 129.192  0.00  0.00    +0.075 C 
ATOM      2  C   LIG A   1      -7.870  -2.482 128.982  0.00  0.00    +0.201 C 
ATOM      3  O   LIG A   1      -8.051  -3.203 127.831  0.00  0.00    -0.470 OA
ATOM      4  C   LIG A   1      -7.685  -2.473 126.640  0.00  0.00    +0.316 C 
ATOM      5  C   LIG A   1      -6.308  -1.694 126.748  0.00  0.00    +0.088 C 
ATOM      6  C   LIG A   1      -5.681  -1.772 128.177  0.00  0.00    +0.052 C 
ENDROOT
BRANCH   1   8
ATOM      7  O   LIG A   1      -5.890  -0.132 130.720  0.00  0.00    -0.245 OA
ATOM      8  C   LIG A   1      -6.811  -0.834 130.378  0.00  0.00    +0.338 C 
BRANCH   8   9
ATOM      9  O   LIG A   1      -7.963  -1.073 131.061  0.00  0.00    -0.465 OA
ATOM     10  C   LIG A   1      -7.840  -1.115 132.487  0.00  0.00    +0.280 C 
ENDBRANCH   8   9
ENDBRANCH   1   8
BRANCH   5  11
ATOM     11  C   LIG A   1      -5.331  -2.045 125.624  0.00  0.00    -0.025 C 
ATOM     12  C   LIG A   1      -5.562  -2.916 124.628  0.00  0.00    +0.004 C 
ENDBRANCH   5  11
BRANCH   4  13
ATOM     13  O   LIG A   1      -8.730  -1.539 126.285  0.00  0.00    -0.309 OA
BRANCH  13  14
ATOM     14  C   LIG A   1      -8.380  -0.665 125.187  0.00  0.00    +0.286 C 
ATOM     15  O   LIG A   1      -8.270   0.671 125.683  0.00  0.00    -0.340 OA
ATOM     16  C   LIG A   1      -8.067   1.676 124.682  0.00  0.00    +0.178 C 
ATOM     17  C   LIG A   1      -9.262   1.710 123.718  0.00  0.00    +0.177 C 
ATOM     18  C   LIG A   1      -9.449   0.338 123.076  0.00  0.00    +0.179 C 
ATOM     19  C   LIG A   1      -9.506  -0.779 124.125  0.00  0.00    +0.201 C 
BRANCH  17  20
ATOM     20  O   LIG A   1      -9.133   2.672 122.664  0.00  0.00    -0.387 OA
ATOM     21  H   LIG A   1      -9.930   2.577 122.097  0.00  0.00    +0.210 HD
ENDBRANCH  17  20
BRANCH  18  22
ATOM     22  O   LIG A   1     -10.689   0.335 122.335  0.00  0.00    -0.386 OA
ATOM     23  H   LIG A   1     -10.939  -0.609 122.258  0.00  0.00    +0.210 HD
ENDBRANCH  18  22
BRANCH  19  24
ATOM     24  O   LIG A   1      -9.469  -2.046 123.443  0.00  0.00    -0.384 OA
ATOM     25  H   LIG A   1     -10.308  -2.487 123.686  0.00  0.00    +0.210 HD
ENDBRANCH  19  24
BRANCH  16  26
ATOM     26  C   LIG A   1      -7.933   3.017 125.425  0.00  0.00    +0.190 C 
BRANCH  26  27
ATOM     27  O   LIG A   1      -9.024   3.888 125.145  0.00  0.00    -0.392 OA
ATOM     28  H   LIG A   1      -9.836   3.359 125.258  0.00  0.00    +0.209 HD
ENDBRANCH  26  27
ENDBRANCH  16  26
ENDBRANCH  13  14
ENDBRANCH   4  13
BRANCH   6  29
ATOM     29  C   LIG A   1      -4.735  -2.957 128.498  0.00  0.00    +0.129 C 
BRANCH  29  30
ATOM     30  C   LIG A   1      -3.614  -2.726 129.493  0.00  0.00    +0.305 C 
ATOM     31  O   LIG A   1      -2.977  -3.628 130.019  0.00  0.00    -0.251 OA
BRANCH  30  32
ATOM     32  O   LIG A   1      -3.336  -1.424 129.727  0.00  0.00    -0.481 OA
ATOM     33  H   LIG A   1      -3.231  -0.873 128.929  0.00  0.00    +0.295 HD
ENDBRANCH  30  32
ENDBRANCH  29  30
ENDBRANCH   6  29
TORSDOF 13
ENDMDL
MODEL 8
REMARK VINA RESULT:      -5.7      3.545      6.791
REMARK  Name = NuBBE_335
REMARK  14 active torsions:
REMARK  status: ('A' for Active; 'I' for Inactive)
REMARK    1  A    between atoms: C_2  and  O_3
REMARK    2  A    between atoms: C_2  and  C_5
REMARK    3  A    between atoms: O_3  and  C_4
REMARK    4  A    between atoms: C_8  and  O_10
REMARK    5  A    between atoms: O_10  and  C_11
REMARK    6  A    between atoms: C_14  and  C_16
REMARK    7  A    between atoms: C_16  and  O_17
REMARK    8  A    between atoms: C_18  and  O_20
REMARK    9  A    between atoms: C_21  and  O_23
REMARK   10  A    between atoms: C_24  and  O_26
REMARK   11  A    between atoms: C_27  and  C_28
REMARK   12  A    between atoms: C_31  and  C_33
REMARK   13  A    between atoms: C_33  and  C_34
REMARK   14  A    between atoms: C_34  and  O_35
REMARK                            x       y       z     vdW  Elec       q    Type
REMARK                         _______ _______ _______ _____ _____    ______ ____
ROOT
ATOM      1  C   LIG A   1      -7.691  -0.106 125.454  0.00  0.00    +0.075 C 
ATOM      2  C   LIG A   1      -6.370  -0.046 125.639  0.00  0.00    +0.201 C 
ATOM      3  O   LIG A   1      -5.649  -1.096 126.145  0.00  0.00    -0.470 OA
ATOM      4  C   LIG A   1      -6.303  -1.753 127.252  0.00  0.00    +0.316 C 
ATOM      5  C   LIG A   1      -7.847  -2.032 127.026  0.00  0.00    +0.088 C 
ATOM      6  C   LIG A   1      -8.382  -1.421 125.691  0.00  0.00    +0.052 C 
ENDROOT
BRANCH   1   8
ATOM      7  O   LIG A   1      -9.153   1.738 125.826  0.00  0.00    -0.245 OA
ATOM      8  C   LIG A   1      -8.381   1.158 125.101  0.00  0.00    +0.338 C 
BRANCH   8   9
ATOM      9  O   LIG A   1      -8.104   1.438 123.799  0.00  0.00    -0.465 OA
ATOM     10  C   LIG A   1      -9.090   2.213 123.109  0.00  0.00    +0.280 C 
ENDBRANCH   8   9
ENDBRANCH   1   8
BRANCH   5  11
ATOM     11  C   LIG A   1      -8.228  -3.500 127.230  0.00  0.00    -0.025 C 
ATOM     12  C   LIG A   1      -9.164  -3.957 128.078  0.00  0.00    +0.004 C 
ENDBRANCH   5  11
BRANCH   4  13
ATOM     13  O   LIG A   1      -6.134  -0.982 128.463  0.00  0.00    -0.309 OA
BRANCH  13  14
ATOM     14  C   LIG A   1      -7.381  -0.559 129.061  0.00  0.00    +0.286 C 
ATOM     15  O   LIG A   1      -7.492   0.860 128.929  0.00  0.00    -0.340 OA
ATOM     16  C   LIG A   1      -8.613   1.447 129.602  0.00  0.00    +0.178 C 
ATOM     17  C   LIG A   1      -8.510   1.198 131.114  0.00  0.00    +0.177 C 
ATOM     18  C   LIG A   1      -8.438  -0.301 131.389  0.00  0.00    +0.179 C 
ATOM     19  C   LIG A   1      -7.349  -0.983 130.554  0.00  0.00    +0.201 C 
BRANCH  17  20
ATOM     20  O   LIG A   1      -9.606   1.730 131.868  0.00  0.00    -0.387 OA
ATOM     21  H   LIG A   1     -10.421   1.537 131.354  0.00  0.00    +0.210 HD
ENDBRANCH  17  20
BRANCH  18  22
ATOM     22  O   LIG A   1      -8.140  -0.506 132.788  0.00  0.00    -0.386 OA
ATOM     23  H   LIG A   1      -7.562   0.245 133.038  0.00  0.00    +0.210 HD
ENDBRANCH  18  22
BRANCH  19  24
ATOM     24  O   LIG A   1      -7.483  -2.408 130.706  0.00  0.00    -0.384 OA
ATOM     25  H   LIG A   1      -7.172  -2.595 131.614  0.00  0.00    +0.210 HD
ENDBRANCH  19  24
BRANCH  16  26
ATOM     26  C   LIG A   1      -8.569   2.955 129.298  0.00  0.00    +0.190 C 
BRANCH  26  27
ATOM     27  O   LIG A   1      -9.805   3.592 129.601  0.00  0.00    -0.392 OA
ATOM     28  H   LIG A   1      -9.596   4.325 130.211  0.00  0.00    +0.209 HD
ENDBRANCH  26  27
ENDBRANCH  16  26
ENDBRANCH  13  14
ENDBRANCH   4  13
BRANCH   6  29
ATOM     29  C   LIG A   1      -8.307  -2.286 124.408  0.00  0.00    +0.129 C 
BRANCH  29  30
ATOM     30  C   LIG A   1      -9.496  -2.273 123.467  0.00  0.00    +0.305 C 
ATOM     31  O   LIG A   1      -9.836  -1.296 122.815  0.00  0.00    -0.251 OA
BRANCH  30  32
ATOM     32  O   LIG A   1     -10.140  -3.457 123.367  0.00  0.00    -0.481 OA
ATOM     33  H   LIG A   1     -10.993  -3.427 122.895  0.00  0.00    +0.295 HD
ENDBRANCH  30  32
ENDBRANCH  29  30
ENDBRANCH   6  29
TORSDOF 13
ENDMDL
MODEL 9
REMARK VINA RESULT:      -5.7      5.127      7.932
REMARK  Name = NuBBE_335
REMARK  14 active torsions:
REMARK  status: ('A' for Active; 'I' for Inactive)
REMARK    1  A    between atoms: C_2  and  O_3
REMARK    2  A    between atoms: C_2  and  C_5
REMARK    3  A    between atoms: O_3  and  C_4
REMARK    4  A    between atoms: C_8  and  O_10
REMARK    5  A    between atoms: O_10  and  C_11
REMARK    6  A    between atoms: C_14  and  C_16
REMARK    7  A    between atoms: C_16  and  O_17
REMARK    8  A    between atoms: C_18  and  O_20
REMARK    9  A    between atoms: C_21  and  O_23
REMARK   10  A    between atoms: C_24  and  O_26
REMARK   11  A    between atoms: C_27  and  C_28
REMARK   12  A    between atoms: C_31  and  C_33
REMARK   13  A    between atoms: C_33  and  C_34
REMARK   14  A    between atoms: C_34  and  O_35
REMARK                            x       y       z     vdW  Elec       q    Type
REMARK                         _______ _______ _______ _____ _____    ______ ____
ROOT
ATOM      1  C   LIG A   1      -7.472   3.106 123.854  0.00  0.00    +0.075 C 
ATOM      2  C   LIG A   1      -8.439   3.465 124.702  0.00  0.00    +0.201 C 
ATOM      3  O   LIG A   1      -8.285   3.405 126.062  0.00  0.00    -0.470 OA
ATOM      4  C   LIG A   1      -7.620   2.202 126.506  0.00  0.00    +0.316 C 
ATOM      5  C   LIG A   1      -6.339   1.813 125.657  0.00  0.00    +0.088 C 
ATOM      6  C   LIG A   1      -6.126   2.747 124.423  0.00  0.00    +0.052 C 
ENDROOT
BRANCH   1   8
ATOM      7  O   LIG A   1      -8.961   2.906 122.004  0.00  0.00    -0.245 OA
ATOM      8  C   LIG A   1      -7.832   3.017 122.418  0.00  0.00    +0.338 C 
BRANCH   8   9
ATOM      9  O   LIG A   1      -6.679   2.931 121.702  0.00  0.00    -0.465 OA
ATOM     10  C   LIG A   1      -6.514   3.914 120.674  0.00  0.00    +0.280 C 
ENDBRANCH   8   9
ENDBRANCH   1   8
BRANCH   5  11
ATOM     11  C   LIG A   1      -5.086   1.625 126.514  0.00  0.00    -0.025 C 
ATOM     12  C   LIG A   1      -5.031   1.712 127.853  0.00  0.00    +0.004 C 
ENDBRANCH   5  11
BRANCH   4  13
ATOM     13  O   LIG A   1      -8.544   1.091 126.506  0.00  0.00    -0.309 OA
BRANCH  13  14
ATOM     14  C   LIG A   1      -8.177   0.031 125.593  0.00  0.00    +0.286 C 
ATOM     15  O   LIG A   1      -9.059   0.069 124.469  0.00  0.00    -0.340 OA
ATOM     16  C   LIG A   1      -8.910  -1.012 123.542  0.00  0.00    +0.178 C 
ATOM     17  C   LIG A   1      -9.215  -2.348 124.236  0.00  0.00    +0.177 C 
ATOM     18  C   LIG A   1      -8.289  -2.532 125.435  0.00  0.00    +0.179 C 
ATOM     19  C   LIG A   1      -8.308  -1.312 126.362  0.00  0.00    +0.201 C 
BRANCH  17  20
ATOM     20  O   LIG A   1      -9.066  -3.493 123.388  0.00  0.00    -0.387 OA
ATOM     21  H   LIG A   1      -9.799  -3.457 122.735  0.00  0.00    +0.210 HD
ENDBRANCH  17  20
BRANCH  18  22
ATOM     22  O   LIG A   1      -8.724  -3.686 126.187  0.00  0.00    -0.386 OA
ATOM     23  H   LIG A   1      -8.934  -3.345 127.081  0.00  0.00    +0.210 HD
ENDBRANCH  18  22
BRANCH  19  24
ATOM     24  O   LIG A   1      -7.265  -1.468 127.342  0.00  0.00    -0.384 OA
ATOM     25  H   LIG A   1      -7.543  -0.914 128.098  0.00  0.00    +0.210 HD
ENDBRANCH  19  24
BRANCH  16  26
ATOM     26  C   LIG A   1      -9.909  -0.755 122.401  0.00  0.00    +0.190 C 
BRANCH  26  27
ATOM     27  O   LIG A   1     -10.631   0.457 122.592  0.00  0.00    -0.392 OA
ATOM     28  H   LIG A   1     -11.503   0.328 122.173  0.00  0.00    +0.209 HD
ENDBRANCH  26  27
ENDBRANCH  16  26
ENDBRANCH  13  14
ENDBRANCH   4  13
BRANCH   6  29
ATOM     29  C   LIG A   1      -5.284   4.033 124.614  0.00  0.00    +0.129 C 
BRANCH  29  30
ATOM     30  C   LIG A   1      -5.792   5.083 125.584  0.00  0.00    +0.305 C 
ATOM     31  O   LIG A   1      -5.517   5.096 126.775  0.00  0.00    -0.251 OA
BRANCH  30  32
ATOM     32  O   LIG A   1      -6.552   6.045 125.015  0.00  0.00    -0.481 OA
ATOM     33  H   LIG A   1      -6.891   5.832 124.125  0.00  0.00    +0.295 HD
ENDBRANCH  30  32
ENDBRANCH  29  30
ENDBRANCH   6  29
TORSDOF 13
ENDMDL
