MODEL 1
REMARK VINA RESULT:      -7.8      0.000      0.000
REMARK  Name = NuBBE_2174
REMARK  10 active torsions:
REMARK  status: ('A' for Active; 'I' for Inactive)
REMARK    1  A    between atoms: C_6  and  O_7
REMARK    2  A    between atoms: O_7  and  C_8
REMARK    3  A    between atoms: C_8  and  C_9
REMARK    4  A    between atoms: C_10  and  C_11
REMARK    5  A    between atoms: C_10  and  C_12
REMARK    6  A    between atoms: C_17  and  C_18
REMARK    7  A    between atoms: C_20  and  O_21
REMARK    8  A    between atoms: O_21  and  C_22
REMARK    9  A    between atoms: C_23  and  O_24
REMARK   10  A    between atoms: O_24  and  C_25
REMARK                            x       y       z     vdW  Elec       q    Type
REMARK                         _______ _______ _______ _____ _____    ______ ____
ROOT
ATOM      1  O   LIG A   1     -10.925   3.823 130.051  0.00  0.00    -0.286 OA
ATOM      2  C   LIG A   1     -10.238   4.163 131.002  0.00  0.00    +0.200 A 
ATOM      3  C   LIG A   1      -9.382   3.184 131.705  0.00  0.00    +0.065 A 
ATOM      4  C   LIG A   1      -9.331   1.861 131.272  0.00  0.00    +0.019 A 
ATOM      5  C   LIG A   1      -8.515   0.941 131.936  0.00  0.00    +0.046 A 
ATOM      6  C   LIG A   1      -7.728   1.344 133.015  0.00  0.00    +0.124 A 
ATOM      7  C   LIG A   1      -7.789   2.680 133.447  0.00  0.00    +0.092 A 
ATOM      8  C   LIG A   1      -8.624   3.593 132.795  0.00  0.00    +0.142 A 
ATOM      9  O   LIG A   1      -8.663   4.884 133.269  0.00  0.00    -0.462 OA
ATOM     10  C   LIG A   1      -9.458   5.792 132.601  0.00  0.00    +0.208 A 
ATOM     11  C   LIG A   1     -10.219   5.556 131.520  0.00  0.00    +0.064 A 
ENDROOT
BRANCH  11  12
ATOM     12  C   LIG A   1     -11.025   6.620 130.891  0.00  0.00    -0.008 A 
ATOM     13  C   LIG A   1     -10.656   7.185 129.660  0.00  0.00    +0.058 A 
ATOM     14  C   LIG A   1     -11.437   8.184 129.043  0.00  0.00    +0.162 A 
ATOM     15  C   LIG A   1     -12.594   8.656 129.686  0.00  0.00    +0.162 A 
ATOM     16  C   LIG A   1     -12.965   8.085 130.911  0.00  0.00    +0.050 A 
ATOM     17  C   LIG A   1     -12.188   7.084 131.509  0.00  0.00    +0.012 A 
BRANCH  14  18
ATOM     18  O   LIG A   1     -10.888   8.666 127.879  0.00  0.00    -0.491 OA
ATOM     19  C   LIG A   1     -10.882   7.807 126.744  0.00  0.00    +0.277 C 
ENDBRANCH  14  18
BRANCH  15  20
ATOM     20  O   LIG A   1     -13.337   9.635 129.082  0.00  0.00    -0.491 OA
ATOM     21  C   LIG A   1     -13.463  10.873 129.772  0.00  0.00    +0.277 C 
ENDBRANCH  15  20
ENDBRANCH  11  12
BRANCH   6  22
ATOM     22  O   LIG A   1      -6.848   0.540 133.698  0.00  0.00    -0.488 OA
BRANCH  22  23
ATOM     23  C   LIG A   1      -5.740   0.031 132.954  0.00  0.00    +0.256 C 
BRANCH  23  24
ATOM     24  C   LIG A   1      -4.526   0.835 133.301  0.00  0.00    +0.012 C 
ATOM     25  C   LIG A   1      -3.962   1.828 132.588  0.00  0.00    -0.076 C 
ATOM     26  C   LIG A   1      -4.416   2.273 131.226  0.00  0.00    +0.038 C 
ATOM     27  C   LIG A   1      -2.793   2.600 133.140  0.00  0.00    +0.038 C 
ENDBRANCH  23  24
ENDBRANCH  22  23
ENDBRANCH   6  22
TORSDOF 6
ENDMDL
MODEL 2
REMARK VINA RESULT:      -7.8      1.376      2.343
REMARK  Name = NuBBE_2174
REMARK  10 active torsions:
REMARK  status: ('A' for Active; 'I' for Inactive)
REMARK    1  A    between atoms: C_6  and  O_7
REMARK    2  A    between atoms: O_7  and  C_8
REMARK    3  A    between atoms: C_8  and  C_9
REMARK    4  A    between atoms: C_10  and  C_11
REMARK    5  A    between atoms: C_10  and  C_12
REMARK    6  A    between atoms: C_17  and  C_18
REMARK    7  A    between atoms: C_20  and  O_21
REMARK    8  A    between atoms: O_21  and  C_22
REMARK    9  A    between atoms: C_23  and  O_24
REMARK   10  A    between atoms: O_24  and  C_25
REMARK                            x       y       z     vdW  Elec       q    Type
REMARK                         _______ _______ _______ _____ _____    ______ ____
ROOT
ATOM      1  O   LIG A   1     -10.742   3.814 130.074  0.00  0.00    -0.286 OA
ATOM      2  C   LIG A   1     -10.115   4.182 131.056  0.00  0.00    +0.200 A 
ATOM      3  C   LIG A   1      -9.260   3.236 131.806  0.00  0.00    +0.065 A 
ATOM      4  C   LIG A   1      -9.142   1.914 131.383  0.00  0.00    +0.019 A 
ATOM      5  C   LIG A   1      -8.327   1.026 132.090  0.00  0.00    +0.046 A 
ATOM      6  C   LIG A   1      -7.609   1.460 133.205  0.00  0.00    +0.124 A 
ATOM      7  C   LIG A   1      -7.738   2.794 133.626  0.00  0.00    +0.092 A 
ATOM      8  C   LIG A   1      -8.572   3.675 132.929  0.00  0.00    +0.142 A 
ATOM      9  O   LIG A   1      -8.679   4.966 133.394  0.00  0.00    -0.462 OA
ATOM     10  C   LIG A   1      -9.472   5.842 132.684  0.00  0.00    +0.208 A 
ATOM     11  C   LIG A   1     -10.170   5.577 131.567  0.00  0.00    +0.064 A 
ENDROOT
BRANCH  11  12
ATOM     12  C   LIG A   1     -10.981   6.609 130.894  0.00  0.00    -0.008 A 
ATOM     13  C   LIG A   1     -10.570   7.184 129.681  0.00  0.00    +0.058 A 
ATOM     14  C   LIG A   1     -11.354   8.153 129.022  0.00  0.00    +0.162 A 
ATOM     15  C   LIG A   1     -12.559   8.583 129.603  0.00  0.00    +0.162 A 
ATOM     16  C   LIG A   1     -12.971   8.001 130.809  0.00  0.00    +0.050 A 
ATOM     17  C   LIG A   1     -12.190   7.031 131.450  0.00  0.00    +0.012 A 
BRANCH  14  18
ATOM     18  O   LIG A   1     -10.765   8.653 127.886  0.00  0.00    -0.491 OA
ATOM     19  C   LIG A   1     -10.888   7.895 126.687  0.00  0.00    +0.277 C 
ENDBRANCH  14  18
BRANCH  15  20
ATOM     20  O   LIG A   1     -13.306   9.533 128.958  0.00  0.00    -0.491 OA
ATOM     21  C   LIG A   1     -13.498  10.774 129.628  0.00  0.00    +0.277 C 
ENDBRANCH  15  20
ENDBRANCH  11  12
BRANCH   6  22
ATOM     22  O   LIG A   1      -6.736   0.690 133.934  0.00  0.00    -0.488 OA
BRANCH  22  23
ATOM     23  C   LIG A   1      -6.170  -0.438 133.267  0.00  0.00    +0.256 C 
BRANCH  23  24
ATOM     24  C   LIG A   1      -6.687  -1.683 133.917  0.00  0.00    +0.012 C 
ATOM     25  C   LIG A   1      -7.179  -2.786 133.319  0.00  0.00    -0.076 C 
ATOM     26  C   LIG A   1      -7.378  -2.942 131.838  0.00  0.00    +0.038 C 
ATOM     27  C   LIG A   1      -7.564  -3.992 134.133  0.00  0.00    +0.038 C 
ENDBRANCH  23  24
ENDBRANCH  22  23
ENDBRANCH   6  22
TORSDOF 6
ENDMDL
MODEL 3
REMARK VINA RESULT:      -7.8      1.546      2.737
REMARK  Name = NuBBE_2174
REMARK  10 active torsions:
REMARK  status: ('A' for Active; 'I' for Inactive)
REMARK    1  A    between atoms: C_6  and  O_7
REMARK    2  A    between atoms: O_7  and  C_8
REMARK    3  A    between atoms: C_8  and  C_9
REMARK    4  A    between atoms: C_10  and  C_11
REMARK    5  A    between atoms: C_10  and  C_12
REMARK    6  A    between atoms: C_17  and  C_18
REMARK    7  A    between atoms: C_20  and  O_21
REMARK    8  A    between atoms: O_21  and  C_22
REMARK    9  A    between atoms: C_23  and  O_24
REMARK   10  A    between atoms: O_24  and  C_25
REMARK                            x       y       z     vdW  Elec       q    Type
REMARK                         _______ _______ _______ _____ _____    ______ ____
ROOT
ATOM      1  O   LIG A   1      -9.278   6.371 132.465  0.00  0.00    -0.286 OA
ATOM      2  C   LIG A   1      -9.663   5.338 131.937  0.00  0.00    +0.200 A 
ATOM      3  C   LIG A   1      -9.064   4.036 132.300  0.00  0.00    +0.065 A 
ATOM      4  C   LIG A   1      -8.066   3.970 133.270  0.00  0.00    +0.019 A 
ATOM      5  C   LIG A   1      -7.509   2.736 133.615  0.00  0.00    +0.046 A 
ATOM      6  C   LIG A   1      -7.962   1.562 133.012  0.00  0.00    +0.124 A 
ATOM      7  C   LIG A   1      -8.966   1.639 132.031  0.00  0.00    +0.092 A 
ATOM      8  C   LIG A   1      -9.506   2.878 131.673  0.00  0.00    +0.142 A 
ATOM      9  O   LIG A   1     -10.473   2.901 130.693  0.00  0.00    -0.462 OA
ATOM     10  C   LIG A   1     -11.030   4.120 130.368  0.00  0.00    +0.208 A 
ATOM     11  C   LIG A   1     -10.732   5.314 130.905  0.00  0.00    +0.064 A 
ENDROOT
BRANCH  11  12
ATOM     12  C   LIG A   1     -11.409   6.552 130.472  0.00  0.00    -0.008 A 
ATOM     13  C   LIG A   1     -11.123   7.147 129.234  0.00  0.00    +0.058 A 
ATOM     14  C   LIG A   1     -11.785   8.316 128.807  0.00  0.00    +0.162 A 
ATOM     15  C   LIG A   1     -12.732   8.924 129.649  0.00  0.00    +0.162 A 
ATOM     16  C   LIG A   1     -13.022   8.323 130.881  0.00  0.00    +0.050 A 
ATOM     17  C   LIG A   1     -12.366   7.155 131.291  0.00  0.00    +0.012 A 
BRANCH  14  18
ATOM     18  O   LIG A   1     -11.330   8.793 127.602  0.00  0.00    -0.491 OA
ATOM     19  C   LIG A   1     -10.917   7.843 126.626  0.00  0.00    +0.277 C 
ENDBRANCH  14  18
BRANCH  15  20
ATOM     20  O   LIG A   1     -13.360  10.065 129.227  0.00  0.00    -0.491 OA
ATOM     21  C   LIG A   1     -13.463  11.134 130.161  0.00  0.00    +0.277 C 
ENDBRANCH  15  20
ENDBRANCH  11  12
BRANCH   6  22
ATOM     22  O   LIG A   1      -7.528   0.296 133.318  0.00  0.00    -0.488 OA
BRANCH  22  23
ATOM     23  C   LIG A   1      -6.523  -0.258 132.468  0.00  0.00    +0.256 C 
BRANCH  23  24
ATOM     24  C   LIG A   1      -7.065  -1.507 131.845  0.00  0.00    +0.012 C 
ATOM     25  C   LIG A   1      -7.473  -1.686 130.574  0.00  0.00    -0.076 C 
ATOM     26  C   LIG A   1      -7.537  -0.605 129.532  0.00  0.00    +0.038 C 
ATOM     27  C   LIG A   1      -7.898  -3.047 130.090  0.00  0.00    +0.038 C 
ENDBRANCH  23  24
ENDBRANCH  22  23
ENDBRANCH   6  22
TORSDOF 6
ENDMDL
MODEL 4
REMARK VINA RESULT:      -7.2      4.349      9.145
REMARK  Name = NuBBE_2174
REMARK  10 active torsions:
REMARK  status: ('A' for Active; 'I' for Inactive)
REMARK    1  A    between atoms: C_6  and  O_7
REMARK    2  A    between atoms: O_7  and  C_8
REMARK    3  A    between atoms: C_8  and  C_9
REMARK    4  A    between atoms: C_10  and  C_11
REMARK    5  A    between atoms: C_10  and  C_12
REMARK    6  A    between atoms: C_17  and  C_18
REMARK    7  A    between atoms: C_20  and  O_21
REMARK    8  A    between atoms: O_21  and  C_22
REMARK    9  A    between atoms: C_23  and  O_24
REMARK   10  A    between atoms: O_24  and  C_25
REMARK                            x       y       z     vdW  Elec       q    Type
REMARK                         _______ _______ _______ _____ _____    ______ ____
ROOT
ATOM      1  O   LIG A   1      -5.671   5.668 134.099  0.00  0.00    -0.286 OA
ATOM      2  C   LIG A   1      -5.946   6.072 132.979  0.00  0.00    +0.200 A 
ATOM      3  C   LIG A   1      -7.327   5.980 132.460  0.00  0.00    +0.065 A 
ATOM      4  C   LIG A   1      -8.341   5.451 133.256  0.00  0.00    +0.019 A 
ATOM      5  C   LIG A   1      -9.646   5.374 132.763  0.00  0.00    +0.046 A 
ATOM      6  C   LIG A   1      -9.949   5.847 131.486  0.00  0.00    +0.124 A 
ATOM      7  C   LIG A   1      -8.919   6.375 130.689  0.00  0.00    +0.092 A 
ATOM      8  C   LIG A   1      -7.610   6.431 131.177  0.00  0.00    +0.142 A 
ATOM      9  O   LIG A   1      -6.634   6.939 130.349  0.00  0.00    -0.462 OA
ATOM     10  C   LIG A   1      -5.351   7.026 130.846  0.00  0.00    +0.208 A 
ATOM     11  C   LIG A   1      -4.931   6.664 132.069  0.00  0.00    +0.064 A 
ENDROOT
BRANCH  11  12
ATOM     12  C   LIG A   1      -3.523   6.816 132.484  0.00  0.00    -0.008 A 
ATOM     13  C   LIG A   1      -2.932   8.083 132.612  0.00  0.00    +0.058 A 
ATOM     14  C   LIG A   1      -1.595   8.233 133.033  0.00  0.00    +0.162 A 
ATOM     15  C   LIG A   1      -0.819   7.092 133.299  0.00  0.00    +0.162 A 
ATOM     16  C   LIG A   1      -1.414   5.829 133.179  0.00  0.00    +0.050 A 
ATOM     17  C   LIG A   1      -2.747   5.691 132.770  0.00  0.00    +0.012 A 
BRANCH  14  18
ATOM     18  O   LIG A   1      -1.165   9.538 133.035  0.00  0.00    -0.491 OA
ATOM     19  C   LIG A   1      -2.143  10.557 133.218  0.00  0.00    +0.277 C 
ENDBRANCH  14  18
BRANCH  15  20
ATOM     20  O   LIG A   1       0.483   7.251 133.695  0.00  0.00    -0.491 OA
ATOM     21  C   LIG A   1       0.713   7.533 135.071  0.00  0.00    +0.277 C 
ENDBRANCH  15  20
ENDBRANCH  11  12
BRANCH   6  22
ATOM     22  O   LIG A   1     -11.204   5.875 130.929  0.00  0.00    -0.488 OA
BRANCH  22  23
ATOM     23  C   LIG A   1     -11.999   7.028 131.205  0.00  0.00    +0.256 C 
BRANCH  23  24
ATOM     24  C   LIG A   1     -12.943   7.238 130.062  0.00  0.00    +0.012 C 
ATOM     25  C   LIG A   1     -12.694   7.840 128.883  0.00  0.00    -0.076 C 
ATOM     26  C   LIG A   1     -11.397   8.507 128.518  0.00  0.00    +0.038 C 
ATOM     27  C   LIG A   1     -13.741   7.873 127.803  0.00  0.00    +0.038 C 
ENDBRANCH  23  24
ENDBRANCH  22  23
ENDBRANCH   6  22
TORSDOF 6
ENDMDL
MODEL 5
REMARK VINA RESULT:      -7.1      5.239      9.325
REMARK  Name = NuBBE_2174
REMARK  10 active torsions:
REMARK  status: ('A' for Active; 'I' for Inactive)
REMARK    1  A    between atoms: C_6  and  O_7
REMARK    2  A    between atoms: O_7  and  C_8
REMARK    3  A    between atoms: C_8  and  C_9
REMARK    4  A    between atoms: C_10  and  C_11
REMARK    5  A    between atoms: C_10  and  C_12
REMARK    6  A    between atoms: C_17  and  C_18
REMARK    7  A    between atoms: C_20  and  O_21
REMARK    8  A    between atoms: O_21  and  C_22
REMARK    9  A    between atoms: C_23  and  O_24
REMARK   10  A    between atoms: O_24  and  C_25
REMARK                            x       y       z     vdW  Elec       q    Type
REMARK                         _______ _______ _______ _____ _____    ______ ____
ROOT
ATOM      1  O   LIG A   1      -7.524  -1.097 129.675  0.00  0.00    -0.286 OA
ATOM      2  C   LIG A   1      -7.878  -0.026 129.205  0.00  0.00    +0.200 A 
ATOM      3  C   LIG A   1      -8.366   1.059 130.083  0.00  0.00    +0.065 A 
ATOM      4  C   LIG A   1      -8.404   0.879 131.464  0.00  0.00    +0.019 A 
ATOM      5  C   LIG A   1      -8.859   1.911 132.289  0.00  0.00    +0.046 A 
ATOM      6  C   LIG A   1      -9.252   3.133 131.743  0.00  0.00    +0.124 A 
ATOM      7  C   LIG A   1      -9.213   3.304 130.349  0.00  0.00    +0.092 A 
ATOM      8  C   LIG A   1      -8.779   2.261 129.524  0.00  0.00    +0.142 A 
ATOM      9  O   LIG A   1      -8.779   2.473 128.163  0.00  0.00    -0.462 OA
ATOM     10  C   LIG A   1      -8.314   1.457 127.354  0.00  0.00    +0.208 A 
ATOM     11  C   LIG A   1      -7.855   0.258 127.747  0.00  0.00    +0.064 A 
ENDROOT
BRANCH  11  12
ATOM     12  C   LIG A   1      -7.377  -0.747 126.777  0.00  0.00    -0.008 A 
ATOM     13  C   LIG A   1      -8.245  -1.703 126.228  0.00  0.00    +0.058 A 
ATOM     14  C   LIG A   1      -7.797  -2.648 125.283  0.00  0.00    +0.162 A 
ATOM     15  C   LIG A   1      -6.445  -2.662 124.901  0.00  0.00    +0.162 A 
ATOM     16  C   LIG A   1      -5.582  -1.701 125.444  0.00  0.00    +0.050 A 
ATOM     17  C   LIG A   1      -6.039  -0.759 126.375  0.00  0.00    +0.012 A 
BRANCH  14  18
ATOM     18  O   LIG A   1      -8.767  -3.547 124.907  0.00  0.00    -0.491 OA
ATOM     19  C   LIG A   1      -9.483  -3.284 123.705  0.00  0.00    +0.277 C 
ENDBRANCH  14  18
BRANCH  15  20
ATOM     20  O   LIG A   1      -6.020  -3.593 123.991  0.00  0.00    -0.491 OA
ATOM     21  C   LIG A   1      -4.679  -3.485 123.529  0.00  0.00    +0.277 C 
ENDBRANCH  15  20
ENDBRANCH  11  12
BRANCH   6  22
ATOM     22  O   LIG A   1      -9.656   4.230 132.463  0.00  0.00    -0.488 OA
BRANCH  22  23
ATOM     23  C   LIG A   1      -9.505   5.501 131.830  0.00  0.00    +0.256 C 
BRANCH  23  24
ATOM     24  C   LIG A   1     -10.780   6.267 131.995  0.00  0.00    +0.012 C 
ATOM     25  C   LIG A   1     -11.578   6.763 131.029  0.00  0.00    -0.076 C 
ATOM     26  C   LIG A   1     -11.281   6.704 129.557  0.00  0.00    +0.038 C 
ATOM     27  C   LIG A   1     -12.883   7.426 131.378  0.00  0.00    +0.038 C 
ENDBRANCH  23  24
ENDBRANCH  22  23
ENDBRANCH   6  22
TORSDOF 6
ENDMDL
MODEL 6
REMARK VINA RESULT:      -7.1      4.721      6.597
REMARK  Name = NuBBE_2174
REMARK  10 active torsions:
REMARK  status: ('A' for Active; 'I' for Inactive)
REMARK    1  A    between atoms: C_6  and  O_7
REMARK    2  A    between atoms: O_7  and  C_8
REMARK    3  A    between atoms: C_8  and  C_9
REMARK    4  A    between atoms: C_10  and  C_11
REMARK    5  A    between atoms: C_10  and  C_12
REMARK    6  A    between atoms: C_17  and  C_18
REMARK    7  A    between atoms: C_20  and  O_21
REMARK    8  A    between atoms: O_21  and  C_22
REMARK    9  A    between atoms: C_23  and  O_24
REMARK   10  A    between atoms: O_24  and  C_25
REMARK                            x       y       z     vdW  Elec       q    Type
REMARK                         _______ _______ _______ _____ _____    ______ ____
ROOT
ATOM      1  O   LIG A   1      -5.145   6.089 129.425  0.00  0.00    -0.286 OA
ATOM      2  C   LIG A   1      -5.062   6.132 130.643  0.00  0.00    +0.200 A 
ATOM      3  C   LIG A   1      -3.750   6.294 131.307  0.00  0.00    +0.065 A 
ATOM      4  C   LIG A   1      -2.591   6.425 130.544  0.00  0.00    +0.019 A 
ATOM      5  C   LIG A   1      -1.356   6.585 131.176  0.00  0.00    +0.046 A 
ATOM      6  C   LIG A   1      -1.275   6.642 132.568  0.00  0.00    +0.124 A 
ATOM      7  C   LIG A   1      -2.448   6.505 133.328  0.00  0.00    +0.092 A 
ATOM      8  C   LIG A   1      -3.681   6.322 132.693  0.00  0.00    +0.142 A 
ATOM      9  O   LIG A   1      -4.798   6.174 133.485  0.00  0.00    -0.462 OA
ATOM     10  C   LIG A   1      -6.017   6.031 132.856  0.00  0.00    +0.208 A 
ATOM     11  C   LIG A   1      -6.247   6.017 131.533  0.00  0.00    +0.064 A 
ENDROOT
BRANCH  11  12
ATOM     12  C   LIG A   1      -7.607   5.863 130.982  0.00  0.00    -0.008 A 
ATOM     13  C   LIG A   1      -8.061   4.630 130.490  0.00  0.00    +0.058 A 
ATOM     14  C   LIG A   1      -9.369   4.473 129.986  0.00  0.00    +0.162 A 
ATOM     15  C   LIG A   1     -10.232   5.581 129.941  0.00  0.00    +0.162 A 
ATOM     16  C   LIG A   1      -9.780   6.809 130.440  0.00  0.00    +0.050 A 
ATOM     17  C   LIG A   1      -8.482   6.951 130.949  0.00  0.00    +0.012 A 
BRANCH  14  18
ATOM     18  O   LIG A   1      -9.615   3.217 129.486  0.00  0.00    -0.491 OA
ATOM     19  C   LIG A   1      -8.764   2.158 129.908  0.00  0.00    +0.277 C 
ENDBRANCH  14  18
BRANCH  15  20
ATOM     20  O   LIG A   1     -11.496   5.418 129.438  0.00  0.00    -0.491 OA
ATOM     21  C   LIG A   1     -12.317   6.577 129.357  0.00  0.00    +0.277 C 
ENDBRANCH  15  20
ENDBRANCH  11  12
BRANCH   6  22
ATOM     22  O   LIG A   1      -0.124   6.856 133.286  0.00  0.00    -0.488 OA
BRANCH  22  23
ATOM     23  C   LIG A   1      -0.182   7.861 134.300  0.00  0.00    +0.256 C 
BRANCH  23  24
ATOM     24  C   LIG A   1       0.314   9.149 133.720  0.00  0.00    +0.012 C 
ATOM     25  C   LIG A   1      -0.414  10.188 133.271  0.00  0.00    -0.076 C 
ATOM     26  C   LIG A   1      -1.915  10.214 133.192  0.00  0.00    +0.038 C 
ATOM     27  C   LIG A   1       0.259  11.454 132.810  0.00  0.00    +0.038 C 
ENDBRANCH  23  24
ENDBRANCH  22  23
ENDBRANCH   6  22
TORSDOF 6
ENDMDL
MODEL 7
REMARK VINA RESULT:      -7.0      7.217     11.470
REMARK  Name = NuBBE_2174
REMARK  10 active torsions:
REMARK  status: ('A' for Active; 'I' for Inactive)
REMARK    1  A    between atoms: C_6  and  O_7
REMARK    2  A    between atoms: O_7  and  C_8
REMARK    3  A    between atoms: C_8  and  C_9
REMARK    4  A    between atoms: C_10  and  C_11
REMARK    5  A    between atoms: C_10  and  C_12
REMARK    6  A    between atoms: C_17  and  C_18
REMARK    7  A    between atoms: C_20  and  O_21
REMARK    8  A    between atoms: O_21  and  C_22
REMARK    9  A    between atoms: C_23  and  O_24
REMARK   10  A    between atoms: O_24  and  C_25
REMARK                            x       y       z     vdW  Elec       q    Type
REMARK                         _______ _______ _______ _____ _____    ______ ____
ROOT
ATOM      1  O   LIG A   1      -4.922  -2.183 128.543  0.00  0.00    -0.286 OA
ATOM      2  C   LIG A   1      -6.042  -2.537 128.208  0.00  0.00    +0.200 A 
ATOM      3  C   LIG A   1      -6.550  -2.253 126.848  0.00  0.00    +0.065 A 
ATOM      4  C   LIG A   1      -5.742  -1.595 125.923  0.00  0.00    +0.019 A 
ATOM      5  C   LIG A   1      -6.225  -1.336 124.637  0.00  0.00    +0.046 A 
ATOM      6  C   LIG A   1      -7.502  -1.753 124.263  0.00  0.00    +0.124 A 
ATOM      7  C   LIG A   1      -8.311  -2.412 125.205  0.00  0.00    +0.092 A 
ATOM      8  C   LIG A   1      -7.833  -2.651 126.498  0.00  0.00    +0.142 A 
ATOM      9  O   LIG A   1      -8.672  -3.282 127.389  0.00  0.00    -0.462 OA
ATOM     10  C   LIG A   1      -8.186  -3.550 128.651  0.00  0.00    +0.208 A 
ATOM     11  C   LIG A   1      -6.964  -3.258 129.125  0.00  0.00    +0.064 A 
ENDROOT
BRANCH  11  12
ATOM     12  C   LIG A   1      -6.560  -3.605 130.501  0.00  0.00    -0.008 A 
ATOM     13  C   LIG A   1      -6.972  -2.835 131.599  0.00  0.00    +0.058 A 
ATOM     14  C   LIG A   1      -6.609  -3.178 132.918  0.00  0.00    +0.162 A 
ATOM     15  C   LIG A   1      -5.788  -4.295 133.143  0.00  0.00    +0.162 A 
ATOM     16  C   LIG A   1      -5.385  -5.068 132.046  0.00  0.00    +0.050 A 
ATOM     17  C   LIG A   1      -5.760  -4.724 130.740  0.00  0.00    +0.012 A 
BRANCH  14  18
ATOM     18  O   LIG A   1      -7.044  -2.275 133.857  0.00  0.00    -0.491 OA
ATOM     19  C   LIG A   1      -6.237  -1.127 134.097  0.00  0.00    +0.277 C 
ENDBRANCH  14  18
BRANCH  15  20
ATOM     20  O   LIG A   1      -5.433  -4.611 134.428  0.00  0.00    -0.491 OA
ATOM     21  C   LIG A   1      -5.939  -5.829 134.961  0.00  0.00    +0.277 C 
ENDBRANCH  15  20
ENDBRANCH  11  12
BRANCH   6  22
ATOM     22  O   LIG A   1      -8.050  -1.604 123.013  0.00  0.00    -0.488 OA
BRANCH  22  23
ATOM     23  C   LIG A   1      -9.307  -0.930 122.943  0.00  0.00    +0.256 C 
BRANCH  23  24
ATOM     24  C   LIG A   1      -9.066   0.541 123.081  0.00  0.00    +0.012 C 
ATOM     25  C   LIG A   1      -9.225   1.304 124.179  0.00  0.00    -0.076 C 
ATOM     26  C   LIG A   1      -9.771   0.817 125.492  0.00  0.00    +0.038 C 
ATOM     27  C   LIG A   1      -8.836   2.758 124.164  0.00  0.00    +0.038 C 
ENDBRANCH  23  24
ENDBRANCH  22  23
ENDBRANCH   6  22
TORSDOF 6
ENDMDL
MODEL 8
REMARK VINA RESULT:      -7.0      6.978      8.587
REMARK  Name = NuBBE_2174
REMARK  10 active torsions:
REMARK  status: ('A' for Active; 'I' for Inactive)
REMARK    1  A    between atoms: C_6  and  O_7
REMARK    2  A    between atoms: O_7  and  C_8
REMARK    3  A    between atoms: C_8  and  C_9
REMARK    4  A    between atoms: C_10  and  C_11
REMARK    5  A    between atoms: C_10  and  C_12
REMARK    6  A    between atoms: C_17  and  C_18
REMARK    7  A    between atoms: C_20  and  O_21
REMARK    8  A    between atoms: O_21  and  C_22
REMARK    9  A    between atoms: C_23  and  O_24
REMARK   10  A    between atoms: O_24  and  C_25
REMARK                            x       y       z     vdW  Elec       q    Type
REMARK                         _______ _______ _______ _____ _____    ______ ____
ROOT
ATOM      1  O   LIG A   1      -6.908  -0.411 123.336  0.00  0.00    -0.286 OA
ATOM      2  C   LIG A   1      -7.261   0.208 124.328  0.00  0.00    +0.200 A 
ATOM      3  C   LIG A   1      -7.298  -0.447 125.654  0.00  0.00    +0.065 A 
ATOM      4  C   LIG A   1      -6.906  -1.777 125.789  0.00  0.00    +0.019 A 
ATOM      5  C   LIG A   1      -6.935  -2.388 127.045  0.00  0.00    +0.046 A 
ATOM      6  C   LIG A   1      -7.332  -1.668 128.173  0.00  0.00    +0.124 A 
ATOM      7  C   LIG A   1      -7.730  -0.329 128.026  0.00  0.00    +0.092 A 
ATOM      8  C   LIG A   1      -7.720   0.274 126.764  0.00  0.00    +0.142 A 
ATOM      9  O   LIG A   1      -8.138   1.582 126.670  0.00  0.00    -0.462 OA
ATOM     10  C   LIG A   1      -8.092   2.185 125.431  0.00  0.00    +0.208 A 
ATOM     11  C   LIG A   1      -7.681   1.633 124.278  0.00  0.00    +0.064 A 
ENDROOT
BRANCH  11  12
ATOM     12  C   LIG A   1      -7.673   2.391 123.013  0.00  0.00    -0.008 A 
ATOM     13  C   LIG A   1      -6.481   2.888 122.466  0.00  0.00    +0.058 A 
ATOM     14  C   LIG A   1      -6.466   3.592 121.244  0.00  0.00    +0.162 A 
ATOM     15  C   LIG A   1      -7.675   3.834 120.569  0.00  0.00    +0.162 A 
ATOM     16  C   LIG A   1      -8.863   3.329 121.112  0.00  0.00    +0.050 A 
ATOM     17  C   LIG A   1      -8.865   2.622 122.322  0.00  0.00    +0.012 A 
BRANCH  14  18
ATOM     18  O   LIG A   1      -5.223   4.061 120.897  0.00  0.00    -0.491 OA
ATOM     19  C   LIG A   1      -4.466   4.735 121.897  0.00  0.00    +0.277 C 
ENDBRANCH  14  18
BRANCH  15  20
ATOM     20  O   LIG A   1      -7.649   4.529 119.388  0.00  0.00    -0.491 OA
ATOM     21  C   LIG A   1      -8.819   4.479 118.580  0.00  0.00    +0.277 C 
ENDBRANCH  15  20
ENDBRANCH  11  12
BRANCH   6  22
ATOM     22  O   LIG A   1      -7.340  -2.152 129.458  0.00  0.00    -0.488 OA
BRANCH  22  23
ATOM     23  C   LIG A   1      -7.213  -3.566 129.609  0.00  0.00    +0.256 C 
BRANCH  23  24
ATOM     24  C   LIG A   1      -6.181  -3.840 130.659  0.00  0.00    +0.012 C 
ATOM     25  C   LIG A   1      -4.841  -3.783 130.536  0.00  0.00    -0.076 C 
ATOM     26  C   LIG A   1      -4.108  -3.502 129.254  0.00  0.00    +0.038 C 
ATOM     27  C   LIG A   1      -3.952  -3.994 131.732  0.00  0.00    +0.038 C 
ENDBRANCH  23  24
ENDBRANCH  22  23
ENDBRANCH   6  22
TORSDOF 6
ENDMDL
MODEL 9
REMARK VINA RESULT:      -6.9      2.984      9.362
REMARK  Name = NuBBE_2174
REMARK  10 active torsions:
REMARK  status: ('A' for Active; 'I' for Inactive)
REMARK    1  A    between atoms: C_6  and  O_7
REMARK    2  A    between atoms: O_7  and  C_8
REMARK    3  A    between atoms: C_8  and  C_9
REMARK    4  A    between atoms: C_10  and  C_11
REMARK    5  A    between atoms: C_10  and  C_12
REMARK    6  A    between atoms: C_17  and  C_18
REMARK    7  A    between atoms: C_20  and  O_21
REMARK    8  A    between atoms: O_21  and  C_22
REMARK    9  A    between atoms: C_23  and  O_24
REMARK   10  A    between atoms: O_24  and  C_25
REMARK                            x       y       z     vdW  Elec       q    Type
REMARK                         _______ _______ _______ _____ _____    ______ ____
ROOT
ATOM      1  O   LIG A   1      -7.678   1.518 132.597  0.00  0.00    -0.286 OA
ATOM      2  C   LIG A   1      -8.138   2.009 131.577  0.00  0.00    +0.200 A 
ATOM      3  C   LIG A   1      -8.882   3.285 131.621  0.00  0.00    +0.065 A 
ATOM      4  C   LIG A   1      -9.048   3.958 132.830  0.00  0.00    +0.019 A 
ATOM      5  C   LIG A   1      -9.746   5.168 132.865  0.00  0.00    +0.046 A 
ATOM      6  C   LIG A   1     -10.258   5.723 131.692  0.00  0.00    +0.124 A 
ATOM      7  C   LIG A   1     -10.090   5.035 130.478  0.00  0.00    +0.092 A 
ATOM      8  C   LIG A   1      -9.410   3.813 130.450  0.00  0.00    +0.142 A 
ATOM      9  O   LIG A   1      -9.290   3.170 129.239  0.00  0.00    -0.462 OA
ATOM     10  C   LIG A   1      -8.587   1.984 129.207  0.00  0.00    +0.208 A 
ATOM     11  C   LIG A   1      -7.995   1.368 130.243  0.00  0.00    +0.064 A 
ENDROOT
BRANCH  11  12
ATOM     12  C   LIG A   1      -7.262   0.098 130.077  0.00  0.00    -0.008 A 
ATOM     13  C   LIG A   1      -7.938  -1.115 129.875  0.00  0.00    +0.058 A 
ATOM     14  C   LIG A   1      -7.241  -2.326 129.690  0.00  0.00    +0.162 A 
ATOM     15  C   LIG A   1      -5.837  -2.334 129.743  0.00  0.00    +0.162 A 
ATOM     16  C   LIG A   1      -5.164  -1.120 129.936  0.00  0.00    +0.050 A 
ATOM     17  C   LIG A   1      -5.866   0.080 130.107  0.00  0.00    +0.012 A 
BRANCH  14  18
ATOM     18  O   LIG A   1      -8.065  -3.419 129.575  0.00  0.00    -0.491 OA
ATOM     19  C   LIG A   1      -8.654  -3.674 128.304  0.00  0.00    +0.277 C 
ENDBRANCH  14  18
BRANCH  15  20
ATOM     20  O   LIG A   1      -5.172  -3.519 129.574  0.00  0.00    -0.491 OA
ATOM     21  C   LIG A   1      -3.876  -3.459 128.990  0.00  0.00    +0.277 C 
ENDBRANCH  15  20
ENDBRANCH  11  12
BRANCH   6  22
ATOM     22  O   LIG A   1     -10.905   6.931 131.604  0.00  0.00    -0.488 OA
BRANCH  22  23
ATOM     23  C   LIG A   1     -12.320   6.886 131.419  0.00  0.00    +0.256 C 
BRANCH  23  24
ATOM     24  C   LIG A   1     -12.726   8.055 130.576  0.00  0.00    +0.012 C 
ATOM     25  C   LIG A   1     -12.819   8.113 129.234  0.00  0.00    -0.076 C 
ATOM     26  C   LIG A   1     -12.442   7.000 128.298  0.00  0.00    +0.038 C 
ATOM     27  C   LIG A   1     -13.343   9.351 128.556  0.00  0.00    +0.038 C 
ENDBRANCH  23  24
ENDBRANCH  22  23
ENDBRANCH   6  22
TORSDOF 6
ENDMDL
