MODEL 1
REMARK VINA RESULT:      -6.2      0.000      0.000
REMARK  Name = NuBBE_1800
REMARK  20 active torsions:
REMARK  status: ('A' for Active; 'I' for Inactive)
REMARK    1  A    between atoms: C_4  and  C_5
REMARK    2  A    between atoms: C_5  and  C_6
REMARK    3  A    between atoms: C_6  and  O_7
REMARK    4  A    between atoms: C_6  and  C_11
REMARK    5  A    between atoms: O_7  and  C_8
REMARK    6  A    between atoms: C_8  and  C_9
REMARK    7  A    between atoms: C_8  and  C_10
REMARK    8  A    between atoms: C_11  and  O_12
REMARK    9  A    between atoms: O_12  and  C_13
REMARK   10  A    between atoms: C_13  and  C_14
REMARK   11  A    between atoms: C_13  and  C_15
REMARK   12  A    between atoms: C_17  and  C_18
REMARK   13  A    between atoms: C_18  and  C_19
REMARK   14  A    between atoms: C_19  and  C_20
REMARK   15  A    between atoms: C_20  and  C_21
REMARK   16  A    between atoms: C_21  and  C_22
REMARK   17  A    between atoms: C_22  and  C_23
REMARK   18  A    between atoms: C_23  and  C_24
REMARK   19  A    between atoms: C_24  and  C_25
REMARK   20  A    between atoms: C_25  and  C_26
REMARK                            x       y       z     vdW  Elec       q    Type
REMARK                         _______ _______ _______ _____ _____    ______ ____
ROOT
ATOM      1  O   LIG A   1      -4.132  -0.498 129.962  0.00  0.00    -0.251 OA
ATOM      2  C   LIG A   1      -5.139  -0.900 129.402  0.00  0.00    +0.311 C 
ATOM      3  O   LIG A   1      -5.628  -2.176 129.543  0.00  0.00    -0.461 OA
ATOM      4  C   LIG A   1      -6.051  -0.074 128.514  0.00  0.00    +0.104 C 
ATOM      5  C   LIG A   1      -7.337  -0.880 128.704  0.00  0.00    +0.059 C 
ATOM      6  C   LIG A   1      -6.813  -2.309 128.752  0.00  0.00    +0.177 C 
ENDROOT
BRANCH   6   7
ATOM      7  C   LIG A   1      -7.767  -3.375 129.332  0.00  0.00    +0.045 C 
BRANCH   7   8
ATOM      8  C   LIG A   1      -8.894  -3.767 128.333  0.00  0.00    +0.003 C 
BRANCH   8   9
ATOM      9  C   LIG A   1      -8.482  -3.666 126.847  0.00  0.00    +0.000 C 
BRANCH   9  10
ATOM     10  C   LIG A   1      -9.423  -2.788 125.977  0.00  0.00    -0.000 C 
BRANCH  10  11
ATOM     11  C   LIG A   1      -9.181  -3.026 124.461  0.00  0.00    +0.000 C 
BRANCH  11  12
ATOM     12  C   LIG A   1      -7.747  -3.462 124.105  0.00  0.00    +0.001 C 
BRANCH  12  13
ATOM     13  C   LIG A   1      -6.752  -2.326 123.759  0.00  0.00    +0.013 C 
BRANCH  13  14
ATOM     14  C   LIG A   1      -5.328  -2.479 124.301  0.00  0.00    +0.088 C 
BRANCH  14  15
ATOM     15  C   LIG A   1      -4.711  -3.720 123.814  0.00  0.00    -0.106 C 
ATOM     16  C   LIG A   1      -4.242  -4.751 123.482  0.00  0.00    +0.004 C 
ENDBRANCH  14  15
ENDBRANCH  13  14
ENDBRANCH  12  13
ENDBRANCH  11  12
ENDBRANCH  10  11
ENDBRANCH   9  10
ENDBRANCH   8   9
ENDBRANCH   7   8
ENDBRANCH   6   7
BRANCH   4  17
ATOM     17  C   LIG A   1      -5.536   0.050 127.060  0.00  0.00    +0.048 C 
BRANCH  17  18
ATOM     18  C   LIG A   1      -5.293   1.513 126.586  0.00  0.00    +0.145 C 
BRANCH  18  19
ATOM     19  C   LIG A   1      -4.933   2.427 127.778  0.00  0.00    +0.191 C 
BRANCH  19  20
ATOM     20  O   LIG A   1      -3.532   2.548 128.049  0.00  0.00    -0.375 OA
BRANCH  20  21
ATOM     21  C   LIG A   1      -2.933   3.578 127.234  0.00  0.00    +0.112 C 
ATOM     22  C   LIG A   1      -2.556   4.800 128.070  0.00  0.00    +0.037 C 
ATOM     23  C   LIG A   1      -1.685   3.015 126.562  0.00  0.00    +0.037 C 
ENDBRANCH  20  21
ENDBRANCH  19  20
ENDBRANCH  18  19
BRANCH  18  24
ATOM     24  O   LIG A   1      -6.482   1.990 125.904  0.00  0.00    -0.372 OA
BRANCH  24  25
ATOM     25  C   LIG A   1      -7.261   1.018 125.174  0.00  0.00    +0.112 C 
ATOM     26  C   LIG A   1      -8.709   0.947 125.663  0.00  0.00    +0.037 C 
ATOM     27  C   LIG A   1      -7.184   1.306 123.664  0.00  0.00    +0.037 C 
ENDBRANCH  24  25
ENDBRANCH  18  24
ENDBRANCH  17  18
ENDBRANCH   4  17
TORSDOF 16
ENDMDL
MODEL 2
REMARK VINA RESULT:      -6.0      1.689      2.248
REMARK  Name = NuBBE_1800
REMARK  20 active torsions:
REMARK  status: ('A' for Active; 'I' for Inactive)
REMARK    1  A    between atoms: C_4  and  C_5
REMARK    2  A    between atoms: C_5  and  C_6
REMARK    3  A    between atoms: C_6  and  O_7
REMARK    4  A    between atoms: C_6  and  C_11
REMARK    5  A    between atoms: O_7  and  C_8
REMARK    6  A    between atoms: C_8  and  C_9
REMARK    7  A    between atoms: C_8  and  C_10
REMARK    8  A    between atoms: C_11  and  O_12
REMARK    9  A    between atoms: O_12  and  C_13
REMARK   10  A    between atoms: C_13  and  C_14
REMARK   11  A    between atoms: C_13  and  C_15
REMARK   12  A    between atoms: C_17  and  C_18
REMARK   13  A    between atoms: C_18  and  C_19
REMARK   14  A    between atoms: C_19  and  C_20
REMARK   15  A    between atoms: C_20  and  C_21
REMARK   16  A    between atoms: C_21  and  C_22
REMARK   17  A    between atoms: C_22  and  C_23
REMARK   18  A    between atoms: C_23  and  C_24
REMARK   19  A    between atoms: C_24  and  C_25
REMARK   20  A    between atoms: C_25  and  C_26
REMARK                            x       y       z     vdW  Elec       q    Type
REMARK                         _______ _______ _______ _____ _____    ______ ____
ROOT
ATOM      1  O   LIG A   1      -7.894   1.259 129.476  0.00  0.00    -0.251 OA
ATOM      2  C   LIG A   1      -7.784   0.555 128.485  0.00  0.00    +0.311 C 
ATOM      3  O   LIG A   1      -7.844  -0.817 128.518  0.00  0.00    -0.461 OA
ATOM      4  C   LIG A   1      -7.624   1.048 127.059  0.00  0.00    +0.104 C 
ATOM      5  C   LIG A   1      -8.197  -0.171 126.336  0.00  0.00    +0.059 C 
ATOM      6  C   LIG A   1      -7.677  -1.321 127.189  0.00  0.00    +0.177 C 
ENDROOT
BRANCH   6   7
ATOM      7  C   LIG A   1      -8.375  -2.686 127.007  0.00  0.00    +0.045 C 
BRANCH   7   8
ATOM      8  C   LIG A   1      -9.288  -2.721 125.747  0.00  0.00    +0.003 C 
BRANCH   8   9
ATOM      9  C   LIG A   1      -8.809  -3.699 124.649  0.00  0.00    +0.000 C 
BRANCH   9  10
ATOM     10  C   LIG A   1      -8.860  -3.122 123.208  0.00  0.00    -0.000 C 
BRANCH  10  11
ATOM     11  C   LIG A   1      -8.799  -1.570 123.214  0.00  0.00    +0.000 C 
BRANCH  11  12
ATOM     12  C   LIG A   1      -7.386  -0.988 123.014  0.00  0.00    +0.001 C 
BRANCH  12  13
ATOM     13  C   LIG A   1      -6.261  -2.009 122.710  0.00  0.00    +0.013 C 
BRANCH  13  14
ATOM     14  C   LIG A   1      -5.377  -2.420 123.890  0.00  0.00    +0.088 C 
BRANCH  14  15
ATOM     15  C   LIG A   1      -4.831  -3.770 123.694  0.00  0.00    -0.106 C 
ATOM     16  C   LIG A   1      -4.402  -4.867 123.607  0.00  0.00    +0.004 C 
ENDBRANCH  14  15
ENDBRANCH  13  14
ENDBRANCH  12  13
ENDBRANCH  11  12
ENDBRANCH  10  11
ENDBRANCH   9  10
ENDBRANCH   8   9
ENDBRANCH   7   8
ENDBRANCH   6   7
BRANCH   4  17
ATOM     17  C   LIG A   1      -6.166   1.425 126.705  0.00  0.00    +0.048 C 
BRANCH  17  18
ATOM     18  C   LIG A   1      -5.934   2.946 126.467  0.00  0.00    +0.145 C 
BRANCH  18  19
ATOM     19  C   LIG A   1      -5.377   3.625 127.739  0.00  0.00    +0.191 C 
BRANCH  19  20
ATOM     20  O   LIG A   1      -4.007   3.331 128.034  0.00  0.00    -0.375 OA
BRANCH  20  21
ATOM     21  C   LIG A   1      -3.119   4.120 127.214  0.00  0.00    +0.112 C 
ATOM     22  C   LIG A   1      -2.522   5.286 128.000  0.00  0.00    +0.037 C 
ATOM     23  C   LIG A   1      -1.996   3.226 126.698  0.00  0.00    +0.037 C 
ENDBRANCH  20  21
ENDBRANCH  19  20
ENDBRANCH  18  19
BRANCH  18  24
ATOM     24  O   LIG A   1      -7.186   3.555 126.057  0.00  0.00    -0.372 OA
BRANCH  24  25
ATOM     25  C   LIG A   1      -7.304   3.955 124.675  0.00  0.00    +0.112 C 
ATOM     26  C   LIG A   1      -5.945   4.053 123.979  0.00  0.00    +0.037 C 
ATOM     27  C   LIG A   1      -8.257   3.003 123.930  0.00  0.00    +0.037 C 
ENDBRANCH  24  25
ENDBRANCH  18  24
ENDBRANCH  17  18
ENDBRANCH   4  17
TORSDOF 16
ENDMDL
MODEL 3
REMARK VINA RESULT:      -6.0      3.008      5.309
REMARK  Name = NuBBE_1800
REMARK  20 active torsions:
REMARK  status: ('A' for Active; 'I' for Inactive)
REMARK    1  A    between atoms: C_4  and  C_5
REMARK    2  A    between atoms: C_5  and  C_6
REMARK    3  A    between atoms: C_6  and  O_7
REMARK    4  A    between atoms: C_6  and  C_11
REMARK    5  A    between atoms: O_7  and  C_8
REMARK    6  A    between atoms: C_8  and  C_9
REMARK    7  A    between atoms: C_8  and  C_10
REMARK    8  A    between atoms: C_11  and  O_12
REMARK    9  A    between atoms: O_12  and  C_13
REMARK   10  A    between atoms: C_13  and  C_14
REMARK   11  A    between atoms: C_13  and  C_15
REMARK   12  A    between atoms: C_17  and  C_18
REMARK   13  A    between atoms: C_18  and  C_19
REMARK   14  A    between atoms: C_19  and  C_20
REMARK   15  A    between atoms: C_20  and  C_21
REMARK   16  A    between atoms: C_21  and  C_22
REMARK   17  A    between atoms: C_22  and  C_23
REMARK   18  A    between atoms: C_23  and  C_24
REMARK   19  A    between atoms: C_24  and  C_25
REMARK   20  A    between atoms: C_25  and  C_26
REMARK                            x       y       z     vdW  Elec       q    Type
REMARK                         _______ _______ _______ _____ _____    ______ ____
ROOT
ATOM      1  O   LIG A   1     -10.821   0.441 122.299  0.00  0.00    -0.251 OA
ATOM      2  C   LIG A   1      -9.875  -0.036 122.905  0.00  0.00    +0.311 C 
ATOM      3  O   LIG A   1      -9.775  -1.367 123.232  0.00  0.00    -0.461 OA
ATOM      4  C   LIG A   1      -8.635   0.717 123.351  0.00  0.00    +0.104 C 
ATOM      5  C   LIG A   1      -7.664  -0.463 123.403  0.00  0.00    +0.059 C 
ATOM      6  C   LIG A   1      -8.549  -1.580 123.938  0.00  0.00    +0.177 C 
ENDROOT
BRANCH   6   7
ATOM      7  C   LIG A   1      -8.030  -3.022 123.751  0.00  0.00    +0.045 C 
BRANCH   7   8
ATOM      8  C   LIG A   1      -8.239  -3.897 125.021  0.00  0.00    +0.003 C 
BRANCH   8   9
ATOM      9  C   LIG A   1      -8.767  -3.113 126.245  0.00  0.00    +0.000 C 
BRANCH   9  10
ATOM     10  C   LIG A   1      -8.720  -3.901 127.582  0.00  0.00    -0.000 C 
BRANCH  10  11
ATOM     11  C   LIG A   1      -8.389  -2.969 128.780  0.00  0.00    +0.000 C 
BRANCH  11  12
ATOM     12  C   LIG A   1      -7.176  -3.417 129.619  0.00  0.00    +0.001 C 
BRANCH  12  13
ATOM     13  C   LIG A   1      -5.894  -2.558 129.480  0.00  0.00    +0.013 C 
BRANCH  13  14
ATOM     14  C   LIG A   1      -5.111  -2.708 128.173  0.00  0.00    +0.088 C 
BRANCH  14  15
ATOM     15  C   LIG A   1      -5.448  -1.632 127.232  0.00  0.00    -0.106 C 
ATOM     16  C   LIG A   1      -5.709  -0.814 126.421  0.00  0.00    +0.004 C 
ENDBRANCH  14  15
ENDBRANCH  13  14
ENDBRANCH  12  13
ENDBRANCH  11  12
ENDBRANCH  10  11
ENDBRANCH   9  10
ENDBRANCH   8   9
ENDBRANCH   7   8
ENDBRANCH   6   7
BRANCH   4  17
ATOM     17  C   LIG A   1      -8.836   1.491 124.677  0.00  0.00    +0.048 C 
BRANCH  17  18
ATOM     18  C   LIG A   1      -7.643   2.408 125.074  0.00  0.00    +0.145 C 
BRANCH  18  19
ATOM     19  C   LIG A   1      -7.897   3.084 126.439  0.00  0.00    +0.191 C 
BRANCH  19  20
ATOM     20  O   LIG A   1      -8.773   2.369 127.318  0.00  0.00    -0.375 OA
BRANCH  20  21
ATOM     21  C   LIG A   1      -8.190   2.228 128.631  0.00  0.00    +0.112 C 
ATOM     22  C   LIG A   1      -9.093   2.824 129.709  0.00  0.00    +0.037 C 
ATOM     23  C   LIG A   1      -7.964   0.747 128.916  0.00  0.00    +0.037 C 
ENDBRANCH  20  21
ENDBRANCH  19  20
ENDBRANCH  18  19
BRANCH  18  24
ATOM     24  O   LIG A   1      -7.443   3.398 124.031  0.00  0.00    -0.372 OA
BRANCH  24  25
ATOM     25  C   LIG A   1      -6.166   3.399 123.356  0.00  0.00    +0.112 C 
ATOM     26  C   LIG A   1      -6.291   3.763 121.876  0.00  0.00    +0.037 C 
ATOM     27  C   LIG A   1      -5.183   4.327 124.090  0.00  0.00    +0.037 C 
ENDBRANCH  24  25
ENDBRANCH  18  24
ENDBRANCH  17  18
ENDBRANCH   4  17
TORSDOF 16
ENDMDL
MODEL 4
REMARK VINA RESULT:      -6.0      2.405      4.524
REMARK  Name = NuBBE_1800
REMARK  20 active torsions:
REMARK  status: ('A' for Active; 'I' for Inactive)
REMARK    1  A    between atoms: C_4  and  C_5
REMARK    2  A    between atoms: C_5  and  C_6
REMARK    3  A    between atoms: C_6  and  O_7
REMARK    4  A    between atoms: C_6  and  C_11
REMARK    5  A    between atoms: O_7  and  C_8
REMARK    6  A    between atoms: C_8  and  C_9
REMARK    7  A    between atoms: C_8  and  C_10
REMARK    8  A    between atoms: C_11  and  O_12
REMARK    9  A    between atoms: O_12  and  C_13
REMARK   10  A    between atoms: C_13  and  C_14
REMARK   11  A    between atoms: C_13  and  C_15
REMARK   12  A    between atoms: C_17  and  C_18
REMARK   13  A    between atoms: C_18  and  C_19
REMARK   14  A    between atoms: C_19  and  C_20
REMARK   15  A    between atoms: C_20  and  C_21
REMARK   16  A    between atoms: C_21  and  C_22
REMARK   17  A    between atoms: C_22  and  C_23
REMARK   18  A    between atoms: C_23  and  C_24
REMARK   19  A    between atoms: C_24  and  C_25
REMARK   20  A    between atoms: C_25  and  C_26
REMARK                            x       y       z     vdW  Elec       q    Type
REMARK                         _______ _______ _______ _____ _____    ______ ____
ROOT
ATOM      1  O   LIG A   1      -9.511   1.614 125.336  0.00  0.00    -0.251 OA
ATOM      2  C   LIG A   1      -8.555   1.097 125.891  0.00  0.00    +0.311 C 
ATOM      3  O   LIG A   1      -8.541   0.759 127.222  0.00  0.00    -0.461 OA
ATOM      4  C   LIG A   1      -7.256   0.686 125.222  0.00  0.00    +0.104 C 
ATOM      5  C   LIG A   1      -6.836  -0.408 126.204  0.00  0.00    +0.059 C 
ATOM      6  C   LIG A   1      -7.272   0.179 127.540  0.00  0.00    +0.177 C 
ENDROOT
BRANCH   6   7
ATOM      7  C   LIG A   1      -7.377  -0.805 128.725  0.00  0.00    +0.045 C 
BRANCH   7   8
ATOM      8  C   LIG A   1      -7.188  -2.285 128.285  0.00  0.00    +0.003 C 
BRANCH   8   9
ATOM      9  C   LIG A   1      -8.348  -3.219 128.701  0.00  0.00    +0.000 C 
BRANCH   9  10
ATOM     10  C   LIG A   1      -9.014  -3.981 127.522  0.00  0.00    -0.000 C 
BRANCH  10  11
ATOM     11  C   LIG A   1      -9.230  -3.053 126.295  0.00  0.00    +0.000 C 
BRANCH  11  12
ATOM     12  C   LIG A   1      -8.589  -3.564 124.990  0.00  0.00    +0.001 C 
BRANCH  12  13
ATOM     13  C   LIG A   1      -9.321  -3.189 123.676  0.00  0.00    +0.013 C 
BRANCH  13  14
ATOM     14  C   LIG A   1      -8.850  -1.913 122.974  0.00  0.00    +0.088 C 
BRANCH  14  15
ATOM     15  C   LIG A   1      -7.403  -1.953 122.726  0.00  0.00    -0.106 C 
ATOM     16  C   LIG A   1      -6.236  -1.916 122.549  0.00  0.00    +0.004 C 
ENDBRANCH  14  15
ENDBRANCH  13  14
ENDBRANCH  12  13
ENDBRANCH  11  12
ENDBRANCH  10  11
ENDBRANCH   9  10
ENDBRANCH   8   9
ENDBRANCH   7   8
ENDBRANCH   6   7
BRANCH   4  17
ATOM     17  C   LIG A   1      -6.263   1.859 125.046  0.00  0.00    +0.048 C 
BRANCH  17  18
ATOM     18  C   LIG A   1      -6.889   3.146 124.435  0.00  0.00    +0.145 C 
BRANCH  18  19
ATOM     19  C   LIG A   1      -6.174   3.540 123.124  0.00  0.00    +0.191 C 
BRANCH  19  20
ATOM     20  O   LIG A   1      -6.907   3.265 121.925  0.00  0.00    -0.375 OA
BRANCH  20  21
ATOM     21  C   LIG A   1      -6.126   3.584 120.754  0.00  0.00    +0.112 C 
ATOM     22  C   LIG A   1      -6.993   4.200 119.657  0.00  0.00    +0.037 C 
ATOM     23  C   LIG A   1      -5.025   4.563 121.145  0.00  0.00    +0.037 C 
ENDBRANCH  20  21
ENDBRANCH  19  20
ENDBRANCH  18  19
BRANCH  18  24
ATOM     24  O   LIG A   1      -6.813   4.217 125.413  0.00  0.00    -0.372 OA
BRANCH  24  25
ATOM     25  C   LIG A   1      -6.270   3.890 126.710  0.00  0.00    +0.112 C 
ATOM     26  C   LIG A   1      -4.989   4.668 127.016  0.00  0.00    +0.037 C 
ATOM     27  C   LIG A   1      -7.338   4.102 127.797  0.00  0.00    +0.037 C 
ENDBRANCH  24  25
ENDBRANCH  18  24
ENDBRANCH  17  18
ENDBRANCH   4  17
TORSDOF 16
ENDMDL
MODEL 5
REMARK VINA RESULT:      -5.9      1.865      3.784
REMARK  Name = NuBBE_1800
REMARK  20 active torsions:
REMARK  status: ('A' for Active; 'I' for Inactive)
REMARK    1  A    between atoms: C_4  and  C_5
REMARK    2  A    between atoms: C_5  and  C_6
REMARK    3  A    between atoms: C_6  and  O_7
REMARK    4  A    between atoms: C_6  and  C_11
REMARK    5  A    between atoms: O_7  and  C_8
REMARK    6  A    between atoms: C_8  and  C_9
REMARK    7  A    between atoms: C_8  and  C_10
REMARK    8  A    between atoms: C_11  and  O_12
REMARK    9  A    between atoms: O_12  and  C_13
REMARK   10  A    between atoms: C_13  and  C_14
REMARK   11  A    between atoms: C_13  and  C_15
REMARK   12  A    between atoms: C_17  and  C_18
REMARK   13  A    between atoms: C_18  and  C_19
REMARK   14  A    between atoms: C_19  and  C_20
REMARK   15  A    between atoms: C_20  and  C_21
REMARK   16  A    between atoms: C_21  and  C_22
REMARK   17  A    between atoms: C_22  and  C_23
REMARK   18  A    between atoms: C_23  and  C_24
REMARK   19  A    between atoms: C_24  and  C_25
REMARK   20  A    between atoms: C_25  and  C_26
REMARK                            x       y       z     vdW  Elec       q    Type
REMARK                         _______ _______ _______ _____ _____    ______ ____
ROOT
ATOM      1  O   LIG A   1      -7.290   1.905 129.556  0.00  0.00    -0.251 OA
ATOM      2  C   LIG A   1      -6.863   1.148 128.699  0.00  0.00    +0.311 C 
ATOM      3  O   LIG A   1      -6.611  -0.185 128.920  0.00  0.00    -0.461 OA
ATOM      4  C   LIG A   1      -6.591   1.510 127.250  0.00  0.00    +0.104 C 
ATOM      5  C   LIG A   1      -6.744   0.116 126.641  0.00  0.00    +0.059 C 
ATOM      6  C   LIG A   1      -6.120  -0.770 127.710  0.00  0.00    +0.177 C 
ENDROOT
BRANCH   6   7
ATOM      7  C   LIG A   1      -6.446  -2.277 127.635  0.00  0.00    +0.045 C 
BRANCH   7   8
ATOM      8  C   LIG A   1      -7.959  -2.543 127.383  0.00  0.00    +0.003 C 
BRANCH   8   9
ATOM      9  C   LIG A   1      -8.248  -3.383 126.117  0.00  0.00    +0.000 C 
BRANCH   9  10
ATOM     10  C   LIG A   1      -9.445  -2.875 125.268  0.00  0.00    -0.000 C 
BRANCH  10  11
ATOM     11  C   LIG A   1      -9.263  -3.220 123.765  0.00  0.00    +0.000 C 
BRANCH  11  12
ATOM     12  C   LIG A   1      -8.871  -2.022 122.879  0.00  0.00    +0.001 C 
BRANCH  12  13
ATOM     13  C   LIG A   1      -7.555  -1.294 123.256  0.00  0.00    +0.013 C 
BRANCH  13  14
ATOM     14  C   LIG A   1      -6.278  -1.805 122.584  0.00  0.00    +0.088 C 
BRANCH  14  15
ATOM     15  C   LIG A   1      -5.571  -2.756 123.453  0.00  0.00    -0.106 C 
ATOM     16  C   LIG A   1      -4.966  -3.543 124.092  0.00  0.00    +0.004 C 
ENDBRANCH  14  15
ENDBRANCH  13  14
ENDBRANCH  12  13
ENDBRANCH  11  12
ENDBRANCH  10  11
ENDBRANCH   9  10
ENDBRANCH   8   9
ENDBRANCH   7   8
ENDBRANCH   6   7
BRANCH   4  17
ATOM     17  C   LIG A   1      -5.220   2.197 127.041  0.00  0.00    +0.048 C 
BRANCH  17  18
ATOM     18  C   LIG A   1      -5.266   3.460 126.134  0.00  0.00    +0.145 C 
BRANCH  18  19
ATOM     19  C   LIG A   1      -5.709   3.096 124.700  0.00  0.00    +0.191 C 
BRANCH  19  20
ATOM     20  O   LIG A   1      -5.590   4.152 123.740  0.00  0.00    -0.375 OA
BRANCH  20  21
ATOM     21  C   LIG A   1      -6.221   3.793 122.492  0.00  0.00    +0.112 C 
ATOM     22  C   LIG A   1      -5.237   3.872 121.326  0.00  0.00    +0.037 C 
ATOM     23  C   LIG A   1      -6.767   2.373 122.603  0.00  0.00    +0.037 C 
ENDBRANCH  20  21
ENDBRANCH  19  20
ENDBRANCH  18  19
BRANCH  18  24
ATOM     24  O   LIG A   1      -3.956   4.086 126.132  0.00  0.00    -0.372 OA
BRANCH  24  25
ATOM     25  C   LIG A   1      -2.963   3.545 127.030  0.00  0.00    +0.112 C 
ATOM     26  C   LIG A   1      -1.715   3.058 126.292  0.00  0.00    +0.037 C 
ATOM     27  C   LIG A   1      -2.615   4.579 128.115  0.00  0.00    +0.037 C 
ENDBRANCH  24  25
ENDBRANCH  18  24
ENDBRANCH  17  18
ENDBRANCH   4  17
TORSDOF 16
ENDMDL
MODEL 6
REMARK VINA RESULT:      -5.9      5.045      6.182
REMARK  Name = NuBBE_1800
REMARK  20 active torsions:
REMARK  status: ('A' for Active; 'I' for Inactive)
REMARK    1  A    between atoms: C_4  and  C_5
REMARK    2  A    between atoms: C_5  and  C_6
REMARK    3  A    between atoms: C_6  and  O_7
REMARK    4  A    between atoms: C_6  and  C_11
REMARK    5  A    between atoms: O_7  and  C_8
REMARK    6  A    between atoms: C_8  and  C_9
REMARK    7  A    between atoms: C_8  and  C_10
REMARK    8  A    between atoms: C_11  and  O_12
REMARK    9  A    between atoms: O_12  and  C_13
REMARK   10  A    between atoms: C_13  and  C_14
REMARK   11  A    between atoms: C_13  and  C_15
REMARK   12  A    between atoms: C_17  and  C_18
REMARK   13  A    between atoms: C_18  and  C_19
REMARK   14  A    between atoms: C_19  and  C_20
REMARK   15  A    between atoms: C_20  and  C_21
REMARK   16  A    between atoms: C_21  and  C_22
REMARK   17  A    between atoms: C_22  and  C_23
REMARK   18  A    between atoms: C_23  and  C_24
REMARK   19  A    between atoms: C_24  and  C_25
REMARK   20  A    between atoms: C_25  and  C_26
REMARK                            x       y       z     vdW  Elec       q    Type
REMARK                         _______ _______ _______ _____ _____    ______ ____
ROOT
ATOM      1  O   LIG A   1      -6.877   3.272 131.694  0.00  0.00    -0.251 OA
ATOM      2  C   LIG A   1      -7.650   2.369 131.417  0.00  0.00    +0.311 C 
ATOM      3  O   LIG A   1      -7.252   1.164 130.889  0.00  0.00    -0.461 OA
ATOM      4  C   LIG A   1      -9.149   2.380 131.650  0.00  0.00    +0.104 C 
ATOM      5  C   LIG A   1      -9.372   0.870 131.738  0.00  0.00    +0.059 C 
ATOM      6  C   LIG A   1      -8.407   0.343 130.685  0.00  0.00    +0.177 C 
ENDROOT
BRANCH   6   7
ATOM      7  C   LIG A   1      -8.056  -1.159 130.760  0.00  0.00    +0.045 C 
BRANCH   7   8
ATOM      8  C   LIG A   1      -7.609  -1.731 129.383  0.00  0.00    +0.003 C 
BRANCH   8   9
ATOM      9  C   LIG A   1      -8.390  -2.989 128.940  0.00  0.00    +0.000 C 
BRANCH   9  10
ATOM     10  C   LIG A   1      -8.189  -3.380 127.451  0.00  0.00    -0.000 C 
BRANCH  10  11
ATOM     11  C   LIG A   1      -8.714  -2.272 126.497  0.00  0.00    +0.000 C 
BRANCH  11  12
ATOM     12  C   LIG A   1      -8.639  -2.631 125.000  0.00  0.00    +0.001 C 
BRANCH  12  13
ATOM     13  C   LIG A   1      -7.495  -3.590 124.583  0.00  0.00    +0.013 C 
BRANCH  13  14
ATOM     14  C   LIG A   1      -6.277  -2.947 123.915  0.00  0.00    +0.088 C 
BRANCH  14  15
ATOM     15  C   LIG A   1      -5.162  -3.900 123.827  0.00  0.00    -0.106 C 
ATOM     16  C   LIG A   1      -4.236  -4.622 123.704  0.00  0.00    +0.004 C 
ENDBRANCH  14  15
ENDBRANCH  13  14
ENDBRANCH  12  13
ENDBRANCH  11  12
ENDBRANCH  10  11
ENDBRANCH   9  10
ENDBRANCH   8   9
ENDBRANCH   7   8
ENDBRANCH   6   7
BRANCH   4  17
ATOM     17  C   LIG A   1      -9.933   3.120 130.540  0.00  0.00    +0.048 C 
BRANCH  17  18
ATOM     18  C   LIG A   1     -10.295   4.594 130.881  0.00  0.00    +0.145 C 
BRANCH  18  19
ATOM     19  C   LIG A   1     -11.638   4.997 130.233  0.00  0.00    +0.191 C 
BRANCH  19  20
ATOM     20  O   LIG A   1     -11.569   6.112 129.335  0.00  0.00    -0.375 OA
BRANCH  20  21
ATOM     21  C   LIG A   1     -12.625   7.059 129.602  0.00  0.00    +0.112 C 
ATOM     22  C   LIG A   1     -12.756   7.340 131.098  0.00  0.00    +0.037 C 
ATOM     23  C   LIG A   1     -12.324   8.358 128.863  0.00  0.00    +0.037 C 
ENDBRANCH  20  21
ENDBRANCH  19  20
ENDBRANCH  18  19
BRANCH  18  24
ATOM     24  O   LIG A   1      -9.219   5.459 130.432  0.00  0.00    -0.372 OA
BRANCH  24  25
ATOM     25  C   LIG A   1      -8.745   6.460 131.358  0.00  0.00    +0.112 C 
ATOM     26  C   LIG A   1      -8.925   6.035 132.816  0.00  0.00    +0.037 C 
ATOM     27  C   LIG A   1      -7.281   6.817 131.046  0.00  0.00    +0.037 C 
ENDBRANCH  24  25
ENDBRANCH  18  24
ENDBRANCH  17  18
ENDBRANCH   4  17
TORSDOF 16
ENDMDL
MODEL 7
REMARK VINA RESULT:      -5.8      2.119      3.385
REMARK  Name = NuBBE_1800
REMARK  20 active torsions:
REMARK  status: ('A' for Active; 'I' for Inactive)
REMARK    1  A    between atoms: C_4  and  C_5
REMARK    2  A    between atoms: C_5  and  C_6
REMARK    3  A    between atoms: C_6  and  O_7
REMARK    4  A    between atoms: C_6  and  C_11
REMARK    5  A    between atoms: O_7  and  C_8
REMARK    6  A    between atoms: C_8  and  C_9
REMARK    7  A    between atoms: C_8  and  C_10
REMARK    8  A    between atoms: C_11  and  O_12
REMARK    9  A    between atoms: O_12  and  C_13
REMARK   10  A    between atoms: C_13  and  C_14
REMARK   11  A    between atoms: C_13  and  C_15
REMARK   12  A    between atoms: C_17  and  C_18
REMARK   13  A    between atoms: C_18  and  C_19
REMARK   14  A    between atoms: C_19  and  C_20
REMARK   15  A    between atoms: C_20  and  C_21
REMARK   16  A    between atoms: C_21  and  C_22
REMARK   17  A    between atoms: C_22  and  C_23
REMARK   18  A    between atoms: C_23  and  C_24
REMARK   19  A    between atoms: C_24  and  C_25
REMARK   20  A    between atoms: C_25  and  C_26
REMARK                            x       y       z     vdW  Elec       q    Type
REMARK                         _______ _______ _______ _____ _____    ______ ____
ROOT
ATOM      1  O   LIG A   1      -4.582   1.991 128.289  0.00  0.00    -0.251 OA
ATOM      2  C   LIG A   1      -5.501   1.334 127.828  0.00  0.00    +0.311 C 
ATOM      3  O   LIG A   1      -5.323   0.161 127.135  0.00  0.00    -0.461 OA
ATOM      4  C   LIG A   1      -6.979   1.647 127.978  0.00  0.00    +0.104 C 
ATOM      5  C   LIG A   1      -7.525   0.228 127.808  0.00  0.00    +0.059 C 
ATOM      6  C   LIG A   1      -6.603  -0.342 126.739  0.00  0.00    +0.177 C 
ENDROOT
BRANCH   6   7
ATOM      7  C   LIG A   1      -6.588  -1.878 126.588  0.00  0.00    +0.045 C 
BRANCH   7   8
ATOM      8  C   LIG A   1      -7.750  -2.561 127.366  0.00  0.00    +0.003 C 
BRANCH   8   9
ATOM      9  C   LIG A   1      -8.881  -3.102 126.460  0.00  0.00    +0.000 C 
BRANCH   9  10
ATOM     10  C   LIG A   1      -8.397  -3.668 125.097  0.00  0.00    -0.000 C 
BRANCH  10  11
ATOM     11  C   LIG A   1      -9.345  -3.249 123.940  0.00  0.00    +0.000 C 
BRANCH  11  12
ATOM     12  C   LIG A   1      -8.657  -2.463 122.806  0.00  0.00    +0.001 C 
BRANCH  12  13
ATOM     13  C   LIG A   1      -7.404  -1.642 123.205  0.00  0.00    +0.013 C 
BRANCH  13  14
ATOM     14  C   LIG A   1      -6.107  -1.974 122.462  0.00  0.00    +0.088 C 
BRANCH  14  15
ATOM     15  C   LIG A   1      -5.316  -2.966 123.202  0.00  0.00    -0.106 C 
ATOM     16  C   LIG A   1      -4.697  -3.728 123.859  0.00  0.00    +0.004 C 
ENDBRANCH  14  15
ENDBRANCH  13  14
ENDBRANCH  12  13
ENDBRANCH  11  12
ENDBRANCH  10  11
ENDBRANCH   9  10
ENDBRANCH   8   9
ENDBRANCH   7   8
ENDBRANCH   6   7
BRANCH   4  17
ATOM     17  C   LIG A   1      -7.486   2.696 126.960  0.00  0.00    +0.048 C 
BRANCH  17  18
ATOM     18  C   LIG A   1      -7.725   2.140 125.527  0.00  0.00    +0.145 C 
BRANCH  18  19
ATOM     19  C   LIG A   1      -6.605   2.592 124.564  0.00  0.00    +0.191 C 
BRANCH  19  20
ATOM     20  O   LIG A   1      -6.989   3.589 123.610  0.00  0.00    -0.375 OA
BRANCH  20  21
ATOM     21  C   LIG A   1      -6.327   3.379 122.344  0.00  0.00    +0.112 C 
ATOM     22  C   LIG A   1      -7.272   3.634 121.172  0.00  0.00    +0.037 C 
ATOM     23  C   LIG A   1      -5.130   4.319 122.249  0.00  0.00    +0.037 C 
ENDBRANCH  20  21
ENDBRANCH  19  20
ENDBRANCH  18  19
BRANCH  18  24
ATOM     24  O   LIG A   1      -9.025   2.586 125.060  0.00  0.00    -0.372 OA
BRANCH  24  25
ATOM     25  C   LIG A   1      -9.905   1.587 124.500  0.00  0.00    +0.112 C 
ATOM     26  C   LIG A   1      -9.649   1.357 123.010  0.00  0.00    +0.037 C 
ATOM     27  C   LIG A   1      -9.798   0.280 125.304  0.00  0.00    +0.037 C 
ENDBRANCH  24  25
ENDBRANCH  18  24
ENDBRANCH  17  18
ENDBRANCH   4  17
TORSDOF 16
ENDMDL
MODEL 8
REMARK VINA RESULT:      -5.8      2.194      4.060
REMARK  Name = NuBBE_1800
REMARK  20 active torsions:
REMARK  status: ('A' for Active; 'I' for Inactive)
REMARK    1  A    between atoms: C_4  and  C_5
REMARK    2  A    between atoms: C_5  and  C_6
REMARK    3  A    between atoms: C_6  and  O_7
REMARK    4  A    between atoms: C_6  and  C_11
REMARK    5  A    between atoms: O_7  and  C_8
REMARK    6  A    between atoms: C_8  and  C_9
REMARK    7  A    between atoms: C_8  and  C_10
REMARK    8  A    between atoms: C_11  and  O_12
REMARK    9  A    between atoms: O_12  and  C_13
REMARK   10  A    between atoms: C_13  and  C_14
REMARK   11  A    between atoms: C_13  and  C_15
REMARK   12  A    between atoms: C_17  and  C_18
REMARK   13  A    between atoms: C_18  and  C_19
REMARK   14  A    between atoms: C_19  and  C_20
REMARK   15  A    between atoms: C_20  and  C_21
REMARK   16  A    between atoms: C_21  and  C_22
REMARK   17  A    between atoms: C_22  and  C_23
REMARK   18  A    between atoms: C_23  and  C_24
REMARK   19  A    between atoms: C_24  and  C_25
REMARK   20  A    between atoms: C_25  and  C_26
REMARK                            x       y       z     vdW  Elec       q    Type
REMARK                         _______ _______ _______ _____ _____    ______ ____
ROOT
ATOM      1  O   LIG A   1     -10.526   1.080 124.418  0.00  0.00    -0.251 OA
ATOM      2  C   LIG A   1      -9.443   1.109 124.981  0.00  0.00    +0.311 C 
ATOM      3  O   LIG A   1      -9.257   0.737 126.291  0.00  0.00    -0.461 OA
ATOM      4  C   LIG A   1      -8.121   1.498 124.345  0.00  0.00    +0.104 C 
ATOM      5  C   LIG A   1      -7.189   0.726 125.279  0.00  0.00    +0.059 C 
ATOM      6  C   LIG A   1      -7.876   0.897 126.627  0.00  0.00    +0.177 C 
ENDROOT
BRANCH   6   7
ATOM      7  C   LIG A   1      -7.448  -0.074 127.748  0.00  0.00    +0.045 C 
BRANCH   7   8
ATOM      8  C   LIG A   1      -6.449  -1.157 127.245  0.00  0.00    +0.003 C 
BRANCH   8   9
ATOM      9  C   LIG A   1      -6.602  -2.528 127.942  0.00  0.00    +0.000 C 
BRANCH   9  10
ATOM     10  C   LIG A   1      -8.048  -2.857 128.403  0.00  0.00    -0.000 C 
BRANCH  10  11
ATOM     11  C   LIG A   1      -8.770  -3.786 127.388  0.00  0.00    +0.000 C 
BRANCH  11  12
ATOM     12  C   LIG A   1      -9.199  -3.090 126.081  0.00  0.00    +0.001 C 
BRANCH  12  13
ATOM     13  C   LIG A   1      -8.565  -3.635 124.776  0.00  0.00    +0.013 C 
BRANCH  13  14
ATOM     14  C   LIG A   1      -7.818  -2.620 123.907  0.00  0.00    +0.088 C 
BRANCH  14  15
ATOM     15  C   LIG A   1      -6.365  -2.818 123.997  0.00  0.00    -0.106 C 
ATOM     16  C   LIG A   1      -5.189  -2.906 124.064  0.00  0.00    +0.004 C 
ENDBRANCH  14  15
ENDBRANCH  13  14
ENDBRANCH  12  13
ENDBRANCH  11  12
ENDBRANCH  10  11
ENDBRANCH   9  10
ENDBRANCH   8   9
ENDBRANCH   7   8
ENDBRANCH   6   7
BRANCH   4  17
ATOM     17  C   LIG A   1      -7.903   3.028 124.278  0.00  0.00    +0.048 C 
BRANCH  17  18
ATOM     18  C   LIG A   1      -6.440   3.457 123.964  0.00  0.00    +0.145 C 
BRANCH  18  19
ATOM     19  C   LIG A   1      -5.849   4.292 125.121  0.00  0.00    +0.191 C 
BRANCH  19  20
ATOM     20  O   LIG A   1      -6.127   3.794 126.435  0.00  0.00    -0.375 OA
BRANCH  20  21
ATOM     21  C   LIG A   1      -4.909   3.608 127.188  0.00  0.00    +0.112 C 
ATOM     22  C   LIG A   1      -5.189   3.517 128.686  0.00  0.00    +0.037 C 
ATOM     23  C   LIG A   1      -4.226   2.327 126.717  0.00  0.00    +0.037 C 
ENDBRANCH  20  21
ENDBRANCH  19  20
ENDBRANCH  18  19
BRANCH  18  24
ATOM     24  O   LIG A   1      -6.426   4.205 122.720  0.00  0.00    -0.372 OA
BRANCH  24  25
ATOM     25  C   LIG A   1      -6.454   3.446 121.492  0.00  0.00    +0.112 C 
ATOM     26  C   LIG A   1      -7.583   3.890 120.560  0.00  0.00    +0.037 C 
ATOM     27  C   LIG A   1      -5.082   3.516 120.798  0.00  0.00    +0.037 C 
ENDBRANCH  24  25
ENDBRANCH  18  24
ENDBRANCH  17  18
ENDBRANCH   4  17
TORSDOF 16
ENDMDL
MODEL 9
REMARK VINA RESULT:      -5.8      2.557      3.549
REMARK  Name = NuBBE_1800
REMARK  20 active torsions:
REMARK  status: ('A' for Active; 'I' for Inactive)
REMARK    1  A    between atoms: C_4  and  C_5
REMARK    2  A    between atoms: C_5  and  C_6
REMARK    3  A    between atoms: C_6  and  O_7
REMARK    4  A    between atoms: C_6  and  C_11
REMARK    5  A    between atoms: O_7  and  C_8
REMARK    6  A    between atoms: C_8  and  C_9
REMARK    7  A    between atoms: C_8  and  C_10
REMARK    8  A    between atoms: C_11  and  O_12
REMARK    9  A    between atoms: O_12  and  C_13
REMARK   10  A    between atoms: C_13  and  C_14
REMARK   11  A    between atoms: C_13  and  C_15
REMARK   12  A    between atoms: C_17  and  C_18
REMARK   13  A    between atoms: C_18  and  C_19
REMARK   14  A    between atoms: C_19  and  C_20
REMARK   15  A    between atoms: C_20  and  C_21
REMARK   16  A    between atoms: C_21  and  C_22
REMARK   17  A    between atoms: C_22  and  C_23
REMARK   18  A    between atoms: C_23  and  C_24
REMARK   19  A    between atoms: C_24  and  C_25
REMARK   20  A    between atoms: C_25  and  C_26
REMARK                            x       y       z     vdW  Elec       q    Type
REMARK                         _______ _______ _______ _____ _____    ______ ____
ROOT
ATOM      1  O   LIG A   1      -5.524   0.678 125.918  0.00  0.00    -0.251 OA
ATOM      2  C   LIG A   1      -6.465   0.121 126.460  0.00  0.00    +0.311 C 
ATOM      3  O   LIG A   1      -6.939  -1.112 126.083  0.00  0.00    -0.461 OA
ATOM      4  C   LIG A   1      -7.234   0.644 127.660  0.00  0.00    +0.104 C 
ATOM      5  C   LIG A   1      -7.737  -0.694 128.202  0.00  0.00    +0.059 C 
ATOM      6  C   LIG A   1      -8.044  -1.461 126.923  0.00  0.00    +0.177 C 
ENDROOT
BRANCH   6   7
ATOM      7  C   LIG A   1      -8.195  -2.992 127.055  0.00  0.00    +0.045 C 
BRANCH   7   8
ATOM      8  C   LIG A   1      -8.256  -3.702 125.672  0.00  0.00    +0.003 C 
BRANCH   8   9
ATOM      9  C   LIG A   1      -9.370  -3.172 124.741  0.00  0.00    +0.000 C 
BRANCH   9  10
ATOM     10  C   LIG A   1      -8.918  -2.919 123.276  0.00  0.00    -0.000 C 
BRANCH  10  11
ATOM     11  C   LIG A   1      -8.675  -1.409 123.010  0.00  0.00    +0.000 C 
BRANCH  11  12
ATOM     12  C   LIG A   1      -7.192  -1.022 122.845  0.00  0.00    +0.001 C 
BRANCH  12  13
ATOM     13  C   LIG A   1      -6.205  -2.189 122.590  0.00  0.00    +0.013 C 
BRANCH  13  14
ATOM     14  C   LIG A   1      -5.240  -2.526 123.730  0.00  0.00    +0.088 C 
BRANCH  14  15
ATOM     15  C   LIG A   1      -4.746  -3.904 123.612  0.00  0.00    -0.106 C 
ATOM     16  C   LIG A   1      -4.281  -4.986 123.524  0.00  0.00    +0.004 C 
ENDBRANCH  14  15
ENDBRANCH  13  14
ENDBRANCH  12  13
ENDBRANCH  11  12
ENDBRANCH  10  11
ENDBRANCH   9  10
ENDBRANCH   8   9
ENDBRANCH   7   8
ENDBRANCH   6   7
BRANCH   4  17
ATOM     17  C   LIG A   1      -8.322   1.678 127.283  0.00  0.00    +0.048 C 
BRANCH  17  18
ATOM     18  C   LIG A   1      -7.770   3.076 126.881  0.00  0.00    +0.145 C 
BRANCH  18  19
ATOM     19  C   LIG A   1      -7.776   4.040 128.088  0.00  0.00    +0.191 C 
BRANCH  19  20
ATOM     20  O   LIG A   1      -9.011   4.100 128.812  0.00  0.00    -0.375 OA
BRANCH  20  21
ATOM     21  C   LIG A   1      -8.794   3.901 130.225  0.00  0.00    +0.112 C 
ATOM     22  C   LIG A   1      -9.453   2.612 130.713  0.00  0.00    +0.037 C 
ATOM     23  C   LIG A   1      -7.294   3.842 130.493  0.00  0.00    +0.037 C 
ENDBRANCH  20  21
ENDBRANCH  19  20
ENDBRANCH  18  19
BRANCH  18  24
ATOM     24  O   LIG A   1      -8.570   3.602 125.789  0.00  0.00    -0.372 OA
BRANCH  24  25
ATOM     25  C   LIG A   1      -7.980   3.587 124.472  0.00  0.00    +0.112 C 
ATOM     26  C   LIG A   1      -6.454   3.678 124.517  0.00  0.00    +0.037 C 
ATOM     27  C   LIG A   1      -8.453   2.345 123.696  0.00  0.00    +0.037 C 
ENDBRANCH  24  25
ENDBRANCH  18  24
ENDBRANCH  17  18
ENDBRANCH   4  17
TORSDOF 16
ENDMDL
