MODEL 1
REMARK VINA RESULT:      -8.9      0.000      0.000
REMARK  Name = NuBBE_1209
REMARK  14 active torsions:
REMARK  status: ('A' for Active; 'I' for Inactive)
REMARK    1  A    between atoms: O_1  and  C_2
REMARK    2  A    between atoms: C_11  and  C_29
REMARK    3  A    between atoms: C_12  and  C_28
REMARK    4  A    between atoms: C_15  and  C_17
REMARK    5  A    between atoms: C_17  and  C_19
REMARK    6  A    between atoms: C_17  and  C_20
REMARK    7  A    between atoms: C_20  and  C_21
REMARK    8  A    between atoms: C_21  and  C_22
REMARK    9  A    between atoms: C_22  and  C_23
REMARK   10  A    between atoms: C_23  and  C_24
REMARK   11  A    between atoms: C_23  and  C_26
REMARK   12  A    between atoms: C_24  and  O_25
REMARK   13  A    between atoms: C_34  and  C_35
REMARK   14  A    between atoms: C_34  and  C_36
REMARK                            x       y       z     vdW  Elec       q    Type
REMARK                         _______ _______ _______ _____ _____    ______ ____
ROOT
ATOM      1  C   LIG A   1      -2.202   5.869 128.763  0.00  0.00    +0.120 C 
ATOM      2  C   LIG A   1      -2.825   6.510 129.987  0.00  0.00    +0.032 C 
ATOM      3  C   LIG A   1      -2.956   5.489 131.091  0.00  0.00    +0.010 C 
ATOM      4  C   LIG A   1      -3.801   4.272 130.723  0.00  0.00    -0.019 C 
ATOM      5  C   LIG A   1      -3.860   3.313 131.912  0.00  0.00    +0.015 C 
ATOM      6  C   LIG A   1      -5.145   3.928 131.432  0.00  0.00    -0.019 C 
ATOM      7  C   LIG A   1      -5.759   5.024 132.251  0.00  0.00    +0.008 C 
ATOM      8  C   LIG A   1      -6.968   4.594 133.071  0.00  0.00    +0.008 C 
ATOM      9  C   LIG A   1      -8.040   3.725 132.388  0.00  0.00    -0.023 C 
ATOM     10  C   LIG A   1      -7.382   2.585 131.524  0.00  0.00    -0.023 C 
ATOM     11  C   LIG A   1      -8.554   2.129 130.608  0.00  0.00    +0.008 C 
ATOM     12  C   LIG A   1      -9.693   3.139 130.726  0.00  0.00    +0.005 C 
ATOM     13  C   LIG A   1      -9.135   4.381 131.445  0.00  0.00    -0.002 C 
ATOM     14  C   LIG A   1      -6.922   1.378 132.375  0.00  0.00    +0.012 C 
ATOM     15  C   LIG A   1      -8.867   3.133 133.596  0.00  0.00    +0.012 C 
ATOM     16  C   LIG A   1      -6.173   3.109 130.646  0.00  0.00    +0.002 C 
ATOM     17  C   LIG A   1      -5.457   2.006 129.840  0.00  0.00    +0.005 C 
ATOM     18  C   LIG A   1      -4.529   2.642 128.813  0.00  0.00    +0.005 C 
ATOM     19  C   LIG A   1      -3.463   3.647 129.340  0.00  0.00    +0.004 C 
ATOM     20  C   LIG A   1      -3.053   4.693 128.205  0.00  0.00    -0.006 C 
ATOM     21  C   LIG A   1      -4.282   5.253 127.438  0.00  0.00    +0.014 C 
ATOM     22  C   LIG A   1      -2.167   3.966 127.158  0.00  0.00    +0.014 C 
ENDROOT
BRANCH   1  23
ATOM     23  O   LIG A   1      -2.004   6.869 127.757  0.00  0.00    -0.391 OA
ATOM     24  H   LIG A   1      -1.129   6.739 127.355  0.00  0.00    +0.210 HD
ENDBRANCH   1  23
BRANCH  13  25
ATOM     25  C   LIG A   1      -8.909   5.526 130.401  0.00  0.00    -0.010 C 
ATOM     26  C   LIG A   1      -8.646   6.849 131.067  0.00  0.00    +0.008 C 
BRANCH  25  27
ATOM     27  C   LIG A   1     -10.233   5.697 129.530  0.00  0.00    +0.008 C 
BRANCH  27  28
ATOM     28  C   LIG A   1     -11.601   5.857 130.219  0.00  0.00    +0.031 C 
BRANCH  28  29
ATOM     29  C   LIG A   1     -12.397   7.154 129.982  0.00  0.00    -0.072 C 
ATOM     30  C   LIG A   1     -12.978   7.730 131.026  0.00  0.00    +0.008 C 
BRANCH  29  31
ATOM     31  C   LIG A   1     -12.497   7.843 128.600  0.00  0.00    +0.037 C 
ATOM     32  C   LIG A   1     -13.141   9.235 128.656  0.00  0.00    +0.014 C 
BRANCH  31  33
ATOM     33  C   LIG A   1     -13.160   7.062 127.464  0.00  0.00    +0.163 C 
BRANCH  33  34
ATOM     34  O   LIG A   1     -12.189   6.641 126.513  0.00  0.00    -0.394 OA
ATOM     35  H   LIG A   1     -12.231   5.672 126.478  0.00  0.00    +0.209 HD
ENDBRANCH  33  34
ENDBRANCH  31  33
ENDBRANCH  29  31
ENDBRANCH  28  29
ENDBRANCH  27  28
ENDBRANCH  25  27
ENDBRANCH  13  25
TORSDOF 8
ENDMDL
MODEL 2
REMARK VINA RESULT:      -8.8      5.083      8.265
REMARK  Name = NuBBE_1209
REMARK  14 active torsions:
REMARK  status: ('A' for Active; 'I' for Inactive)
REMARK    1  A    between atoms: O_1  and  C_2
REMARK    2  A    between atoms: C_11  and  C_29
REMARK    3  A    between atoms: C_12  and  C_28
REMARK    4  A    between atoms: C_15  and  C_17
REMARK    5  A    between atoms: C_17  and  C_19
REMARK    6  A    between atoms: C_17  and  C_20
REMARK    7  A    between atoms: C_20  and  C_21
REMARK    8  A    between atoms: C_21  and  C_22
REMARK    9  A    between atoms: C_22  and  C_23
REMARK   10  A    between atoms: C_23  and  C_24
REMARK   11  A    between atoms: C_23  and  C_26
REMARK   12  A    between atoms: C_24  and  O_25
REMARK   13  A    between atoms: C_34  and  C_35
REMARK   14  A    between atoms: C_34  and  C_36
REMARK                            x       y       z     vdW  Elec       q    Type
REMARK                         _______ _______ _______ _____ _____    ______ ____
ROOT
ATOM      1  C   LIG A   1      -3.922   4.234 127.421  0.00  0.00    +0.120 C 
ATOM      2  C   LIG A   1      -3.915   3.910 125.940  0.00  0.00    +0.032 C 
ATOM      3  C   LIG A   1      -5.298   4.101 125.366  0.00  0.00    +0.010 C 
ATOM      4  C   LIG A   1      -6.374   3.240 126.024  0.00  0.00    -0.019 C 
ATOM      5  C   LIG A   1      -7.725   3.519 125.365  0.00  0.00    +0.015 C 
ATOM      6  C   LIG A   1      -7.157   2.132 125.259  0.00  0.00    -0.019 C 
ATOM      7  C   LIG A   1      -6.575   1.698 123.947  0.00  0.00    +0.008 C 
ATOM      8  C   LIG A   1      -7.460   0.751 123.149  0.00  0.00    +0.008 C 
ATOM      9  C   LIG A   1      -8.128  -0.422 123.892  0.00  0.00    -0.023 C 
ATOM     10  C   LIG A   1      -8.726   0.045 125.271  0.00  0.00    -0.023 C 
ATOM     11  C   LIG A   1      -8.940  -1.299 126.025  0.00  0.00    +0.008 C 
ATOM     12  C   LIG A   1      -8.231  -2.413 125.258  0.00  0.00    +0.005 C 
ATOM     13  C   LIG A   1      -7.312  -1.744 124.218  0.00  0.00    -0.002 C 
ATOM     14  C   LIG A   1     -10.094   0.752 125.123  0.00  0.00    +0.012 C 
ATOM     15  C   LIG A   1      -9.261  -0.896 122.899  0.00  0.00    +0.012 C 
ATOM     16  C   LIG A   1      -7.732   0.974 126.081  0.00  0.00    +0.002 C 
ATOM     17  C   LIG A   1      -8.311   1.510 127.406  0.00  0.00    +0.005 C 
ATOM     18  C   LIG A   1      -7.196   2.126 128.242  0.00  0.00    +0.005 C 
ATOM     19  C   LIG A   1      -6.344   3.248 127.579  0.00  0.00    +0.004 C 
ATOM     20  C   LIG A   1      -4.886   3.319 128.228  0.00  0.00    -0.006 C 
ATOM     21  C   LIG A   1      -4.247   1.915 128.412  0.00  0.00    +0.014 C 
ATOM     22  C   LIG A   1      -5.006   3.943 129.644  0.00  0.00    +0.014 C 
ENDROOT
BRANCH   1  23
ATOM     23  O   LIG A   1      -2.588   4.133 127.932  0.00  0.00    -0.391 OA
ATOM     24  H   LIG A   1      -2.247   5.029 128.093  0.00  0.00    +0.210 HD
ENDBRANCH   1  23
BRANCH  13  25
ATOM     25  C   LIG A   1      -5.828  -1.833 124.708  0.00  0.00    -0.010 C 
ATOM     26  C   LIG A   1      -5.038  -2.844 123.923  0.00  0.00    +0.008 C 
BRANCH  25  27
ATOM     27  C   LIG A   1      -5.815  -2.309 126.229  0.00  0.00    +0.008 C 
BRANCH  27  28
ATOM     28  C   LIG A   1      -5.398  -1.332 127.345  0.00  0.00    +0.031 C 
BRANCH  28  29
ATOM     29  C   LIG A   1      -5.903  -1.590 128.777  0.00  0.00    -0.072 C 
ATOM     30  C   LIG A   1      -5.030  -1.509 129.771  0.00  0.00    +0.008 C 
BRANCH  29  31
ATOM     31  C   LIG A   1      -7.387  -1.879 129.109  0.00  0.00    +0.037 C 
ATOM     32  C   LIG A   1      -7.940  -1.007 130.244  0.00  0.00    +0.014 C 
BRANCH  31  33
ATOM     33  C   LIG A   1      -7.782  -3.329 129.392  0.00  0.00    +0.163 C 
BRANCH  33  34
ATOM     34  O   LIG A   1      -8.919  -3.698 128.622  0.00  0.00    -0.394 OA
ATOM     35  H   LIG A   1      -9.701  -3.387 129.107  0.00  0.00    +0.209 HD
ENDBRANCH  33  34
ENDBRANCH  31  33
ENDBRANCH  29  31
ENDBRANCH  28  29
ENDBRANCH  27  28
ENDBRANCH  25  27
ENDBRANCH  13  25
TORSDOF 8
ENDMDL
MODEL 3
REMARK VINA RESULT:      -8.6      2.363      3.341
REMARK  Name = NuBBE_1209
REMARK  14 active torsions:
REMARK  status: ('A' for Active; 'I' for Inactive)
REMARK    1  A    between atoms: O_1  and  C_2
REMARK    2  A    between atoms: C_11  and  C_29
REMARK    3  A    between atoms: C_12  and  C_28
REMARK    4  A    between atoms: C_15  and  C_17
REMARK    5  A    between atoms: C_17  and  C_19
REMARK    6  A    between atoms: C_17  and  C_20
REMARK    7  A    between atoms: C_20  and  C_21
REMARK    8  A    between atoms: C_21  and  C_22
REMARK    9  A    between atoms: C_22  and  C_23
REMARK   10  A    between atoms: C_23  and  C_24
REMARK   11  A    between atoms: C_23  and  C_26
REMARK   12  A    between atoms: C_24  and  O_25
REMARK   13  A    between atoms: C_34  and  C_35
REMARK   14  A    between atoms: C_34  and  C_36
REMARK                            x       y       z     vdW  Elec       q    Type
REMARK                         _______ _______ _______ _____ _____    ______ ____
ROOT
ATOM      1  C   LIG A   1      -5.544   3.751 124.708  0.00  0.00    +0.120 C 
ATOM      2  C   LIG A   1      -4.686   4.145 125.896  0.00  0.00    +0.032 C 
ATOM      3  C   LIG A   1      -4.571   2.984 126.853  0.00  0.00    +0.010 C 
ATOM      4  C   LIG A   1      -5.908   2.481 127.392  0.00  0.00    -0.019 C 
ATOM      5  C   LIG A   1      -5.666   1.309 128.345  0.00  0.00    +0.015 C 
ATOM      6  C   LIG A   1      -6.296   2.557 128.899  0.00  0.00    -0.019 C 
ATOM      7  C   LIG A   1      -5.456   3.460 129.753  0.00  0.00    +0.008 C 
ATOM      8  C   LIG A   1      -5.749   3.367 131.244  0.00  0.00    +0.008 C 
ATOM      9  C   LIG A   1      -7.221   3.360 131.698  0.00  0.00    -0.023 C 
ATOM     10  C   LIG A   1      -8.092   2.416 130.789  0.00  0.00    -0.023 C 
ATOM     11  C   LIG A   1      -9.544   2.875 131.110  0.00  0.00    +0.008 C 
ATOM     12  C   LIG A   1      -9.485   4.180 131.900  0.00  0.00    +0.005 C 
ATOM     13  C   LIG A   1      -8.043   4.714 131.802  0.00  0.00    -0.002 C 
ATOM     14  C   LIG A   1      -7.952   0.923 131.166  0.00  0.00    +0.012 C 
ATOM     15  C   LIG A   1      -7.150   2.830 133.184  0.00  0.00    +0.012 C 
ATOM     16  C   LIG A   1      -7.786   2.607 129.247  0.00  0.00    +0.002 C 
ATOM     17  C   LIG A   1      -8.570   1.648 128.328  0.00  0.00    +0.005 C 
ATOM     18  C   LIG A   1      -8.445   2.107 126.880  0.00  0.00    +0.005 C 
ATOM     19  C   LIG A   1      -7.006   2.282 126.310  0.00  0.00    +0.004 C 
ATOM     20  C   LIG A   1      -6.988   3.350 125.122  0.00  0.00    -0.006 C 
ATOM     21  C   LIG A   1      -7.812   4.624 125.453  0.00  0.00    +0.014 C 
ATOM     22  C   LIG A   1      -7.643   2.707 123.869  0.00  0.00    +0.014 C 
ENDROOT
BRANCH   1  23
ATOM     23  O   LIG A   1      -5.571   4.832 123.769  0.00  0.00    -0.391 OA
ATOM     24  H   LIG A   1      -6.242   4.640 123.092  0.00  0.00    +0.210 HD
ENDBRANCH   1  23
BRANCH  13  25
ATOM     25  C   LIG A   1      -8.003   5.914 130.797  0.00  0.00    -0.010 C 
ATOM     26  C   LIG A   1      -6.903   6.885 131.128  0.00  0.00    +0.008 C 
BRANCH  25  27
ATOM     27  C   LIG A   1      -9.378   6.714 130.896  0.00  0.00    +0.008 C 
BRANCH  27  28
ATOM     28  C   LIG A   1      -9.912   7.493 129.679  0.00  0.00    +0.031 C 
BRANCH  28  29
ATOM     29  C   LIG A   1     -11.429   7.493 129.413  0.00  0.00    -0.072 C 
ATOM     30  C   LIG A   1     -12.235   7.127 130.399  0.00  0.00    +0.008 C 
BRANCH  29  31
ATOM     31  C   LIG A   1     -12.051   7.958 128.074  0.00  0.00    +0.037 C 
ATOM     32  C   LIG A   1     -13.401   7.298 127.766  0.00  0.00    +0.014 C 
BRANCH  31  33
ATOM     33  C   LIG A   1     -11.183   7.866 126.818  0.00  0.00    +0.163 C 
BRANCH  33  34
ATOM     34  O   LIG A   1     -11.150   6.531 126.329  0.00  0.00    -0.394 OA
ATOM     35  H   LIG A   1     -11.830   6.467 125.639  0.00  0.00    +0.209 HD
ENDBRANCH  33  34
ENDBRANCH  31  33
ENDBRANCH  29  31
ENDBRANCH  28  29
ENDBRANCH  27  28
ENDBRANCH  25  27
ENDBRANCH  13  25
TORSDOF 8
ENDMDL
MODEL 4
REMARK VINA RESULT:      -8.6      5.132      7.547
REMARK  Name = NuBBE_1209
REMARK  14 active torsions:
REMARK  status: ('A' for Active; 'I' for Inactive)
REMARK    1  A    between atoms: O_1  and  C_2
REMARK    2  A    between atoms: C_11  and  C_29
REMARK    3  A    between atoms: C_12  and  C_28
REMARK    4  A    between atoms: C_15  and  C_17
REMARK    5  A    between atoms: C_17  and  C_19
REMARK    6  A    between atoms: C_17  and  C_20
REMARK    7  A    between atoms: C_20  and  C_21
REMARK    8  A    between atoms: C_21  and  C_22
REMARK    9  A    between atoms: C_22  and  C_23
REMARK   10  A    between atoms: C_23  and  C_24
REMARK   11  A    between atoms: C_23  and  C_26
REMARK   12  A    between atoms: C_24  and  O_25
REMARK   13  A    between atoms: C_34  and  C_35
REMARK   14  A    between atoms: C_34  and  C_36
REMARK                            x       y       z     vdW  Elec       q    Type
REMARK                         _______ _______ _______ _____ _____    ______ ____
ROOT
ATOM      1  C   LIG A   1      -6.587  -2.482 123.637  0.00  0.00    +0.120 C 
ATOM      2  C   LIG A   1      -5.473  -2.421 124.664  0.00  0.00    +0.032 C 
ATOM      3  C   LIG A   1      -6.053  -2.493 126.056  0.00  0.00    +0.010 C 
ATOM      4  C   LIG A   1      -7.044  -1.378 126.380  0.00  0.00    -0.019 C 
ATOM      5  C   LIG A   1      -7.563  -1.555 127.807  0.00  0.00    +0.015 C 
ATOM      6  C   LIG A   1      -6.785  -0.310 127.484  0.00  0.00    -0.019 C 
ATOM      7  C   LIG A   1      -5.374  -0.201 127.981  0.00  0.00    +0.008 C 
ATOM      8  C   LIG A   1      -5.199   0.720 129.181  0.00  0.00    +0.008 C 
ATOM      9  C   LIG A   1      -5.901   2.091 129.156  0.00  0.00    -0.023 C 
ATOM     10  C   LIG A   1      -7.377   1.964 128.623  0.00  0.00    -0.023 C 
ATOM     11  C   LIG A   1      -7.740   3.434 128.265  0.00  0.00    +0.008 C 
ATOM     12  C   LIG A   1      -6.467   4.278 128.298  0.00  0.00    +0.005 C 
ATOM     13  C   LIG A   1      -5.272   3.308 128.354  0.00  0.00    -0.002 C 
ATOM     14  C   LIG A   1      -8.363   1.461 129.703  0.00  0.00    +0.012 C 
ATOM     15  C   LIG A   1      -5.866   2.556 130.664  0.00  0.00    +0.012 C 
ATOM     16  C   LIG A   1      -7.482   1.046 127.338  0.00  0.00    +0.002 C 
ATOM     17  C   LIG A   1      -8.924   0.840 126.829  0.00  0.00    +0.005 C 
ATOM     18  C   LIG A   1      -8.894   0.214 125.440  0.00  0.00    +0.005 C 
ATOM     19  C   LIG A   1      -8.111  -1.123 125.278  0.00  0.00    +0.004 C 
ATOM     20  C   LIG A   1      -7.593  -1.305 123.779  0.00  0.00    -0.006 C 
ATOM     21  C   LIG A   1      -6.965  -0.006 123.203  0.00  0.00    +0.014 C 
ATOM     22  C   LIG A   1      -8.807  -1.652 122.875  0.00  0.00    +0.014 C 
ENDROOT
BRANCH   1  23
ATOM     23  O   LIG A   1      -6.016  -2.501 122.324  0.00  0.00    -0.391 OA
ATOM     24  H   LIG A   1      -6.585  -3.035 121.745  0.00  0.00    +0.210 HD
ENDBRANCH   1  23
BRANCH  13  25
ATOM     25  C   LIG A   1      -4.588   3.250 126.947  0.00  0.00    -0.010 C 
ATOM     26  C   LIG A   1      -3.108   3.507 127.032  0.00  0.00    +0.008 C 
BRANCH  25  27
ATOM     27  C   LIG A   1      -5.208   4.393 126.025  0.00  0.00    +0.008 C 
BRANCH  27  28
ATOM     28  C   LIG A   1      -5.319   4.187 124.502  0.00  0.00    +0.031 C 
BRANCH  28  29
ATOM     29  C   LIG A   1      -6.661   3.701 123.921  0.00  0.00    -0.072 C 
ATOM     30  C   LIG A   1      -7.719   3.690 124.720  0.00  0.00    +0.008 C 
BRANCH  29  31
ATOM     31  C   LIG A   1      -6.838   3.287 122.441  0.00  0.00    +0.037 C 
ATOM     32  C   LIG A   1      -5.878   4.007 121.485  0.00  0.00    +0.014 C 
BRANCH  31  33
ATOM     33  C   LIG A   1      -8.245   3.367 121.845  0.00  0.00    +0.163 C 
BRANCH  33  34
ATOM     34  O   LIG A   1      -8.223   4.055 120.601  0.00  0.00    -0.394 OA
ATOM     35  H   LIG A   1      -7.309   4.025 120.278  0.00  0.00    +0.209 HD
ENDBRANCH  33  34
ENDBRANCH  31  33
ENDBRANCH  29  31
ENDBRANCH  28  29
ENDBRANCH  27  28
ENDBRANCH  25  27
ENDBRANCH  13  25
TORSDOF 8
ENDMDL
MODEL 5
REMARK VINA RESULT:      -8.5      1.551      2.167
REMARK  Name = NuBBE_1209
REMARK  14 active torsions:
REMARK  status: ('A' for Active; 'I' for Inactive)
REMARK    1  A    between atoms: O_1  and  C_2
REMARK    2  A    between atoms: C_11  and  C_29
REMARK    3  A    between atoms: C_12  and  C_28
REMARK    4  A    between atoms: C_15  and  C_17
REMARK    5  A    between atoms: C_17  and  C_19
REMARK    6  A    between atoms: C_17  and  C_20
REMARK    7  A    between atoms: C_20  and  C_21
REMARK    8  A    between atoms: C_21  and  C_22
REMARK    9  A    between atoms: C_22  and  C_23
REMARK   10  A    between atoms: C_23  and  C_24
REMARK   11  A    between atoms: C_23  and  C_26
REMARK   12  A    between atoms: C_24  and  O_25
REMARK   13  A    between atoms: C_34  and  C_35
REMARK   14  A    between atoms: C_34  and  C_36
REMARK                            x       y       z     vdW  Elec       q    Type
REMARK                         _______ _______ _______ _____ _____    ______ ____
ROOT
ATOM      1  C   LIG A   1      -2.161   5.779 131.421  0.00  0.00    +0.120 C 
ATOM      2  C   LIG A   1      -2.763   5.053 132.608  0.00  0.00    +0.032 C 
ATOM      3  C   LIG A   1      -3.050   3.618 132.241  0.00  0.00    +0.010 C 
ATOM      4  C   LIG A   1      -4.006   3.451 131.062  0.00  0.00    -0.019 C 
ATOM      5  C   LIG A   1      -4.218   1.963 130.783  0.00  0.00    +0.015 C 
ATOM      6  C   LIG A   1      -5.407   2.785 131.196  0.00  0.00    -0.019 C 
ATOM      7  C   LIG A   1      -5.933   2.626 132.591  0.00  0.00    +0.008 C 
ATOM      8  C   LIG A   1      -7.214   1.811 132.691  0.00  0.00    +0.008 C 
ATOM      9  C   LIG A   1      -8.345   2.103 131.687  0.00  0.00    -0.023 C 
ATOM     10  C   LIG A   1      -7.779   2.276 130.228  0.00  0.00    -0.023 C 
ATOM     11  C   LIG A   1      -8.953   2.975 129.485  0.00  0.00    +0.008 C 
ATOM     12  C   LIG A   1      -9.981   3.441 130.515  0.00  0.00    +0.005 C 
ATOM     13  C   LIG A   1      -9.322   3.335 131.903  0.00  0.00    -0.002 C 
ATOM     14  C   LIG A   1      -7.488   0.926 129.533  0.00  0.00    +0.012 C 
ATOM     15  C   LIG A   1      -9.281   0.836 131.799  0.00  0.00    +0.012 C 
ATOM     16  C   LIG A   1      -6.484   3.187 130.184  0.00  0.00    +0.002 C 
ATOM     17  C   LIG A   1      -5.859   3.322 128.780  0.00  0.00    +0.005 C 
ATOM     18  C   LIG A   1      -4.825   4.441 128.784  0.00  0.00    +0.005 C 
ATOM     19  C   LIG A   1      -3.679   4.349 129.835  0.00  0.00    +0.004 C 
ATOM     20  C   LIG A   1      -3.111   5.799 130.189  0.00  0.00    -0.006 C 
ATOM     21  C   LIG A   1      -4.239   6.843 130.413  0.00  0.00    +0.014 C 
ATOM     22  C   LIG A   1      -2.266   6.306 128.989  0.00  0.00    +0.014 C 
ENDROOT
BRANCH   1  23
ATOM     23  O   LIG A   1      -1.814   7.113 131.810  0.00  0.00    -0.391 OA
ATOM     24  H   LIG A   1      -1.738   7.662 131.012  0.00  0.00    +0.210 HD
ENDBRANCH   1  23
BRANCH  13  25
ATOM     25  C   LIG A   1      -8.930   4.767 132.400  0.00  0.00    -0.010 C 
ATOM     26  C   LIG A   1      -8.645   4.790 133.877  0.00  0.00    +0.008 C 
BRANCH  25  27
ATOM     27  C   LIG A   1     -10.155   5.754 132.145  0.00  0.00    +0.008 C 
BRANCH  27  28
ATOM     28  C   LIG A   1     -10.085   6.804 131.020  0.00  0.00    +0.031 C 
BRANCH  28  29
ATOM     29  C   LIG A   1     -11.327   7.016 130.133  0.00  0.00    -0.072 C 
ATOM     30  C   LIG A   1     -12.500   7.171 130.730  0.00  0.00    +0.008 C 
BRANCH  29  31
ATOM     31  C   LIG A   1     -11.255   7.118 128.591  0.00  0.00    +0.037 C 
ATOM     32  C   LIG A   1     -10.587   8.407 128.093  0.00  0.00    +0.014 C 
BRANCH  31  33
ATOM     33  C   LIG A   1     -12.553   6.925 127.805  0.00  0.00    +0.163 C 
BRANCH  33  34
ATOM     34  O   LIG A   1     -12.275   6.650 126.438  0.00  0.00    -0.394 OA
ATOM     35  H   LIG A   1     -12.563   5.738 126.270  0.00  0.00    +0.209 HD
ENDBRANCH  33  34
ENDBRANCH  31  33
ENDBRANCH  29  31
ENDBRANCH  28  29
ENDBRANCH  27  28
ENDBRANCH  25  27
ENDBRANCH  13  25
TORSDOF 8
ENDMDL
MODEL 6
REMARK VINA RESULT:      -8.5      4.507      7.616
REMARK  Name = NuBBE_1209
REMARK  14 active torsions:
REMARK  status: ('A' for Active; 'I' for Inactive)
REMARK    1  A    between atoms: O_1  and  C_2
REMARK    2  A    between atoms: C_11  and  C_29
REMARK    3  A    between atoms: C_12  and  C_28
REMARK    4  A    between atoms: C_15  and  C_17
REMARK    5  A    between atoms: C_17  and  C_19
REMARK    6  A    between atoms: C_17  and  C_20
REMARK    7  A    between atoms: C_20  and  C_21
REMARK    8  A    between atoms: C_21  and  C_22
REMARK    9  A    between atoms: C_22  and  C_23
REMARK   10  A    between atoms: C_23  and  C_24
REMARK   11  A    between atoms: C_23  and  C_26
REMARK   12  A    between atoms: C_24  and  O_25
REMARK   13  A    between atoms: C_34  and  C_35
REMARK   14  A    between atoms: C_34  and  C_36
REMARK                            x       y       z     vdW  Elec       q    Type
REMARK                         _______ _______ _______ _____ _____    ______ ____
ROOT
ATOM      1  C   LIG A   1      -9.433   3.670 130.835  0.00  0.00    +0.120 C 
ATOM      2  C   LIG A   1     -10.027   2.437 131.489  0.00  0.00    +0.032 C 
ATOM      3  C   LIG A   1      -9.080   1.905 132.537  0.00  0.00    +0.010 C 
ATOM      4  C   LIG A   1      -7.701   1.528 132.001  0.00  0.00    -0.019 C 
ATOM      5  C   LIG A   1      -6.833   1.006 133.147  0.00  0.00    +0.015 C 
ATOM      6  C   LIG A   1      -7.156   0.068 132.018  0.00  0.00    -0.019 C 
ATOM      7  C   LIG A   1      -8.169  -1.012 132.257  0.00  0.00    +0.008 C 
ATOM      8  C   LIG A   1      -7.574  -2.400 132.447  0.00  0.00    +0.008 C 
ATOM      9  C   LIG A   1      -6.470  -2.860 131.476  0.00  0.00    -0.023 C 
ATOM     10  C   LIG A   1      -5.419  -1.714 131.227  0.00  0.00    -0.023 C 
ATOM     11  C   LIG A   1      -4.685  -2.195 129.943  0.00  0.00    +0.008 C 
ATOM     12  C   LIG A   1      -5.464  -3.361 129.337  0.00  0.00    +0.005 C 
ATOM     13  C   LIG A   1      -6.837  -3.409 130.033  0.00  0.00    -0.002 C 
ATOM     14  C   LIG A   1      -4.385  -1.589 132.370  0.00  0.00    +0.012 C 
ATOM     15  C   LIG A   1      -5.816  -4.095 132.211  0.00  0.00    +0.012 C 
ATOM     16  C   LIG A   1      -6.103  -0.308 130.972  0.00  0.00    +0.002 C 
ATOM     17  C   LIG A   1      -5.104   0.853 130.795  0.00  0.00    +0.005 C 
ATOM     18  C   LIG A   1      -5.832   2.079 130.257  0.00  0.00    +0.005 C 
ATOM     19  C   LIG A   1      -7.057   2.594 131.070  0.00  0.00    +0.004 C 
ATOM     20  C   LIG A   1      -8.081   3.376 130.126  0.00  0.00    -0.006 C 
ATOM     21  C   LIG A   1      -8.340   2.638 128.785  0.00  0.00    +0.014 C 
ATOM     22  C   LIG A   1      -7.464   4.755 129.764  0.00  0.00    +0.014 C 
ENDROOT
BRANCH   1  23
ATOM     23  O   LIG A   1     -10.380   4.212 129.907  0.00  0.00    -0.391 OA
ATOM     24  H   LIG A   1      -9.897   4.589 129.153  0.00  0.00    +0.210 HD
ENDBRANCH   1  23
BRANCH  13  25
ATOM     25  C   LIG A   1      -7.928  -2.841 129.064  0.00  0.00    -0.010 C 
ATOM     26  C   LIG A   1      -8.765  -3.935 128.460  0.00  0.00    +0.008 C 
BRANCH  25  27
ATOM     27  C   LIG A   1      -7.205  -2.088 127.859  0.00  0.00    +0.008 C 
BRANCH  27  28
ATOM     28  C   LIG A   1      -7.809  -0.797 127.276  0.00  0.00    +0.031 C 
BRANCH  28  29
ATOM     29  C   LIG A   1      -8.574  -0.879 125.942  0.00  0.00    -0.072 C 
ATOM     30  C   LIG A   1      -9.471   0.061 125.677  0.00  0.00    +0.008 C 
BRANCH  29  31
ATOM     31  C   LIG A   1      -8.300  -1.968 124.878  0.00  0.00    +0.037 C 
ATOM     32  C   LIG A   1      -8.077  -1.404 123.468  0.00  0.00    +0.014 C 
BRANCH  31  33
ATOM     33  C   LIG A   1      -9.297  -3.124 124.771  0.00  0.00    +0.163 C 
BRANCH  33  34
ATOM     34  O   LIG A   1     -10.013  -3.056 123.544  0.00  0.00    -0.394 OA
ATOM     35  H   LIG A   1      -9.910  -3.918 123.110  0.00  0.00    +0.209 HD
ENDBRANCH  33  34
ENDBRANCH  31  33
ENDBRANCH  29  31
ENDBRANCH  28  29
ENDBRANCH  27  28
ENDBRANCH  25  27
ENDBRANCH  13  25
TORSDOF 8
ENDMDL
MODEL 7
REMARK VINA RESULT:      -8.5      2.636      6.693
REMARK  Name = NuBBE_1209
REMARK  14 active torsions:
REMARK  status: ('A' for Active; 'I' for Inactive)
REMARK    1  A    between atoms: O_1  and  C_2
REMARK    2  A    between atoms: C_11  and  C_29
REMARK    3  A    between atoms: C_12  and  C_28
REMARK    4  A    between atoms: C_15  and  C_17
REMARK    5  A    between atoms: C_17  and  C_19
REMARK    6  A    between atoms: C_17  and  C_20
REMARK    7  A    between atoms: C_20  and  C_21
REMARK    8  A    between atoms: C_21  and  C_22
REMARK    9  A    between atoms: C_22  and  C_23
REMARK   10  A    between atoms: C_23  and  C_24
REMARK   11  A    between atoms: C_23  and  C_26
REMARK   12  A    between atoms: C_24  and  O_25
REMARK   13  A    between atoms: C_34  and  C_35
REMARK   14  A    between atoms: C_34  and  C_36
REMARK                            x       y       z     vdW  Elec       q    Type
REMARK                         _______ _______ _______ _____ _____    ______ ____
ROOT
ATOM      1  C   LIG A   1      -9.214   3.466 132.394  0.00  0.00    +0.120 C 
ATOM      2  C   LIG A   1      -7.887   2.786 132.674  0.00  0.00    +0.032 C 
ATOM      3  C   LIG A   1      -6.957   3.745 133.375  0.00  0.00    +0.010 C 
ATOM      4  C   LIG A   1      -6.667   5.023 132.593  0.00  0.00    -0.019 C 
ATOM      5  C   LIG A   1      -5.720   5.912 133.400  0.00  0.00    +0.015 C 
ATOM      6  C   LIG A   1      -5.247   5.393 132.071  0.00  0.00    -0.019 C 
ATOM      7  C   LIG A   1      -4.238   4.283 132.058  0.00  0.00    +0.008 C 
ATOM      8  C   LIG A   1      -2.822   4.725 131.716  0.00  0.00    +0.008 C 
ATOM      9  C   LIG A   1      -2.625   5.688 130.530  0.00  0.00    -0.023 C 
ATOM     10  C   LIG A   1      -3.696   6.842 130.550  0.00  0.00    -0.023 C 
ATOM     11  C   LIG A   1      -3.614   7.411 129.104  0.00  0.00    +0.008 C 
ATOM     12  C   LIG A   1      -2.789   6.456 128.244  0.00  0.00    +0.005 C 
ATOM     13  C   LIG A   1      -2.626   5.146 129.038  0.00  0.00    -0.002 C 
ATOM     14  C   LIG A   1      -3.342   7.971 131.546  0.00  0.00    +0.012 C 
ATOM     15  C   LIG A   1      -1.164   6.248 130.742  0.00  0.00    +0.012 C 
ATOM     16  C   LIG A   1      -5.157   6.309 130.847  0.00  0.00    +0.002 C 
ATOM     17  C   LIG A   1      -6.222   7.420 130.946  0.00  0.00    +0.005 C 
ATOM     18  C   LIG A   1      -7.614   6.800 130.924  0.00  0.00    +0.005 C 
ATOM     19  C   LIG A   1      -7.926   5.711 131.993  0.00  0.00    +0.004 C 
ATOM     20  C   LIG A   1      -9.063   4.714 131.480  0.00  0.00    -0.006 C 
ATOM     21  C   LIG A   1      -8.843   4.265 130.010  0.00  0.00    +0.014 C 
ATOM     22  C   LIG A   1     -10.426   5.457 131.520  0.00  0.00    +0.014 C 
ENDROOT
BRANCH   1  23
ATOM     23  O   LIG A   1     -10.114   2.519 131.808  0.00  0.00    -0.391 OA
ATOM     24  H   LIG A   1      -9.719   1.633 131.871  0.00  0.00    +0.210 HD
ENDBRANCH   1  23
BRANCH  13  25
ATOM     25  C   LIG A   1      -3.575   4.055 128.437  0.00  0.00    -0.010 C 
ATOM     26  C   LIG A   1      -2.822   3.053 127.605  0.00  0.00    +0.008 C 
BRANCH  25  27
ATOM     27  C   LIG A   1      -4.629   4.764 127.474  0.00  0.00    +0.008 C 
BRANCH  27  28
ATOM     28  C   LIG A   1      -6.096   4.293 127.447  0.00  0.00    +0.031 C 
BRANCH  28  29
ATOM     29  C   LIG A   1      -6.448   3.027 126.643  0.00  0.00    -0.072 C 
ATOM     30  C   LIG A   1      -6.441   1.863 127.278  0.00  0.00    +0.008 C 
BRANCH  29  31
ATOM     31  C   LIG A   1      -6.866   3.063 125.154  0.00  0.00    +0.037 C 
ATOM     32  C   LIG A   1      -6.238   4.224 124.370  0.00  0.00    +0.014 C 
BRANCH  31  33
ATOM     33  C   LIG A   1      -8.361   3.033 124.835  0.00  0.00    +0.163 C 
BRANCH  33  34
ATOM     34  O   LIG A   1      -8.988   4.238 125.257  0.00  0.00    -0.394 OA
ATOM     35  H   LIG A   1      -9.040   4.816 124.479  0.00  0.00    +0.209 HD
ENDBRANCH  33  34
ENDBRANCH  31  33
ENDBRANCH  29  31
ENDBRANCH  28  29
ENDBRANCH  27  28
ENDBRANCH  25  27
ENDBRANCH  13  25
TORSDOF 8
ENDMDL
MODEL 8
REMARK VINA RESULT:      -8.5      4.181      6.155
REMARK  Name = NuBBE_1209
REMARK  14 active torsions:
REMARK  status: ('A' for Active; 'I' for Inactive)
REMARK    1  A    between atoms: O_1  and  C_2
REMARK    2  A    between atoms: C_11  and  C_29
REMARK    3  A    between atoms: C_12  and  C_28
REMARK    4  A    between atoms: C_15  and  C_17
REMARK    5  A    between atoms: C_17  and  C_19
REMARK    6  A    between atoms: C_17  and  C_20
REMARK    7  A    between atoms: C_20  and  C_21
REMARK    8  A    between atoms: C_21  and  C_22
REMARK    9  A    between atoms: C_22  and  C_23
REMARK   10  A    between atoms: C_23  and  C_24
REMARK   11  A    between atoms: C_23  and  C_26
REMARK   12  A    between atoms: C_24  and  O_25
REMARK   13  A    between atoms: C_34  and  C_35
REMARK   14  A    between atoms: C_34  and  C_36
REMARK                            x       y       z     vdW  Elec       q    Type
REMARK                         _______ _______ _______ _____ _____    ______ ____
ROOT
ATOM      1  C   LIG A   1      -6.954  -1.636 124.558  0.00  0.00    +0.120 C 
ATOM      2  C   LIG A   1      -6.069  -0.535 125.109  0.00  0.00    +0.032 C 
ATOM      3  C   LIG A   1      -5.291  -1.047 126.297  0.00  0.00    +0.010 C 
ATOM      4  C   LIG A   1      -6.161  -1.560 127.442  0.00  0.00    -0.019 C 
ATOM      5  C   LIG A   1      -5.267  -2.051 128.581  0.00  0.00    +0.015 C 
ATOM      6  C   LIG A   1      -6.187  -0.893 128.849  0.00  0.00    -0.019 C 
ATOM      7  C   LIG A   1      -5.595   0.481 128.941  0.00  0.00    +0.008 C 
ATOM      8  C   LIG A   1      -5.475   1.021 130.359  0.00  0.00    +0.008 C 
ATOM      9  C   LIG A   1      -6.678   0.856 131.306  0.00  0.00    -0.023 C 
ATOM     10  C   LIG A   1      -7.296  -0.588 131.194  0.00  0.00    -0.023 C 
ATOM     11  C   LIG A   1      -8.695  -0.415 131.853  0.00  0.00    +0.008 C 
ATOM     12  C   LIG A   1      -8.969   1.076 132.042  0.00  0.00    +0.005 C 
ATOM     13  C   LIG A   1      -7.916   1.846 131.224  0.00  0.00    -0.002 C 
ATOM     14  C   LIG A   1      -6.500  -1.645 131.994  0.00  0.00    +0.012 C 
ATOM     15  C   LIG A   1      -6.065   1.114 132.738  0.00  0.00    +0.012 C 
ATOM     16  C   LIG A   1      -7.455  -1.065 129.692  0.00  0.00    +0.002 C 
ATOM     17  C   LIG A   1      -7.991  -2.503 129.543  0.00  0.00    +0.005 C 
ATOM     18  C   LIG A   1      -8.393  -2.754 128.095  0.00  0.00    +0.005 C 
ATOM     19  C   LIG A   1      -7.312  -2.508 127.002  0.00  0.00    +0.004 C 
ATOM     20  C   LIG A   1      -7.988  -2.149 125.600  0.00  0.00    -0.006 C 
ATOM     21  C   LIG A   1      -9.144  -1.122 125.742  0.00  0.00    +0.014 C 
ATOM     22  C   LIG A   1      -8.610  -3.441 125.005  0.00  0.00    +0.014 C 
ENDROOT
BRANCH   1  23
ATOM     23  O   LIG A   1      -7.618  -1.162 123.381  0.00  0.00    -0.391 OA
ATOM     24  H   LIG A   1      -7.447  -1.784 122.654  0.00  0.00    +0.210 HD
ENDBRANCH   1  23
BRANCH  13  25
ATOM     25  C   LIG A   1      -8.582   2.408 129.923  0.00  0.00    -0.010 C 
ATOM     26  C   LIG A   1      -7.709   3.426 129.242  0.00  0.00    +0.008 C 
BRANCH  25  27
ATOM     27  C   LIG A   1      -9.939   3.146 130.317  0.00  0.00    +0.008 C 
BRANCH  27  28
ATOM     28  C   LIG A   1     -10.110   4.653 130.047  0.00  0.00    +0.031 C 
BRANCH  28  29
ATOM     29  C   LIG A   1     -10.294   5.600 131.247  0.00  0.00    -0.072 C 
ATOM     30  C   LIG A   1     -11.492   6.130 131.447  0.00  0.00    +0.008 C 
BRANCH  29  31
ATOM     31  C   LIG A   1      -9.164   5.909 132.259  0.00  0.00    +0.037 C 
ATOM     32  C   LIG A   1      -7.886   6.448 131.602  0.00  0.00    +0.014 C 
BRANCH  31  33
ATOM     33  C   LIG A   1      -8.762   4.802 133.235  0.00  0.00    +0.163 C 
BRANCH  33  34
ATOM     34  O   LIG A   1      -9.915   4.189 133.799  0.00  0.00    -0.394 OA
ATOM     35  H   LIG A   1      -9.656   3.852 134.671  0.00  0.00    +0.209 HD
ENDBRANCH  33  34
ENDBRANCH  31  33
ENDBRANCH  29  31
ENDBRANCH  28  29
ENDBRANCH  27  28
ENDBRANCH  25  27
ENDBRANCH  13  25
TORSDOF 8
ENDMDL
MODEL 9
REMARK VINA RESULT:      -8.4      4.773      8.364
REMARK  Name = NuBBE_1209
REMARK  14 active torsions:
REMARK  status: ('A' for Active; 'I' for Inactive)
REMARK    1  A    between atoms: O_1  and  C_2
REMARK    2  A    between atoms: C_11  and  C_29
REMARK    3  A    between atoms: C_12  and  C_28
REMARK    4  A    between atoms: C_15  and  C_17
REMARK    5  A    between atoms: C_17  and  C_19
REMARK    6  A    between atoms: C_17  and  C_20
REMARK    7  A    between atoms: C_20  and  C_21
REMARK    8  A    between atoms: C_21  and  C_22
REMARK    9  A    between atoms: C_22  and  C_23
REMARK   10  A    between atoms: C_23  and  C_24
REMARK   11  A    between atoms: C_23  and  C_26
REMARK   12  A    between atoms: C_24  and  O_25
REMARK   13  A    between atoms: C_34  and  C_35
REMARK   14  A    between atoms: C_34  and  C_36
REMARK                            x       y       z     vdW  Elec       q    Type
REMARK                         _______ _______ _______ _____ _____    ______ ____
ROOT
ATOM      1  C   LIG A   1      -9.618   3.582 130.841  0.00  0.00    +0.120 C 
ATOM      2  C   LIG A   1     -10.153   2.348 131.542  0.00  0.00    +0.032 C 
ATOM      3  C   LIG A   1      -9.140   1.844 132.541  0.00  0.00    +0.010 C 
ATOM      4  C   LIG A   1      -7.787   1.483 131.933  0.00  0.00    -0.019 C 
ATOM      5  C   LIG A   1      -6.848   0.990 133.034  0.00  0.00    +0.015 C 
ATOM      6  C   LIG A   1      -7.218   0.033 131.936  0.00  0.00    -0.019 C 
ATOM      7  C   LIG A   1      -8.197  -1.061 132.243  0.00  0.00    +0.008 C 
ATOM      8  C   LIG A   1      -7.569  -2.437 132.416  0.00  0.00    +0.008 C 
ATOM      9  C   LIG A   1      -6.513  -2.890 131.390  0.00  0.00    -0.023 C 
ATOM     10  C   LIG A   1      -5.498  -1.730 131.069  0.00  0.00    -0.023 C 
ATOM     11  C   LIG A   1      -4.828  -2.216 129.751  0.00  0.00    +0.008 C 
ATOM     12  C   LIG A   1      -5.620  -3.401 129.203  0.00  0.00    +0.005 C 
ATOM     13  C   LIG A   1      -6.951  -3.463 129.976  0.00  0.00    -0.002 C 
ATOM     14  C   LIG A   1      -4.404  -1.575 132.151  0.00  0.00    +0.012 C 
ATOM     15  C   LIG A   1      -5.799  -4.106 132.101  0.00  0.00    +0.012 C 
ATOM     16  C   LIG A   1      -6.218  -0.340 130.837  0.00  0.00    +0.002 C 
ATOM     17  C   LIG A   1      -5.250   0.836 130.591  0.00  0.00    +0.005 C 
ATOM     18  C   LIG A   1      -6.028   2.043 130.081  0.00  0.00    +0.005 C 
ATOM     19  C   LIG A   1      -7.214   2.547 130.955  0.00  0.00    +0.004 C 
ATOM     20  C   LIG A   1      -8.302   3.302 130.062  0.00  0.00    -0.006 C 
ATOM     21  C   LIG A   1      -8.623   2.543 128.746  0.00  0.00    +0.014 C 
ATOM     22  C   LIG A   1      -7.730   4.686 129.650  0.00  0.00    +0.014 C 
ENDROOT
BRANCH   1  23
ATOM     23  O   LIG A   1     -10.624   4.098 129.962  0.00  0.00    -0.391 OA
ATOM     24  H   LIG A   1     -10.194   4.421 129.152  0.00  0.00    +0.210 HD
ENDBRANCH   1  23
BRANCH  13  25
ATOM     25  C   LIG A   1      -8.104  -2.925 129.063  0.00  0.00    -0.010 C 
ATOM     26  C   LIG A   1      -8.927  -4.042 128.482  0.00  0.00    +0.008 C 
BRANCH  25  27
ATOM     27  C   LIG A   1      -7.463  -2.132 127.838  0.00  0.00    +0.008 C 
BRANCH  27  28
ATOM     28  C   LIG A   1      -8.095  -2.225 126.436  0.00  0.00    +0.031 C 
BRANCH  28  29
ATOM     29  C   LIG A   1      -7.300  -2.921 125.315  0.00  0.00    -0.072 C 
ATOM     30  C   LIG A   1      -7.949  -3.757 124.516  0.00  0.00    +0.008 C 
BRANCH  29  31
ATOM     31  C   LIG A   1      -5.803  -2.641 125.044  0.00  0.00    +0.037 C 
ATOM     32  C   LIG A   1      -5.437  -1.152 125.110  0.00  0.00    +0.014 C 
BRANCH  31  33
ATOM     33  C   LIG A   1      -5.191  -3.220 123.767  0.00  0.00    +0.163 C 
BRANCH  33  34
ATOM     34  O   LIG A   1      -4.419  -4.377 124.062  0.00  0.00    -0.394 OA
ATOM     35  H   LIG A   1      -4.695  -4.684 124.940  0.00  0.00    +0.209 HD
ENDBRANCH  33  34
ENDBRANCH  31  33
ENDBRANCH  29  31
ENDBRANCH  28  29
ENDBRANCH  27  28
ENDBRANCH  25  27
ENDBRANCH  13  25
TORSDOF 8
ENDMDL
