MODEL 1
REMARK VINA RESULT:      -8.2      0.000      0.000
REMARK  Name = NuBBE_483
REMARK  14 active torsions:
REMARK  status: ('A' for Active; 'I' for Inactive)
REMARK    1  A    between atoms: C_1  and  C_2
REMARK    2  A    between atoms: C_6  and  C_7
REMARK    3  A    between atoms: C_6  and  C_9
REMARK    4  A    between atoms: C_7  and  O_8
REMARK    5  A    between atoms: C_9  and  O_10
REMARK    6  A    between atoms: C_11  and  O_13
REMARK    7  A    between atoms: C_16  and  C_17
REMARK    8  A    between atoms: C_22  and  C_23
REMARK    9  A    between atoms: C_26  and  C_27
REMARK   10  A    between atoms: C_27  and  O_28
REMARK   11  A    between atoms: O_28  and  C_29
REMARK   12  A    between atoms: C_32  and  O_34
REMARK   13  A    between atoms: C_35  and  C_36
REMARK   14  A    between atoms: C_35  and  C_37
REMARK                            x       y       z     vdW  Elec       q    Type
REMARK                         _______ _______ _______ _____ _____    ______ ____
ROOT
ATOM      1  C   LIG A   1      -5.142   3.830 125.461  0.00  0.00    +0.012 C 
ATOM      2  C   LIG A   1      -5.007   3.028 126.776  0.00  0.00    -0.019 C 
ATOM      3  C   LIG A   1      -4.490   1.607 126.398  0.00  0.00    +0.008 C 
ATOM      4  C   LIG A   1      -5.479   0.731 125.618  0.00  0.00    +0.005 C 
ATOM      5  C   LIG A   1      -6.860   0.487 126.293  0.00  0.00    +0.008 C 
ATOM      6  C   LIG A   1      -7.793  -0.476 125.408  0.00  0.00    +0.046 C 
ATOM      7  C   LIG A   1      -8.540   0.329 124.301  0.00  0.00    +0.125 C 
ATOM      8  C   LIG A   1      -9.153   1.651 124.777  0.00  0.00    +0.032 C 
ATOM      9  C   LIG A   1      -8.158   2.555 125.525  0.00  0.00    +0.010 C 
ATOM     10  C   LIG A   1      -7.503   1.868 126.742  0.00  0.00    -0.025 C 
ATOM     11  C   LIG A   1      -8.642   1.647 127.786  0.00  0.00    +0.012 C 
ATOM     12  C   LIG A   1      -6.377   2.714 127.504  0.00  0.00    +0.006 C 
ATOM     13  C   LIG A   1      -6.838   3.948 128.279  0.00  0.00    +0.031 C 
ATOM     14  C   LIG A   1      -5.862   4.170 129.390  0.00  0.00    -0.026 C 
ATOM     15  C   LIG A   1      -4.533   4.116 129.192  0.00  0.00    -0.060 C 
ATOM     16  C   LIG A   1      -3.953   3.863 127.786  0.00  0.00    -0.005 C 
ATOM     17  C   LIG A   1      -2.590   3.114 127.814  0.00  0.00    +0.016 C 
ATOM     18  C   LIG A   1      -3.642   5.348 127.360  0.00  0.00    +0.012 C 
ATOM     19  C   LIG A   1      -2.737   6.149 128.348  0.00  0.00    +0.019 C 
ATOM     20  C   LIG A   1      -3.175   6.105 129.855  0.00  0.00    +0.077 C 
ATOM     21  C   LIG A   1      -3.551   4.639 130.235  0.00  0.00    +0.061 C 
ATOM     22  C   LIG A   1      -3.904   4.459 131.738  0.00  0.00    +0.128 C 
ATOM     23  C   LIG A   1      -2.759   4.957 132.670  0.00  0.00    -0.008 C 
ATOM     24  C   LIG A   1      -1.539   4.005 132.642  0.00  0.00    +0.013 C 
ATOM     25  C   LIG A   1      -3.270   4.986 134.126  0.00  0.00    +0.013 C 
ATOM     26  C   LIG A   1      -2.319   6.383 132.262  0.00  0.00    +0.010 C 
ATOM     27  C   LIG A   1      -1.988   6.527 130.770  0.00  0.00    +0.019 C 
ENDROOT
BRANCH   7  28
ATOM     28  O   LIG A   1      -7.659   0.652 123.220  0.00  0.00    -0.391 OA
ATOM     29  H   LIG A   1      -6.756   0.648 123.595  0.00  0.00    +0.210 HD
ENDBRANCH   7  28
BRANCH  20  30
ATOM     30  C   LIG A   1      -4.311   7.119 130.067  0.00  0.00    +0.314 C 
ATOM     31  O   LIG A   1      -5.182   7.097 130.940  0.00  0.00    -0.250 OA
BRANCH  30  32
ATOM     32  O   LIG A   1      -4.170   8.145 129.160  0.00  0.00    -0.468 OA
ATOM     33  C   LIG A   1      -3.952   9.450 129.721  0.00  0.00    +0.280 C 
ENDBRANCH  30  32
ENDBRANCH  20  30
BRANCH  22  34
ATOM     34  O   LIG A   1      -4.135   3.072 132.033  0.00  0.00    -0.391 OA
ATOM     35  H   LIG A   1      -3.368   2.738 132.541  0.00  0.00    +0.210 HD
ENDBRANCH  22  34
BRANCH   6  36
ATOM     36  C   LIG A   1      -8.824  -1.222 126.316  0.00  0.00    +0.167 C 
BRANCH  36  37
ATOM     37  O   LIG A   1      -9.739  -2.019 125.556  0.00  0.00    -0.394 OA
ATOM     38  H   LIG A   1     -10.088  -2.702 126.160  0.00  0.00    +0.209 HD
ENDBRANCH  36  37
ENDBRANCH   6  36
BRANCH   6  39
ATOM     39  C   LIG A   1      -6.936  -1.608 124.743  0.00  0.00    +0.167 C 
BRANCH  39  40
ATOM     40  O   LIG A   1      -7.566  -2.213 123.617  0.00  0.00    -0.394 OA
ATOM     41  H   LIG A   1      -8.431  -2.558 123.935  0.00  0.00    +0.209 HD
ENDBRANCH  39  40
ENDBRANCH   6  39
TORSDOF 8
ENDMDL
MODEL 2
REMARK VINA RESULT:      -8.1      3.352      8.635
REMARK  Name = NuBBE_483
REMARK  14 active torsions:
REMARK  status: ('A' for Active; 'I' for Inactive)
REMARK    1  A    between atoms: C_1  and  C_2
REMARK    2  A    between atoms: C_6  and  C_7
REMARK    3  A    between atoms: C_6  and  C_9
REMARK    4  A    between atoms: C_7  and  O_8
REMARK    5  A    between atoms: C_9  and  O_10
REMARK    6  A    between atoms: C_11  and  O_13
REMARK    7  A    between atoms: C_16  and  C_17
REMARK    8  A    between atoms: C_22  and  C_23
REMARK    9  A    between atoms: C_26  and  C_27
REMARK   10  A    between atoms: C_27  and  O_28
REMARK   11  A    between atoms: O_28  and  C_29
REMARK   12  A    between atoms: C_32  and  O_34
REMARK   13  A    between atoms: C_35  and  C_36
REMARK   14  A    between atoms: C_35  and  C_37
REMARK                            x       y       z     vdW  Elec       q    Type
REMARK                         _______ _______ _______ _____ _____    ______ ____
ROOT
ATOM      1  C   LIG A   1      -5.975   3.325 129.112  0.00  0.00    +0.012 C 
ATOM      2  C   LIG A   1      -7.235   2.966 128.292  0.00  0.00    -0.019 C 
ATOM      3  C   LIG A   1      -7.772   4.290 127.669  0.00  0.00    +0.008 C 
ATOM      4  C   LIG A   1      -8.347   5.303 128.666  0.00  0.00    +0.005 C 
ATOM      5  C   LIG A   1      -9.503   4.792 129.574  0.00  0.00    +0.008 C 
ATOM      6  C   LIG A   1     -10.052   5.949 130.545  0.00  0.00    +0.046 C 
ATOM      7  C   LIG A   1      -9.174   6.070 131.828  0.00  0.00    +0.125 C 
ATOM      8  C   LIG A   1      -8.805   4.730 132.476  0.00  0.00    +0.032 C 
ATOM      9  C   LIG A   1      -8.189   3.721 131.492  0.00  0.00    +0.010 C 
ATOM     10  C   LIG A   1      -9.089   3.427 130.273  0.00  0.00    -0.025 C 
ATOM     11  C   LIG A   1     -10.341   2.675 130.824  0.00  0.00    +0.012 C 
ATOM     12  C   LIG A   1      -8.466   2.468 129.154  0.00  0.00    +0.006 C 
ATOM     13  C   LIG A   1      -8.265   0.999 129.529  0.00  0.00    +0.031 C 
ATOM     14  C   LIG A   1      -8.340   0.200 128.267  0.00  0.00    -0.026 C 
ATOM     15  C   LIG A   1      -7.689   0.571 127.150  0.00  0.00    -0.060 C 
ATOM     16  C   LIG A   1      -6.794   1.826 127.136  0.00  0.00    -0.005 C 
ATOM     17  C   LIG A   1      -6.740   2.522 125.746  0.00  0.00    +0.016 C 
ATOM     18  C   LIG A   1      -5.389   1.149 127.356  0.00  0.00    +0.012 C 
ATOM     19  C   LIG A   1      -5.024   0.028 126.334  0.00  0.00    +0.019 C 
ATOM     20  C   LIG A   1      -6.120  -1.075 126.115  0.00  0.00    +0.077 C 
ATOM     21  C   LIG A   1      -7.514  -0.387 125.976  0.00  0.00    +0.061 C 
ATOM     22  C   LIG A   1      -8.666  -1.379 125.653  0.00  0.00    +0.128 C 
ATOM     23  C   LIG A   1      -8.373  -2.217 124.373  0.00  0.00    -0.008 C 
ATOM     24  C   LIG A   1      -8.487  -1.362 123.087  0.00  0.00    +0.013 C 
ATOM     25  C   LIG A   1      -9.421  -3.344 124.256  0.00  0.00    +0.013 C 
ATOM     26  C   LIG A   1      -6.963  -2.847 124.457  0.00  0.00    +0.010 C 
ATOM     27  C   LIG A   1      -5.852  -1.841 124.787  0.00  0.00    +0.019 C 
ENDROOT
BRANCH   7  28
ATOM     28  O   LIG A   1      -7.942   6.741 131.543  0.00  0.00    -0.391 OA
ATOM     29  H   LIG A   1      -7.400   6.671 132.354  0.00  0.00    +0.210 HD
ENDBRANCH   7  28
BRANCH  20  30
ATOM     30  C   LIG A   1      -6.034  -2.089 127.267  0.00  0.00    +0.314 C 
ATOM     31  O   LIG A   1      -6.950  -2.769 127.736  0.00  0.00    -0.250 OA
BRANCH  30  32
ATOM     32  O   LIG A   1      -4.722  -2.202 127.666  0.00  0.00    -0.468 OA
ATOM     33  C   LIG A   1      -4.495  -2.974 128.857  0.00  0.00    +0.280 C 
ENDBRANCH  30  32
ENDBRANCH  20  30
BRANCH  22  34
ATOM     34  O   LIG A   1      -9.893  -0.664 125.436  0.00  0.00    -0.391 OA
ATOM     35  H   LIG A   1      -9.997  -0.013 126.159  0.00  0.00    +0.210 HD
ENDBRANCH  22  34
BRANCH   6  36
ATOM     36  C   LIG A   1     -11.540   5.671 130.938  0.00  0.00    +0.167 C 
BRANCH  36  37
ATOM     37  O   LIG A   1     -11.892   6.270 132.190  0.00  0.00    -0.394 OA
ATOM     38  H   LIG A   1     -11.551   5.681 132.890  0.00  0.00    +0.209 HD
ENDBRANCH  36  37
ENDBRANCH   6  36
BRANCH   6  39
ATOM     39  C   LIG A   1     -10.076   7.326 129.795  0.00  0.00    +0.167 C 
BRANCH  39  40
ATOM     40  O   LIG A   1     -11.364   7.936 129.766  0.00  0.00    -0.394 OA
ATOM     41  H   LIG A   1     -12.006   7.220 129.555  0.00  0.00    +0.209 HD
ENDBRANCH  39  40
ENDBRANCH   6  39
TORSDOF 8
ENDMDL
MODEL 3
REMARK VINA RESULT:      -8.1      3.188      5.089
REMARK  Name = NuBBE_483
REMARK  14 active torsions:
REMARK  status: ('A' for Active; 'I' for Inactive)
REMARK    1  A    between atoms: C_1  and  C_2
REMARK    2  A    between atoms: C_6  and  C_7
REMARK    3  A    between atoms: C_6  and  C_9
REMARK    4  A    between atoms: C_7  and  O_8
REMARK    5  A    between atoms: C_9  and  O_10
REMARK    6  A    between atoms: C_11  and  O_13
REMARK    7  A    between atoms: C_16  and  C_17
REMARK    8  A    between atoms: C_22  and  C_23
REMARK    9  A    between atoms: C_26  and  C_27
REMARK   10  A    between atoms: C_27  and  O_28
REMARK   11  A    between atoms: O_28  and  C_29
REMARK   12  A    between atoms: C_32  and  O_34
REMARK   13  A    between atoms: C_35  and  C_36
REMARK   14  A    between atoms: C_35  and  C_37
REMARK                            x       y       z     vdW  Elec       q    Type
REMARK                         _______ _______ _______ _____ _____    ______ ____
ROOT
ATOM      1  C   LIG A   1      -5.506  -2.235 128.521  0.00  0.00    +0.012 C 
ATOM      2  C   LIG A   1      -6.715  -1.274 128.556  0.00  0.00    -0.019 C 
ATOM      3  C   LIG A   1      -7.986  -2.120 128.237  0.00  0.00    +0.008 C 
ATOM      4  C   LIG A   1      -8.077  -2.659 126.805  0.00  0.00    +0.005 C 
ATOM      5  C   LIG A   1      -8.008  -1.599 125.667  0.00  0.00    +0.008 C 
ATOM      6  C   LIG A   1      -8.156  -2.274 124.216  0.00  0.00    +0.046 C 
ATOM      7  C   LIG A   1      -6.788  -2.824 123.709  0.00  0.00    +0.125 C 
ATOM      8  C   LIG A   1      -5.602  -1.876 123.921  0.00  0.00    +0.032 C 
ATOM      9  C   LIG A   1      -5.477  -1.362 125.365  0.00  0.00    +0.010 C 
ATOM     10  C   LIG A   1      -6.750  -0.652 125.874  0.00  0.00    -0.025 C 
ATOM     11  C   LIG A   1      -6.887   0.658 125.037  0.00  0.00    +0.012 C 
ATOM     12  C   LIG A   1      -6.730  -0.186 127.406  0.00  0.00    +0.006 C 
ATOM     13  C   LIG A   1      -5.783   0.957 127.772  0.00  0.00    +0.031 C 
ATOM     14  C   LIG A   1      -6.364   1.656 128.960  0.00  0.00    -0.026 C 
ATOM     15  C   LIG A   1      -6.840   0.981 130.021  0.00  0.00    -0.060 C 
ATOM     16  C   LIG A   1      -6.766  -0.558 130.077  0.00  0.00    -0.005 C 
ATOM     17  C   LIG A   1      -7.930  -1.196 130.889  0.00  0.00    +0.016 C 
ATOM     18  C   LIG A   1      -5.464  -0.727 130.948  0.00  0.00    +0.012 C 
ATOM     19  C   LIG A   1      -5.480   0.015 132.320  0.00  0.00    +0.019 C 
ATOM     20  C   LIG A   1      -5.897   1.528 132.269  0.00  0.00    +0.077 C 
ATOM     21  C   LIG A   1      -7.142   1.683 131.341  0.00  0.00    +0.061 C 
ATOM     22  C   LIG A   1      -7.706   3.131 131.297  0.00  0.00    +0.128 C 
ATOM     23  C   LIG A   1      -8.050   3.667 132.718  0.00  0.00    -0.008 C 
ATOM     24  C   LIG A   1      -9.313   2.985 133.300  0.00  0.00    +0.013 C 
ATOM     25  C   LIG A   1      -8.359   5.176 132.627  0.00  0.00    +0.013 C 
ATOM     26  C   LIG A   1      -6.854   3.454 133.675  0.00  0.00    +0.010 C 
ATOM     27  C   LIG A   1      -6.316   2.016 133.686  0.00  0.00    +0.019 C 
ENDROOT
BRANCH   7  28
ATOM     28  O   LIG A   1      -6.455  -4.051 124.368  0.00  0.00    -0.391 OA
ATOM     29  H   LIG A   1      -5.738  -4.457 123.841  0.00  0.00    +0.210 HD
ENDBRANCH   7  28
BRANCH  20  30
ATOM     30  C   LIG A   1      -4.680   2.359 131.829  0.00  0.00    +0.314 C 
ATOM     31  O   LIG A   1      -4.675   3.348 131.093  0.00  0.00    -0.250 OA
BRANCH  30  32
ATOM     32  O   LIG A   1      -3.557   1.877 132.462  0.00  0.00    -0.468 OA
ATOM     33  C   LIG A   1      -2.741   2.860 133.121  0.00  0.00    +0.280 C 
ENDBRANCH  30  32
ENDBRANCH  20  30
BRANCH  22  34
ATOM     34  O   LIG A   1      -8.908   3.173 130.511  0.00  0.00    -0.391 OA
ATOM     35  H   LIG A   1      -9.532   3.790 130.944  0.00  0.00    +0.210 HD
ENDBRANCH  22  34
BRANCH   6  36
ATOM     36  C   LIG A   1      -8.732  -1.243 123.191  0.00  0.00    +0.167 C 
BRANCH  36  37
ATOM     37  O   LIG A   1      -9.840  -0.509 123.723  0.00  0.00    -0.394 OA
ATOM     38  H   LIG A   1      -9.834  -0.650 124.689  0.00  0.00    +0.209 HD
ENDBRANCH  36  37
ENDBRANCH   6  36
BRANCH   6  39
ATOM     39  C   LIG A   1      -9.205  -3.439 124.260  0.00  0.00    +0.167 C 
BRANCH  39  40
ATOM     40  O   LIG A   1     -10.227  -3.323 123.273  0.00  0.00    -0.394 OA
ATOM     41  H   LIG A   1      -9.976  -3.930 122.540  0.00  0.00    +0.209 HD
ENDBRANCH  39  40
ENDBRANCH   6  39
TORSDOF 8
ENDMDL
MODEL 4
REMARK VINA RESULT:      -7.9      4.849      7.101
REMARK  Name = NuBBE_483
REMARK  14 active torsions:
REMARK  status: ('A' for Active; 'I' for Inactive)
REMARK    1  A    between atoms: C_1  and  C_2
REMARK    2  A    between atoms: C_6  and  C_7
REMARK    3  A    between atoms: C_6  and  C_9
REMARK    4  A    between atoms: C_7  and  O_8
REMARK    5  A    between atoms: C_9  and  O_10
REMARK    6  A    between atoms: C_11  and  O_13
REMARK    7  A    between atoms: C_16  and  C_17
REMARK    8  A    between atoms: C_22  and  C_23
REMARK    9  A    between atoms: C_26  and  C_27
REMARK   10  A    between atoms: C_27  and  O_28
REMARK   11  A    between atoms: O_28  and  C_29
REMARK   12  A    between atoms: C_32  and  O_34
REMARK   13  A    between atoms: C_35  and  C_36
REMARK   14  A    between atoms: C_35  and  C_37
REMARK                            x       y       z     vdW  Elec       q    Type
REMARK                         _______ _______ _______ _____ _____    ______ ____
ROOT
ATOM      1  C   LIG A   1      -8.481  -3.273 127.939  0.00  0.00    +0.012 C 
ATOM      2  C   LIG A   1      -7.712  -1.959 128.201  0.00  0.00    -0.019 C 
ATOM      3  C   LIG A   1      -8.649  -0.785 127.784  0.00  0.00    +0.008 C 
ATOM      4  C   LIG A   1      -8.931  -0.667 126.282  0.00  0.00    +0.005 C 
ATOM      5  C   LIG A   1      -7.685  -0.530 125.358  0.00  0.00    +0.008 C 
ATOM      6  C   LIG A   1      -8.103  -0.372 123.815  0.00  0.00    +0.046 C 
ATOM      7  C   LIG A   1      -8.366  -1.762 123.158  0.00  0.00    +0.125 C 
ATOM      8  C   LIG A   1      -7.321  -2.833 123.493  0.00  0.00    +0.032 C 
ATOM      9  C   LIG A   1      -7.061  -2.987 125.001  0.00  0.00    +0.010 C 
ATOM     10  C   LIG A   1      -6.631  -1.672 125.686  0.00  0.00    -0.025 C 
ATOM     11  C   LIG A   1      -5.222  -1.320 125.113  0.00  0.00    +0.012 C 
ATOM     12  C   LIG A   1      -6.447  -1.734 127.275  0.00  0.00    +0.006 C 
ATOM     13  C   LIG A   1      -5.272  -2.554 127.808  0.00  0.00    +0.031 C 
ATOM     14  C   LIG A   1      -4.881  -1.970 129.128  0.00  0.00    -0.026 C 
ATOM     15  C   LIG A   1      -5.793  -1.652 130.064  0.00  0.00    -0.060 C 
ATOM     16  C   LIG A   1      -7.293  -1.919 129.830  0.00  0.00    -0.005 C 
ATOM     17  C   LIG A   1      -8.216  -0.899 130.556  0.00  0.00    +0.016 C 
ATOM     18  C   LIG A   1      -7.439  -3.286 130.599  0.00  0.00    +0.012 C 
ATOM     19  C   LIG A   1      -6.963  -3.268 132.085  0.00  0.00    +0.019 C 
ATOM     20  C   LIG A   1      -5.535  -2.665 132.333  0.00  0.00    +0.077 C 
ATOM     21  C   LIG A   1      -5.385  -1.351 131.503  0.00  0.00    +0.061 C 
ATOM     22  C   LIG A   1      -4.041  -0.611 131.752  0.00  0.00    +0.128 C 
ATOM     23  C   LIG A   1      -3.819  -0.297 133.261  0.00  0.00    -0.008 C 
ATOM     24  C   LIG A   1      -4.756   0.831 133.758  0.00  0.00    +0.013 C 
ATOM     25  C   LIG A   1      -2.373   0.202 133.465  0.00  0.00    +0.013 C 
ATOM     26  C   LIG A   1      -4.037  -1.570 134.111  0.00  0.00    +0.010 C 
ATOM     27  C   LIG A   1      -5.369  -2.281 133.833  0.00  0.00    +0.019 C 
ENDROOT
BRANCH   7  28
ATOM     28  O   LIG A   1      -9.635  -2.287 123.563  0.00  0.00    -0.391 OA
ATOM     29  H   LIG A   1     -10.195  -1.514 123.774  0.00  0.00    +0.210 HD
ENDBRANCH   7  28
BRANCH  20  30
ATOM     30  C   LIG A   1      -4.484  -3.737 132.005  0.00  0.00    +0.314 C 
ATOM     31  O   LIG A   1      -3.363  -3.565 131.520  0.00  0.00    -0.250 OA
BRANCH  30  32
ATOM     32  O   LIG A   1      -4.952  -4.963 132.421  0.00  0.00    -0.468 OA
ATOM     33  C   LIG A   1      -4.147  -5.640 133.401  0.00  0.00    +0.280 C 
ENDBRANCH  30  32
ENDBRANCH  20  30
BRANCH  22  34
ATOM     34  O   LIG A   1      -4.020   0.636 131.038  0.00  0.00    -0.391 OA
ATOM     35  H   LIG A   1      -3.140   1.044 131.166  0.00  0.00    +0.210 HD
ENDBRANCH  22  34
BRANCH   6  36
ATOM     36  C   LIG A   1      -6.992   0.393 123.024  0.00  0.00    +0.167 C 
BRANCH  36  37
ATOM     37  O   LIG A   1      -7.277   1.791 122.902  0.00  0.00    -0.394 OA
ATOM     38  H   LIG A   1      -6.781   2.242 123.612  0.00  0.00    +0.209 HD
ENDBRANCH  36  37
ENDBRANCH   6  36
BRANCH   6  39
ATOM     39  C   LIG A   1      -9.387   0.519 123.685  0.00  0.00    +0.167 C 
BRANCH  39  40
ATOM     40  O   LIG A   1     -10.138   0.266 122.500  0.00  0.00    -0.394 OA
ATOM     41  H   LIG A   1      -9.534   0.445 121.744  0.00  0.00    +0.209 HD
ENDBRANCH  39  40
ENDBRANCH   6  39
TORSDOF 8
ENDMDL
MODEL 5
REMARK VINA RESULT:      -7.8      5.310      7.642
REMARK  Name = NuBBE_483
REMARK  14 active torsions:
REMARK  status: ('A' for Active; 'I' for Inactive)
REMARK    1  A    between atoms: C_1  and  C_2
REMARK    2  A    between atoms: C_6  and  C_7
REMARK    3  A    between atoms: C_6  and  C_9
REMARK    4  A    between atoms: C_7  and  O_8
REMARK    5  A    between atoms: C_9  and  O_10
REMARK    6  A    between atoms: C_11  and  O_13
REMARK    7  A    between atoms: C_16  and  C_17
REMARK    8  A    between atoms: C_22  and  C_23
REMARK    9  A    between atoms: C_26  and  C_27
REMARK   10  A    between atoms: C_27  and  O_28
REMARK   11  A    between atoms: O_28  and  C_29
REMARK   12  A    between atoms: C_32  and  O_34
REMARK   13  A    between atoms: C_35  and  C_36
REMARK   14  A    between atoms: C_35  and  C_37
REMARK                            x       y       z     vdW  Elec       q    Type
REMARK                         _______ _______ _______ _____ _____    ______ ____
ROOT
ATOM      1  C   LIG A   1      -5.521  -2.164 127.233  0.00  0.00    +0.012 C 
ATOM      2  C   LIG A   1      -6.532  -1.667 128.291  0.00  0.00    -0.019 C 
ATOM      3  C   LIG A   1      -7.921  -1.568 127.589  0.00  0.00    +0.008 C 
ATOM      4  C   LIG A   1      -8.046  -0.473 126.524  0.00  0.00    +0.005 C 
ATOM      5  C   LIG A   1      -7.730   0.978 126.990  0.00  0.00    +0.008 C 
ATOM      6  C   LIG A   1      -7.934   2.042 125.804  0.00  0.00    +0.046 C 
ATOM      7  C   LIG A   1      -6.669   2.121 124.895  0.00  0.00    +0.125 C 
ATOM      8  C   LIG A   1      -5.339   2.170 125.656  0.00  0.00    +0.032 C 
ATOM      9  C   LIG A   1      -5.188   1.050 126.699  0.00  0.00    +0.010 C 
ATOM     10  C   LIG A   1      -6.330   1.022 127.738  0.00  0.00    -0.025 C 
ATOM     11  C   LIG A   1      -6.184   2.325 128.585  0.00  0.00    +0.012 C 
ATOM     12  C   LIG A   1      -6.293  -0.184 128.790  0.00  0.00    +0.006 C 
ATOM     13  C   LIG A   1      -5.170  -0.169 129.827  0.00  0.00    +0.031 C 
ATOM     14  C   LIG A   1      -5.665  -0.899 131.035  0.00  0.00    -0.026 C 
ATOM     15  C   LIG A   1      -6.305  -2.078 130.941  0.00  0.00    -0.060 C 
ATOM     16  C   LIG A   1      -6.520  -2.755 129.573  0.00  0.00    -0.005 C 
ATOM     17  C   LIG A   1      -7.817  -3.612 129.512  0.00  0.00    +0.016 C 
ATOM     18  C   LIG A   1      -5.312  -3.768 129.589  0.00  0.00    +0.012 C 
ATOM     19  C   LIG A   1      -5.253  -4.714 130.828  0.00  0.00    +0.019 C 
ATOM     20  C   LIG A   1      -5.381  -4.011 132.226  0.00  0.00    +0.077 C 
ATOM     21  C   LIG A   1      -6.533  -2.960 132.165  0.00  0.00    +0.061 C 
ATOM     22  C   LIG A   1      -6.817  -2.272 133.529  0.00  0.00    +0.128 C 
ATOM     23  C   LIG A   1      -7.121  -3.307 134.653  0.00  0.00    -0.008 C 
ATOM     24  C   LIG A   1      -8.512  -3.961 134.472  0.00  0.00    +0.013 C 
ATOM     25  C   LIG A   1      -7.141  -2.582 136.016  0.00  0.00    +0.013 C 
ATOM     26  C   LIG A   1      -6.029  -4.402 134.681  0.00  0.00    +0.010 C 
ATOM     27  C   LIG A   1      -5.767  -5.053 133.316  0.00  0.00    +0.019 C 
ENDROOT
BRANCH   7  28
ATOM     28  O   LIG A   1      -6.598   0.991 124.019  0.00  0.00    -0.391 OA
ATOM     29  H   LIG A   1      -7.026   0.251 124.493  0.00  0.00    +0.210 HD
ENDBRANCH   7  28
BRANCH  20  30
ATOM     30  C   LIG A   1      -4.013  -3.421 132.606  0.00  0.00    +0.314 C 
ATOM     31  O   LIG A   1      -3.775  -2.280 133.009  0.00  0.00    -0.250 OA
BRANCH  30  32
ATOM     32  O   LIG A   1      -3.058  -4.408 132.511  0.00  0.00    -0.468 OA
ATOM     33  C   LIG A   1      -2.383  -4.745 133.735  0.00  0.00    +0.280 C 
ENDBRANCH  30  32
ENDBRANCH  20  30
BRANCH  22  34
ATOM     34  O   LIG A   1      -7.953  -1.399 133.420  0.00  0.00    -0.391 OA
ATOM     35  H   LIG A   1      -7.941  -0.996 132.529  0.00  0.00    +0.210 HD
ENDBRANCH  22  34
BRANCH   6  36
ATOM     36  C   LIG A   1      -8.262   3.456 126.388  0.00  0.00    +0.167 C 
BRANCH  36  37
ATOM     37  O   LIG A   1      -9.012   4.261 125.472  0.00  0.00    -0.394 OA
ATOM     38  H   LIG A   1      -8.369   4.819 124.995  0.00  0.00    +0.209 HD
ENDBRANCH  36  37
ENDBRANCH   6  36
BRANCH   6  39
ATOM     39  C   LIG A   1      -9.181   1.658 124.933  0.00  0.00    +0.167 C 
BRANCH  39  40
ATOM     40  O   LIG A   1      -9.158   2.224 123.625  0.00  0.00    -0.394 OA
ATOM     41  H   LIG A   1     -10.091   2.240 123.313  0.00  0.00    +0.209 HD
ENDBRANCH  39  40
ENDBRANCH   6  39
TORSDOF 8
ENDMDL
MODEL 6
REMARK VINA RESULT:      -7.5      3.952     10.760
REMARK  Name = NuBBE_483
REMARK  14 active torsions:
REMARK  status: ('A' for Active; 'I' for Inactive)
REMARK    1  A    between atoms: C_1  and  C_2
REMARK    2  A    between atoms: C_6  and  C_7
REMARK    3  A    between atoms: C_6  and  C_9
REMARK    4  A    between atoms: C_7  and  O_8
REMARK    5  A    between atoms: C_9  and  O_10
REMARK    6  A    between atoms: C_11  and  O_13
REMARK    7  A    between atoms: C_16  and  C_17
REMARK    8  A    between atoms: C_22  and  C_23
REMARK    9  A    between atoms: C_26  and  C_27
REMARK   10  A    between atoms: C_27  and  O_28
REMARK   11  A    between atoms: O_28  and  C_29
REMARK   12  A    between atoms: C_32  and  O_34
REMARK   13  A    between atoms: C_35  and  C_36
REMARK   14  A    between atoms: C_35  and  C_37
REMARK                            x       y       z     vdW  Elec       q    Type
REMARK                         _______ _______ _______ _____ _____    ______ ____
ROOT
ATOM      1  C   LIG A   1      -2.363   6.934 134.611  0.00  0.00    +0.012 C 
ATOM      2  C   LIG A   1      -1.775   7.086 133.190  0.00  0.00    -0.019 C 
ATOM      3  C   LIG A   1      -0.234   7.267 133.346  0.00  0.00    +0.008 C 
ATOM      4  C   LIG A   1       0.213   8.583 133.994  0.00  0.00    +0.005 C 
ATOM      5  C   LIG A   1      -0.274   9.889 133.302  0.00  0.00    +0.008 C 
ATOM      6  C   LIG A   1       0.290  11.200 134.042  0.00  0.00    +0.046 C 
ATOM      7  C   LIG A   1      -0.600  11.583 135.263  0.00  0.00    +0.125 C 
ATOM      8  C   LIG A   1      -2.109  11.526 134.995  0.00  0.00    +0.032 C 
ATOM      9  C   LIG A   1      -2.574  10.194 134.383  0.00  0.00    +0.010 C 
ATOM     10  C   LIG A   1      -1.844   9.835 133.071  0.00  0.00    -0.025 C 
ATOM     11  C   LIG A   1      -2.295  10.893 132.015  0.00  0.00    +0.012 C 
ATOM     12  C   LIG A   1      -2.202   8.410 132.435  0.00  0.00    +0.006 C 
ATOM     13  C   LIG A   1      -3.607   8.239 131.858  0.00  0.00    +0.031 C 
ATOM     14  C   LIG A   1      -3.526   7.201 130.784  0.00  0.00    -0.026 C 
ATOM     15  C   LIG A   1      -2.864   6.044 130.960  0.00  0.00    -0.060 C 
ATOM     16  C   LIG A   1      -2.190   5.716 132.307  0.00  0.00    -0.005 C 
ATOM     17  C   LIG A   1      -0.927   4.820 132.155  0.00  0.00    +0.016 C 
ATOM     18  C   LIG A   1      -3.310   4.812 132.948  0.00  0.00    +0.012 C 
ATOM     19  C   LIG A   1      -3.756   3.592 132.083  0.00  0.00    +0.019 C 
ATOM     20  C   LIG A   1      -4.120   3.916 130.590  0.00  0.00    +0.077 C 
ATOM     21  C   LIG A   1      -3.039   4.873 129.998  0.00  0.00    +0.061 C 
ATOM     22  C   LIG A   1      -3.243   5.180 128.488  0.00  0.00    +0.128 C 
ATOM     23  C   LIG A   1      -3.307   3.881 127.632  0.00  0.00    -0.008 C 
ATOM     24  C   LIG A   1      -1.920   3.205 127.506  0.00  0.00    +0.013 C 
ATOM     25  C   LIG A   1      -3.760   4.241 126.201  0.00  0.00    +0.013 C 
ATOM     26  C   LIG A   1      -4.320   2.885 128.245  0.00  0.00    +0.010 C 
ATOM     27  C   LIG A   1      -4.095   2.613 129.739  0.00  0.00    +0.019 C 
ENDROOT
BRANCH   7  28
ATOM     28  O   LIG A   1      -0.348  10.713 136.372  0.00  0.00    -0.391 OA
ATOM     29  H   LIG A   1      -1.111  10.103 136.419  0.00  0.00    +0.210 HD
ENDBRANCH   7  28
BRANCH  20  30
ATOM     30  C   LIG A   1      -5.549   4.479 130.543  0.00  0.00    +0.314 C 
ATOM     31  O   LIG A   1      -6.001   5.310 129.751  0.00  0.00    -0.250 OA
BRANCH  30  32
ATOM     32  O   LIG A   1      -6.313   3.841 131.494  0.00  0.00    -0.468 OA
ATOM     33  C   LIG A   1      -7.608   3.395 131.059  0.00  0.00    +0.280 C 
ENDBRANCH  30  32
ENDBRANCH  20  30
BRANCH  22  34
ATOM     34  O   LIG A   1      -2.156   5.978 127.991  0.00  0.00    -0.391 OA
ATOM     35  H   LIG A   1      -2.507   6.569 127.294  0.00  0.00    +0.210 HD
ENDBRANCH  22  34
BRANCH   6  36
ATOM     36  C   LIG A   1       0.371  12.399 133.041  0.00  0.00    +0.167 C 
BRANCH  36  37
ATOM     37  O   LIG A   1       1.396  13.333 133.395  0.00  0.00    -0.394 OA
ATOM     38  H   LIG A   1       1.194  14.165 132.926  0.00  0.00    +0.209 HD
ENDBRANCH  36  37
ENDBRANCH   6  36
BRANCH   6  39
ATOM     39  C   LIG A   1       1.765  10.965 134.521  0.00  0.00    +0.167 C 
BRANCH  39  40
ATOM     40  O   LIG A   1       2.134  11.767 135.640  0.00  0.00    -0.394 OA
ATOM     41  H   LIG A   1       2.114  11.174 136.426  0.00  0.00    +0.209 HD
ENDBRANCH  39  40
ENDBRANCH   6  39
TORSDOF 8
ENDMDL
MODEL 7
REMARK VINA RESULT:      -7.3      1.950      3.814
REMARK  Name = NuBBE_483
REMARK  14 active torsions:
REMARK  status: ('A' for Active; 'I' for Inactive)
REMARK    1  A    between atoms: C_1  and  C_2
REMARK    2  A    between atoms: C_6  and  C_7
REMARK    3  A    between atoms: C_6  and  C_9
REMARK    4  A    between atoms: C_7  and  O_8
REMARK    5  A    between atoms: C_9  and  O_10
REMARK    6  A    between atoms: C_11  and  O_13
REMARK    7  A    between atoms: C_16  and  C_17
REMARK    8  A    between atoms: C_22  and  C_23
REMARK    9  A    between atoms: C_26  and  C_27
REMARK   10  A    between atoms: C_27  and  O_28
REMARK   11  A    between atoms: O_28  and  C_29
REMARK   12  A    between atoms: C_32  and  O_34
REMARK   13  A    between atoms: C_35  and  C_36
REMARK   14  A    between atoms: C_35  and  C_37
REMARK                            x       y       z     vdW  Elec       q    Type
REMARK                         _______ _______ _______ _____ _____    ______ ____
ROOT
ATOM      1  C   LIG A   1      -8.976   1.490 127.724  0.00  0.00    +0.012 C 
ATOM      2  C   LIG A   1      -7.516   1.841 127.359  0.00  0.00    -0.019 C 
ATOM      3  C   LIG A   1      -7.442   1.948 125.805  0.00  0.00    +0.008 C 
ATOM      4  C   LIG A   1      -7.628   0.630 125.043  0.00  0.00    +0.005 C 
ATOM      5  C   LIG A   1      -6.646  -0.520 125.412  0.00  0.00    +0.008 C 
ATOM      6  C   LIG A   1      -6.907  -1.833 124.522  0.00  0.00    +0.046 C 
ATOM      7  C   LIG A   1      -8.057  -2.699 125.124  0.00  0.00    +0.125 C 
ATOM      8  C   LIG A   1      -7.984  -2.887 126.644  0.00  0.00    +0.032 C 
ATOM      9  C   LIG A   1      -7.839  -1.567 127.420  0.00  0.00    +0.010 C 
ATOM     10  C   LIG A   1      -6.614  -0.733 126.985  0.00  0.00    -0.025 C 
ATOM     11  C   LIG A   1      -5.355  -1.545 127.419  0.00  0.00    +0.012 C 
ATOM     12  C   LIG A   1      -6.462   0.703 127.675  0.00  0.00    +0.006 C 
ATOM     13  C   LIG A   1      -6.117   0.726 129.165  0.00  0.00    +0.031 C 
ATOM     14  C   LIG A   1      -5.388   2.003 129.436  0.00  0.00    -0.026 C 
ATOM     15  C   LIG A   1      -5.817   3.184 128.957  0.00  0.00    -0.060 C 
ATOM     16  C   LIG A   1      -7.118   3.279 128.136  0.00  0.00    -0.005 C 
ATOM     17  C   LIG A   1      -7.094   4.424 127.083  0.00  0.00    +0.016 C 
ATOM     18  C   LIG A   1      -8.113   3.731 129.271  0.00  0.00    +0.012 C 
ATOM     19  C   LIG A   1      -7.692   5.015 130.051  0.00  0.00    +0.019 C 
ATOM     20  C   LIG A   1      -6.220   5.028 130.595  0.00  0.00    +0.077 C 
ATOM     21  C   LIG A   1      -5.260   4.505 129.480  0.00  0.00    +0.061 C 
ATOM     22  C   LIG A   1      -3.758   4.570 129.874  0.00  0.00    +0.128 C 
ATOM     23  C   LIG A   1      -3.327   6.007 130.295  0.00  0.00    -0.008 C 
ATOM     24  C   LIG A   1      -3.250   6.963 129.080  0.00  0.00    +0.013 C 
ATOM     25  C   LIG A   1      -1.912   5.949 130.909  0.00  0.00    +0.013 C 
ATOM     26  C   LIG A   1      -4.310   6.574 131.346  0.00  0.00    +0.010 C 
ATOM     27  C   LIG A   1      -5.784   6.485 130.929  0.00  0.00    +0.019 C 
ENDROOT
BRANCH   7  28
ATOM     28  O   LIG A   1      -9.335  -2.119 124.843  0.00  0.00    -0.391 OA
ATOM     29  H   LIG A   1      -9.198  -1.510 124.090  0.00  0.00    +0.210 HD
ENDBRANCH   7  28
BRANCH  20  30
ATOM     30  C   LIG A   1      -6.169   4.214 131.898  0.00  0.00    +0.314 C 
ATOM     31  O   LIG A   1      -5.212   3.580 132.349  0.00  0.00    -0.250 OA
BRANCH  30  32
ATOM     32  O   LIG A   1      -7.364   4.363 132.565  0.00  0.00    -0.468 OA
ATOM     33  C   LIG A   1      -7.783   3.238 133.356  0.00  0.00    +0.280 C 
ENDBRANCH  30  32
ENDBRANCH  20  30
BRANCH  22  34
ATOM     34  O   LIG A   1      -2.935   4.174 128.765  0.00  0.00    -0.391 OA
ATOM     35  H   LIG A   1      -2.622   3.261 128.930  0.00  0.00    +0.210 HD
ENDBRANCH  22  34
BRANCH   6  36
ATOM     36  C   LIG A   1      -5.600  -2.683 124.407  0.00  0.00    +0.167 C 
BRANCH  36  37
ATOM     37  O   LIG A   1      -5.179  -2.849 123.048  0.00  0.00    -0.394 OA
ATOM     38  H   LIG A   1      -5.566  -3.689 122.734  0.00  0.00    +0.209 HD
ENDBRANCH  36  37
ENDBRANCH   6  36
BRANCH   6  39
ATOM     39  C   LIG A   1      -7.269  -1.433 123.050  0.00  0.00    +0.167 C 
BRANCH  39  40
ATOM     40  O   LIG A   1      -8.139  -2.360 122.405  0.00  0.00    -0.394 OA
ATOM     41  H   LIG A   1      -7.636  -3.203 122.325  0.00  0.00    +0.209 HD
ENDBRANCH  39  40
ENDBRANCH   6  39
TORSDOF 8
ENDMDL
MODEL 8
REMARK VINA RESULT:      -7.1      5.546      7.250
REMARK  Name = NuBBE_483
REMARK  14 active torsions:
REMARK  status: ('A' for Active; 'I' for Inactive)
REMARK    1  A    between atoms: C_1  and  C_2
REMARK    2  A    between atoms: C_6  and  C_7
REMARK    3  A    between atoms: C_6  and  C_9
REMARK    4  A    between atoms: C_7  and  O_8
REMARK    5  A    between atoms: C_9  and  O_10
REMARK    6  A    between atoms: C_11  and  O_13
REMARK    7  A    between atoms: C_16  and  C_17
REMARK    8  A    between atoms: C_22  and  C_23
REMARK    9  A    between atoms: C_26  and  C_27
REMARK   10  A    between atoms: C_27  and  O_28
REMARK   11  A    between atoms: O_28  and  C_29
REMARK   12  A    between atoms: C_32  and  O_34
REMARK   13  A    between atoms: C_35  and  C_36
REMARK   14  A    between atoms: C_35  and  C_37
REMARK                            x       y       z     vdW  Elec       q    Type
REMARK                         _______ _______ _______ _____ _____    ______ ____
ROOT
ATOM      1  C   LIG A   1      -6.019   0.134 128.719  0.00  0.00    +0.012 C 
ATOM      2  C   LIG A   1      -5.769  -1.387 128.834  0.00  0.00    -0.019 C 
ATOM      3  C   LIG A   1      -4.890  -1.803 127.615  0.00  0.00    +0.008 C 
ATOM      4  C   LIG A   1      -5.578  -1.719 126.247  0.00  0.00    +0.005 C 
ATOM      5  C   LIG A   1      -6.893  -2.536 126.089  0.00  0.00    +0.008 C 
ATOM      6  C   LIG A   1      -7.499  -2.407 124.606  0.00  0.00    +0.046 C 
ATOM      7  C   LIG A   1      -8.354  -1.111 124.459  0.00  0.00    +0.125 C 
ATOM      8  C   LIG A   1      -9.307  -0.840 125.629  0.00  0.00    +0.032 C 
ATOM      9  C   LIG A   1      -8.618  -0.881 127.004  0.00  0.00    +0.010 C 
ATOM     10  C   LIG A   1      -7.888  -2.213 127.283  0.00  0.00    -0.025 C 
ATOM     11  C   LIG A   1      -8.997  -3.304 127.404  0.00  0.00    +0.012 C 
ATOM     12  C   LIG A   1      -7.059  -2.286 128.651  0.00  0.00    +0.006 C 
ATOM     13  C   LIG A   1      -7.862  -2.298 129.952  0.00  0.00    +0.031 C 
ATOM     14  C   LIG A   1      -7.043  -3.017 130.976  0.00  0.00    -0.026 C 
ATOM     15  C   LIG A   1      -5.733  -2.764 131.147  0.00  0.00    -0.060 C 
ATOM     16  C   LIG A   1      -5.023  -1.679 130.312  0.00  0.00    -0.005 C 
ATOM     17  C   LIG A   1      -3.520  -1.991 130.059  0.00  0.00    +0.016 C 
ATOM     18  C   LIG A   1      -5.067  -0.486 131.341  0.00  0.00    +0.012 C 
ATOM     19  C   LIG A   1      -4.455  -0.792 132.743  0.00  0.00    +0.019 C 
ATOM     20  C   LIG A   1      -4.960  -2.110 133.431  0.00  0.00    +0.077 C 
ATOM     21  C   LIG A   1      -4.980  -3.261 132.376  0.00  0.00    +0.061 C 
ATOM     22  C   LIG A   1      -5.368  -4.642 132.973  0.00  0.00    +0.128 C 
ATOM     23  C   LIG A   1      -4.444  -5.045 134.161  0.00  0.00    -0.008 C 
ATOM     24  C   LIG A   1      -3.025  -5.434 133.680  0.00  0.00    +0.013 C 
ATOM     25  C   LIG A   1      -5.035  -6.287 134.861  0.00  0.00    +0.013 C 
ATOM     26  C   LIG A   1      -4.351  -3.888 135.183  0.00  0.00    +0.010 C 
ATOM     27  C   LIG A   1      -3.975  -2.537 134.558  0.00  0.00    +0.019 C 
ENDROOT
BRANCH   7  28
ATOM     28  O   LIG A   1      -7.516   0.043 124.337  0.00  0.00    -0.391 OA
ATOM     29  H   LIG A   1      -8.104   0.781 124.081  0.00  0.00    +0.210 HD
ENDBRANCH   7  28
BRANCH  20  30
ATOM     30  C   LIG A   1      -6.325  -1.833 134.082  0.00  0.00    +0.314 C 
ATOM     31  O   LIG A   1      -6.762  -0.748 134.472  0.00  0.00    -0.250 OA
BRANCH  30  32
ATOM     32  O   LIG A   1      -7.058  -2.998 134.095  0.00  0.00    -0.468 OA
ATOM     33  C   LIG A   1      -7.971  -3.149 135.196  0.00  0.00    +0.280 C 
ENDBRANCH  30  32
ENDBRANCH  20  30
BRANCH  22  34
ATOM     34  O   LIG A   1      -5.263  -5.666 131.970  0.00  0.00    -0.391 OA
ATOM     35  H   LIG A   1      -6.115  -5.711 131.492  0.00  0.00    +0.210 HD
ENDBRANCH  22  34
BRANCH   6  36
ATOM     36  C   LIG A   1      -8.364  -3.663 124.258  0.00  0.00    +0.167 C 
BRANCH  36  37
ATOM     37  O   LIG A   1      -9.329  -3.390 123.236  0.00  0.00    -0.394 OA
ATOM     38  H   LIG A   1      -8.848  -2.963 122.501  0.00  0.00    +0.209 HD
ENDBRANCH  36  37
ENDBRANCH   6  36
BRANCH   6  39
ATOM     39  C   LIG A   1      -6.346  -2.396 123.543  0.00  0.00    +0.167 C 
BRANCH  39  40
ATOM     40  O   LIG A   1      -6.739  -1.864 122.281  0.00  0.00    -0.394 OA
ATOM     41  H   LIG A   1      -5.938  -1.442 121.895  0.00  0.00    +0.209 HD
ENDBRANCH  39  40
ENDBRANCH   6  39
TORSDOF 8
ENDMDL
MODEL 9
REMARK VINA RESULT:      -7.1      2.317      8.879
REMARK  Name = NuBBE_483
REMARK  14 active torsions:
REMARK  status: ('A' for Active; 'I' for Inactive)
REMARK    1  A    between atoms: C_1  and  C_2
REMARK    2  A    between atoms: C_6  and  C_7
REMARK    3  A    between atoms: C_6  and  C_9
REMARK    4  A    between atoms: C_7  and  O_8
REMARK    5  A    between atoms: C_9  and  O_10
REMARK    6  A    between atoms: C_11  and  O_13
REMARK    7  A    between atoms: C_16  and  C_17
REMARK    8  A    between atoms: C_22  and  C_23
REMARK    9  A    between atoms: C_26  and  C_27
REMARK   10  A    between atoms: C_27  and  O_28
REMARK   11  A    between atoms: O_28  and  C_29
REMARK   12  A    between atoms: C_32  and  O_34
REMARK   13  A    between atoms: C_35  and  C_36
REMARK   14  A    between atoms: C_35  and  C_37
REMARK                            x       y       z     vdW  Elec       q    Type
REMARK                         _______ _______ _______ _____ _____    ______ ____
ROOT
ATOM      1  C   LIG A   1      -4.672   1.161 129.586  0.00  0.00    +0.012 C 
ATOM      2  C   LIG A   1      -5.671   2.105 128.879  0.00  0.00    -0.019 C 
ATOM      3  C   LIG A   1      -5.076   3.544 128.951  0.00  0.00    +0.008 C 
ATOM      4  C   LIG A   1      -5.022   4.167 130.351  0.00  0.00    +0.005 C 
ATOM      5  C   LIG A   1      -6.375   4.256 131.115  0.00  0.00    +0.008 C 
ATOM      6  C   LIG A   1      -6.203   4.962 132.548  0.00  0.00    +0.046 C 
ATOM      7  C   LIG A   1      -5.728   3.939 133.626  0.00  0.00    +0.125 C 
ATOM      8  C   LIG A   1      -6.461   2.593 133.593  0.00  0.00    +0.032 C 
ATOM      9  C   LIG A   1      -6.485   1.940 132.200  0.00  0.00    +0.010 C 
ATOM     10  C   LIG A   1      -7.102   2.844 131.111  0.00  0.00    -0.025 C 
ATOM     11  C   LIG A   1      -8.615   2.988 131.467  0.00  0.00    +0.012 C 
ATOM     12  C   LIG A   1      -7.062   2.271 129.617  0.00  0.00    +0.006 C 
ATOM     13  C   LIG A   1      -7.950   1.066 129.310  0.00  0.00    +0.031 C 
ATOM     14  C   LIG A   1      -8.287   1.117 127.854  0.00  0.00    -0.026 C 
ATOM     15  C   LIG A   1      -7.355   1.361 126.915  0.00  0.00    -0.060 C 
ATOM     16  C   LIG A   1      -5.876   1.556 127.302  0.00  0.00    -0.005 C 
ATOM     17  C   LIG A   1      -5.114   2.512 126.340  0.00  0.00    +0.016 C 
ATOM     18  C   LIG A   1      -5.336   0.104 127.016  0.00  0.00    +0.012 C 
ATOM     19  C   LIG A   1      -5.609  -0.436 125.578  0.00  0.00    +0.019 C 
ATOM     20  C   LIG A   1      -7.091  -0.308 125.075  0.00  0.00    +0.077 C 
ATOM     21  C   LIG A   1      -7.631   1.111 125.436  0.00  0.00    +0.061 C 
ATOM     22  C   LIG A   1      -9.061   1.386 124.894  0.00  0.00    +0.128 C 
ATOM     23  C   LIG A   1      -9.152   1.175 123.353  0.00  0.00    -0.008 C 
ATOM     24  C   LIG A   1      -8.429   2.301 122.574  0.00  0.00    +0.013 C 
ATOM     25  C   LIG A   1     -10.634   1.215 122.924  0.00  0.00    +0.013 C 
ATOM     26  C   LIG A   1      -8.552  -0.197 122.964  0.00  0.00    +0.010 C 
ATOM     27  C   LIG A   1      -7.144  -0.439 123.525  0.00  0.00    +0.019 C 
ENDROOT
BRANCH   7  28
ATOM     28  O   LIG A   1      -4.334   3.651 133.477  0.00  0.00    -0.391 OA
ATOM     29  H   LIG A   1      -4.279   2.723 133.174  0.00  0.00    +0.210 HD
ENDBRANCH   7  28
BRANCH  20  30
ATOM     30  C   LIG A   1      -7.914  -1.462 125.671  0.00  0.00    +0.314 C 
ATOM     31  O   LIG A   1      -9.053  -1.406 126.140  0.00  0.00    -0.250 OA
BRANCH  30  32
ATOM     32  O   LIG A   1      -7.209  -2.635 125.527  0.00  0.00    -0.468 OA
ATOM     33  C   LIG A   1      -7.895  -3.698 124.844  0.00  0.00    +0.280 C 
ENDBRANCH  30  32
ENDBRANCH  20  30
BRANCH  22  34
ATOM     34  O   LIG A   1      -9.447   2.742 125.172  0.00  0.00    -0.391 OA
ATOM     35  H   LIG A   1      -9.412   3.246 124.334  0.00  0.00    +0.210 HD
ENDBRANCH  22  34
BRANCH   6  36
ATOM     36  C   LIG A   1      -7.548   5.625 132.995  0.00  0.00    +0.167 C 
BRANCH  36  37
ATOM     37  O   LIG A   1      -8.126   6.429 131.961  0.00  0.00    -0.394 OA
ATOM     38  H   LIG A   1      -7.500   6.417 131.211  0.00  0.00    +0.209 HD
ENDBRANCH  36  37
ENDBRANCH   6  36
BRANCH   6  39
ATOM     39  C   LIG A   1      -5.174   6.142 132.457  0.00  0.00    +0.167 C 
BRANCH  39  40
ATOM     40  O   LIG A   1      -4.529   6.432 133.694  0.00  0.00    -0.394 OA
ATOM     41  H   LIG A   1      -4.977   5.883 134.377  0.00  0.00    +0.209 HD
ENDBRANCH  39  40
ENDBRANCH   6  39
TORSDOF 8
ENDMDL
