MODEL 1
REMARK VINA RESULT:     -10.5      0.000      0.000
REMARK  Name = NuBBE_2171
REMARK  5 active torsions:
REMARK  status: ('A' for Active; 'I' for Inactive)
REMARK    1  A    between atoms: C_1  and  C_2
REMARK    2  A    between atoms: C_2  and  C_4
REMARK    3  A    between atoms: C_11  and  C_12
REMARK    4  A    between atoms: C_23  and  C_24
REMARK    5  A    between atoms: C_23  and  C_25
REMARK                            x       y       z     vdW  Elec       q    Type
REMARK                         _______ _______ _______ _____ _____    ______ ____
ROOT
ATOM      1  C   LIG A   1      -8.060   5.799 132.500  0.00  0.00    +0.211 C 
ATOM      2  C   LIG A   1      -7.693   4.418 131.980  0.00  0.00    +0.129 C 
ATOM      3  C   LIG A   1      -6.443   3.978 132.685  0.00  0.00    +0.171 C 
ATOM      4  C   LIG A   1      -6.274   4.437 134.080  0.00  0.00    +0.060 A 
ATOM      5  C   LIG A   1      -5.193   3.986 134.839  0.00  0.00    +0.019 A 
ATOM      6  C   LIG A   1      -5.074   4.388 136.168  0.00  0.00    +0.047 A 
ATOM      7  C   LIG A   1      -6.033   5.229 136.738  0.00  0.00    +0.132 A 
ATOM      8  C   LIG A   1      -7.119   5.686 135.983  0.00  0.00    +0.059 A 
ATOM      9  C   LIG A   1      -8.100   6.560 136.615  0.00  0.00    +0.015 C 
ATOM     10  C   LIG A   1      -7.919   6.898 137.894  0.00  0.00    +0.020 C 
ATOM     11  C   LIG A   1      -6.749   6.422 138.723  0.00  0.00    +0.123 C 
ATOM     12  C   LIG A   1      -7.271   5.644 139.937  0.00  0.00    +0.060 C 
ATOM     13  C   LIG A   1      -5.938   7.634 139.196  0.00  0.00    +0.060 C 
ATOM     14  O   LIG A   1      -5.821   5.548 138.049  0.00  0.00    -0.481 OA
ATOM     15  C   LIG A   1      -7.228   5.297 134.636  0.00  0.00    +0.142 A 
ATOM     16  O   LIG A   1      -8.303   5.760 133.914  0.00  0.00    -0.482 OA
ATOM     17  O   LIG A   1      -5.626   3.226 132.165  0.00  0.00    -0.292 OA
ENDROOT
BRANCH   1  28
ATOM     18  C   LIG A   1     -13.460   9.586 128.703  0.00  0.00    +0.060 C 
ATOM     19  C   LIG A   1     -12.738   8.240 128.582  0.00  0.00    +0.123 C 
ATOM     20  O   LIG A   1     -12.774   7.646 129.896  0.00  0.00    -0.482 OA
ATOM     21  C   LIG A   1     -13.533   7.309 127.659  0.00  0.00    +0.060 C 
ATOM     22  C   LIG A   1     -11.361   8.466 127.998  0.00  0.00    +0.020 C 
ATOM     23  C   LIG A   1     -10.233   8.084 128.605  0.00  0.00    +0.011 C 
ATOM     24  C   LIG A   1     -10.348   7.416 129.890  0.00  0.00    +0.017 A 
ATOM     25  C   LIG A   1     -11.604   7.232 130.467  0.00  0.00    +0.129 A 
ATOM     26  C   LIG A   1     -11.720   6.597 131.703  0.00  0.00    +0.046 A 
ATOM     27  C   LIG A   1     -10.582   6.139 132.368  0.00  0.00    +0.011 A 
ATOM     28  C   LIG A   1      -9.308   6.316 131.806  0.00  0.00    -0.006 A 
ATOM     29  C   LIG A   1      -9.205   6.957 130.559  0.00  0.00    +0.018 A 
ENDBRANCH   1  28
TORSDOF 1
ENDMDL
MODEL 2
REMARK VINA RESULT:      -9.8      3.323      4.900
REMARK  Name = NuBBE_2171
REMARK  5 active torsions:
REMARK  status: ('A' for Active; 'I' for Inactive)
REMARK    1  A    between atoms: C_1  and  C_2
REMARK    2  A    between atoms: C_2  and  C_4
REMARK    3  A    between atoms: C_11  and  C_12
REMARK    4  A    between atoms: C_23  and  C_24
REMARK    5  A    between atoms: C_23  and  C_25
REMARK                            x       y       z     vdW  Elec       q    Type
REMARK                         _______ _______ _______ _____ _____    ______ ____
ROOT
ATOM      1  C   LIG A   1      -8.246   5.504 132.049  0.00  0.00    +0.211 C 
ATOM      2  C   LIG A   1      -7.001   6.327 131.753  0.00  0.00    +0.129 C 
ATOM      3  C   LIG A   1      -5.826   5.620 132.364  0.00  0.00    +0.171 C 
ATOM      4  C   LIG A   1      -5.886   4.143 132.395  0.00  0.00    +0.060 A 
ATOM      5  C   LIG A   1      -4.790   3.408 132.850  0.00  0.00    +0.019 A 
ATOM      6  C   LIG A   1      -4.841   2.015 132.825  0.00  0.00    +0.047 A 
ATOM      7  C   LIG A   1      -5.977   1.361 132.342  0.00  0.00    +0.132 A 
ATOM      8  C   LIG A   1      -7.081   2.091 131.886  0.00  0.00    +0.059 A 
ATOM      9  C   LIG A   1      -8.246   1.372 131.388  0.00  0.00    +0.015 C 
ATOM     10  C   LIG A   1      -8.219   0.036 131.393  0.00  0.00    +0.020 C 
ATOM     11  C   LIG A   1      -7.042  -0.770 131.889  0.00  0.00    +0.123 C 
ATOM     12  C   LIG A   1      -6.521  -1.658 130.753  0.00  0.00    +0.060 C 
ATOM     13  C   LIG A   1      -7.487  -1.644 133.066  0.00  0.00    +0.060 C 
ATOM     14  O   LIG A   1      -5.912  -0.003 132.355  0.00  0.00    -0.481 OA
ATOM     15  C   LIG A   1      -7.037   3.497 131.930  0.00  0.00    +0.142 A 
ATOM     16  O   LIG A   1      -8.133   4.192 131.478  0.00  0.00    -0.482 OA
ATOM     17  O   LIG A   1      -4.835   6.220 132.766  0.00  0.00    -0.292 OA
ENDROOT
BRANCH   1  28
ATOM     18  C   LIG A   1     -13.474   9.993 128.819  0.00  0.00    +0.060 C 
ATOM     19  C   LIG A   1     -12.920   8.581 128.603  0.00  0.00    +0.123 C 
ATOM     20  O   LIG A   1     -12.917   7.949 129.900  0.00  0.00    -0.482 OA
ATOM     21  C   LIG A   1     -13.887   7.775 127.728  0.00  0.00    +0.060 C 
ATOM     22  C   LIG A   1     -11.578   8.673 127.910  0.00  0.00    +0.020 C 
ATOM     23  C   LIG A   1     -10.456   8.148 128.410  0.00  0.00    +0.011 C 
ATOM     24  C   LIG A   1     -10.540   7.453 129.683  0.00  0.00    +0.017 A 
ATOM     25  C   LIG A   1     -11.758   7.389 130.359  0.00  0.00    +0.129 A 
ATOM     26  C   LIG A   1     -11.844   6.729 131.584  0.00  0.00    +0.046 A 
ATOM     27  C   LIG A   1     -10.715   6.125 132.139  0.00  0.00    +0.011 A 
ATOM     28  C   LIG A   1      -9.480   6.179 131.477  0.00  0.00    -0.006 A 
ATOM     29  C   LIG A   1      -9.406   6.847 130.242  0.00  0.00    +0.018 A 
ENDBRANCH   1  28
TORSDOF 1
ENDMDL
MODEL 3
REMARK VINA RESULT:      -9.6      6.020      8.493
REMARK  Name = NuBBE_2171
REMARK  5 active torsions:
REMARK  status: ('A' for Active; 'I' for Inactive)
REMARK    1  A    between atoms: C_1  and  C_2
REMARK    2  A    between atoms: C_2  and  C_4
REMARK    3  A    between atoms: C_11  and  C_12
REMARK    4  A    between atoms: C_23  and  C_24
REMARK    5  A    between atoms: C_23  and  C_25
REMARK                            x       y       z     vdW  Elec       q    Type
REMARK                         _______ _______ _______ _____ _____    ______ ____
ROOT
ATOM      1  C   LIG A   1      -7.498   0.163 130.528  0.00  0.00    +0.211 C 
ATOM      2  C   LIG A   1      -7.501  -0.605 131.841  0.00  0.00    +0.129 C 
ATOM      3  C   LIG A   1      -7.252   0.376 132.950  0.00  0.00    +0.171 C 
ATOM      4  C   LIG A   1      -7.787   1.740 132.758  0.00  0.00    +0.060 A 
ATOM      5  C   LIG A   1      -7.690   2.680 133.785  0.00  0.00    +0.019 A 
ATOM      6  C   LIG A   1      -8.244   3.947 133.608  0.00  0.00    +0.047 A 
ATOM      7  C   LIG A   1      -8.898   4.270 132.417  0.00  0.00    +0.132 A 
ATOM      8  C   LIG A   1      -8.998   3.333 131.382  0.00  0.00    +0.059 A 
ATOM      9  C   LIG A   1      -9.691   3.708 130.156  0.00  0.00    +0.015 C 
ATOM     10  C   LIG A   1     -10.199   4.939 130.063  0.00  0.00    +0.020 C 
ATOM     11  C   LIG A   1     -10.093   5.968 131.165  0.00  0.00    +0.123 C 
ATOM     12  C   LIG A   1     -11.501   6.390 131.601  0.00  0.00    +0.060 C 
ATOM     13  C   LIG A   1      -9.325   7.188 130.646  0.00  0.00    +0.060 C 
ATOM     14  O   LIG A   1      -9.411   5.535 132.360  0.00  0.00    -0.481 OA
ATOM     15  C   LIG A   1      -8.421   2.062 131.552  0.00  0.00    +0.142 A 
ATOM     16  O   LIG A   1      -8.531   1.159 130.522  0.00  0.00    -0.482 OA
ATOM     17  O   LIG A   1      -6.689   0.060 133.991  0.00  0.00    -0.292 OA
ENDROOT
BRANCH   1  28
ATOM     18  C   LIG A   1      -9.411  -3.413 124.089  0.00  0.00    +0.060 C 
ATOM     19  C   LIG A   1      -8.119  -2.995 124.799  0.00  0.00    +0.123 C 
ATOM     20  O   LIG A   1      -8.260  -3.420 126.171  0.00  0.00    -0.482 OA
ATOM     21  C   LIG A   1      -6.935  -3.778 124.219  0.00  0.00    +0.060 C 
ATOM     22  C   LIG A   1      -7.890  -1.515 124.587  0.00  0.00    +0.020 C 
ATOM     23  C   LIG A   1      -7.752  -0.642 125.589  0.00  0.00    +0.011 C 
ATOM     24  C   LIG A   1      -7.822  -1.152 126.947  0.00  0.00    +0.017 A 
ATOM     25  C   LIG A   1      -8.072  -2.506 127.168  0.00  0.00    +0.129 A 
ATOM     26  C   LIG A   1      -8.147  -3.000 128.469  0.00  0.00    +0.046 A 
ATOM     27  C   LIG A   1      -7.970  -2.145 129.558  0.00  0.00    +0.011 A 
ATOM     28  C   LIG A   1      -7.721  -0.779 129.358  0.00  0.00    -0.006 A 
ATOM     29  C   LIG A   1      -7.647  -0.293 128.041  0.00  0.00    +0.018 A 
ENDBRANCH   1  28
TORSDOF 1
ENDMDL
MODEL 4
REMARK VINA RESULT:      -9.3      3.514      8.625
REMARK  Name = NuBBE_2171
REMARK  5 active torsions:
REMARK  status: ('A' for Active; 'I' for Inactive)
REMARK    1  A    between atoms: C_1  and  C_2
REMARK    2  A    between atoms: C_2  and  C_4
REMARK    3  A    between atoms: C_11  and  C_12
REMARK    4  A    between atoms: C_23  and  C_24
REMARK    5  A    between atoms: C_23  and  C_25
REMARK                            x       y       z     vdW  Elec       q    Type
REMARK                         _______ _______ _______ _____ _____    ______ ____
ROOT
ATOM      1  C   LIG A   1      -6.658   5.276 132.077  0.00  0.00    +0.211 C 
ATOM      2  C   LIG A   1      -6.289   3.836 131.755  0.00  0.00    +0.129 C 
ATOM      3  C   LIG A   1      -7.561   3.044 131.660  0.00  0.00    +0.171 C 
ATOM      4  C   LIG A   1      -8.746   3.757 131.140  0.00  0.00    +0.060 A 
ATOM      5  C   LIG A   1      -9.939   3.065 130.922  0.00  0.00    +0.019 A 
ATOM      6  C   LIG A   1     -11.033   3.739 130.384  0.00  0.00    +0.047 A 
ATOM      7  C   LIG A   1     -10.935   5.094 130.057  0.00  0.00    +0.132 A 
ATOM      8  C   LIG A   1      -9.743   5.795 130.275  0.00  0.00    +0.059 A 
ATOM      9  C   LIG A   1      -9.680   7.207 129.919  0.00  0.00    +0.015 C 
ATOM     10  C   LIG A   1     -10.769   7.782 129.404  0.00  0.00    +0.020 C 
ATOM     11  C   LIG A   1     -12.067   7.046 129.170  0.00  0.00    +0.123 C 
ATOM     12  C   LIG A   1     -12.426   7.110 127.681  0.00  0.00    +0.060 C 
ATOM     13  C   LIG A   1     -13.178   7.702 129.998  0.00  0.00    +0.060 C 
ATOM     14  O   LIG A   1     -12.065   5.648 129.527  0.00  0.00    -0.481 OA
ATOM     15  C   LIG A   1      -8.645   5.120 130.837  0.00  0.00    +0.142 A 
ATOM     16  O   LIG A   1      -7.485   5.829 131.042  0.00  0.00    -0.482 OA
ATOM     17  O   LIG A   1      -7.613   1.851 131.939  0.00  0.00    -0.292 OA
ENDROOT
BRANCH   1  28
ATOM     18  C   LIG A   1      -0.971   9.910 134.100  0.00  0.00    +0.060 C 
ATOM     19  C   LIG A   1      -1.133   8.437 133.709  0.00  0.00    +0.123 C 
ATOM     20  O   LIG A   1      -1.936   8.426 132.511  0.00  0.00    -0.482 OA
ATOM     21  C   LIG A   1       0.231   7.851 133.326  0.00  0.00    +0.060 C 
ATOM     22  C   LIG A   1      -1.693   7.669 134.886  0.00  0.00    +0.020 C 
ATOM     23  C   LIG A   1      -2.822   6.956 134.828  0.00  0.00    +0.011 C 
ATOM     24  C   LIG A   1      -3.538   6.921 133.565  0.00  0.00    +0.017 A 
ATOM     25  C   LIG A   1      -3.063   7.653 132.477  0.00  0.00    +0.129 A 
ATOM     26  C   LIG A   1      -3.749   7.630 131.264  0.00  0.00    +0.046 A 
ATOM     27  C   LIG A   1      -4.913   6.871 131.129  0.00  0.00    +0.011 A 
ATOM     28  C   LIG A   1      -5.410   6.130 132.211  0.00  0.00    -0.006 A 
ATOM     29  C   LIG A   1      -4.709   6.162 133.429  0.00  0.00    +0.018 A 
ENDBRANCH   1  28
TORSDOF 1
ENDMDL
MODEL 5
REMARK VINA RESULT:      -9.1      7.179     11.451
REMARK  Name = NuBBE_2171
REMARK  5 active torsions:
REMARK  status: ('A' for Active; 'I' for Inactive)
REMARK    1  A    between atoms: C_1  and  C_2
REMARK    2  A    between atoms: C_2  and  C_4
REMARK    3  A    between atoms: C_11  and  C_12
REMARK    4  A    between atoms: C_23  and  C_24
REMARK    5  A    between atoms: C_23  and  C_25
REMARK                            x       y       z     vdW  Elec       q    Type
REMARK                         _______ _______ _______ _____ _____    ______ ____
ROOT
ATOM      1  C   LIG A   1      -4.712   3.157 126.416  0.00  0.00    +0.211 C 
ATOM      2  C   LIG A   1      -5.332   4.356 125.716  0.00  0.00    +0.129 C 
ATOM      3  C   LIG A   1      -5.793   3.909 124.359  0.00  0.00    +0.171 C 
ATOM      4  C   LIG A   1      -6.272   2.515 124.249  0.00  0.00    +0.060 A 
ATOM      5  C   LIG A   1      -6.815   2.055 123.048  0.00  0.00    +0.019 A 
ATOM      6  C   LIG A   1      -7.309   0.754 122.974  0.00  0.00    +0.047 A 
ATOM      7  C   LIG A   1      -7.269  -0.080 124.095  0.00  0.00    +0.132 A 
ATOM      8  C   LIG A   1      -6.725   0.375 125.302  0.00  0.00    +0.059 A 
ATOM      9  C   LIG A   1      -6.703  -0.525 126.449  0.00  0.00    +0.015 C 
ATOM     10  C   LIG A   1      -7.199  -1.756 126.301  0.00  0.00    +0.020 C 
ATOM     11  C   LIG A   1      -7.782  -2.268 125.005  0.00  0.00    +0.123 C 
ATOM     12  C   LIG A   1      -9.242  -2.677 125.232  0.00  0.00    +0.060 C 
ATOM     13  C   LIG A   1      -6.973  -3.479 124.529  0.00  0.00    +0.060 C 
ATOM     14  O   LIG A   1      -7.791  -1.328 123.910  0.00  0.00    -0.481 OA
ATOM     15  C   LIG A   1      -6.207   1.680 125.370  0.00  0.00    +0.142 A 
ATOM     16  O   LIG A   1      -5.677   2.104 126.566  0.00  0.00    -0.482 OA
ATOM     17  O   LIG A   1      -5.832   4.668 123.396  0.00  0.00    -0.292 OA
ENDROOT
BRANCH   1  28
ATOM     18  C   LIG A   1      -0.883   5.460 132.576  0.00  0.00    +0.060 C 
ATOM     19  C   LIG A   1      -2.168   5.856 131.841  0.00  0.00    +0.123 C 
ATOM     20  O   LIG A   1      -2.889   4.629 131.604  0.00  0.00    -0.482 OA
ATOM     21  C   LIG A   1      -3.048   6.709 132.762  0.00  0.00    +0.060 C 
ATOM     22  C   LIG A   1      -1.809   6.658 130.609  0.00  0.00    +0.020 C 
ATOM     23  C   LIG A   1      -2.184   6.315 129.374  0.00  0.00    +0.011 C 
ATOM     24  C   LIG A   1      -2.980   5.110 129.217  0.00  0.00    +0.017 A 
ATOM     25  C   LIG A   1      -3.290   4.333 130.332  0.00  0.00    +0.129 A 
ATOM     26  C   LIG A   1      -4.048   3.171 130.188  0.00  0.00    +0.046 A 
ATOM     27  C   LIG A   1      -4.504   2.782 128.928  0.00  0.00    +0.011 A 
ATOM     28  C   LIG A   1      -4.202   3.548 127.792  0.00  0.00    -0.006 A 
ATOM     29  C   LIG A   1      -3.437   4.716 127.951  0.00  0.00    +0.018 A 
ENDBRANCH   1  28
TORSDOF 1
ENDMDL
MODEL 6
REMARK VINA RESULT:      -8.9      8.206     12.384
REMARK  Name = NuBBE_2171
REMARK  5 active torsions:
REMARK  status: ('A' for Active; 'I' for Inactive)
REMARK    1  A    between atoms: C_1  and  C_2
REMARK    2  A    between atoms: C_2  and  C_4
REMARK    3  A    between atoms: C_11  and  C_12
REMARK    4  A    between atoms: C_23  and  C_24
REMARK    5  A    between atoms: C_23  and  C_25
REMARK                            x       y       z     vdW  Elec       q    Type
REMARK                         _______ _______ _______ _____ _____    ______ ____
ROOT
ATOM      1  C   LIG A   1      -8.261  -1.657 127.984  0.00  0.00    +0.211 C 
ATOM      2  C   LIG A   1      -8.441  -2.813 127.013  0.00  0.00    +0.129 C 
ATOM      3  C   LIG A   1      -9.017  -2.260 125.741  0.00  0.00    +0.171 C 
ATOM      4  C   LIG A   1      -8.605  -0.890 125.370  0.00  0.00    +0.060 A 
ATOM      5  C   LIG A   1      -9.012  -0.343 124.152  0.00  0.00    +0.019 A 
ATOM      6  C   LIG A   1      -8.575   0.931 123.793  0.00  0.00    +0.047 A 
ATOM      7  C   LIG A   1      -7.730   1.651 124.641  0.00  0.00    +0.132 A 
ATOM      8  C   LIG A   1      -7.320   1.110 125.865  0.00  0.00    +0.059 A 
ATOM      9  C   LIG A   1      -6.437   1.892 126.722  0.00  0.00    +0.015 C 
ATOM     10  C   LIG A   1      -6.058   3.103 126.307  0.00  0.00    +0.020 C 
ATOM     11  C   LIG A   1      -6.497   3.709 124.994  0.00  0.00    +0.123 C 
ATOM     12  C   LIG A   1      -5.262   4.016 124.139  0.00  0.00    +0.060 C 
ATOM     13  C   LIG A   1      -7.272   5.002 125.267  0.00  0.00    +0.060 C 
ATOM     14  O   LIG A   1      -7.357   2.882 124.183  0.00  0.00    -0.481 OA
ATOM     15  C   LIG A   1      -7.778  -0.167 126.237  0.00  0.00    +0.142 A 
ATOM     16  O   LIG A   1      -7.362  -0.677 127.444  0.00  0.00    -0.482 OA
ATOM     17  O   LIG A   1      -9.743  -2.921 125.007  0.00  0.00    -0.292 OA
ENDROOT
BRANCH   1  28
ATOM     18  C   LIG A   1      -5.902  -5.498 134.116  0.00  0.00    +0.060 C 
ATOM     19  C   LIG A   1      -5.273  -4.605 133.040  0.00  0.00    +0.123 C 
ATOM     20  O   LIG A   1      -6.114  -3.437 132.947  0.00  0.00    -0.482 OA
ATOM     21  C   LIG A   1      -3.898  -4.118 133.513  0.00  0.00    +0.060 C 
ATOM     22  C   LIG A   1      -5.109  -5.404 131.766  0.00  0.00    +0.020 C 
ATOM     23  C   LIG A   1      -5.638  -5.035 130.595  0.00  0.00    +0.011 C 
ATOM     24  C   LIG A   1      -6.405  -3.802 130.555  0.00  0.00    +0.017 A 
ATOM     25  C   LIG A   1      -6.603  -3.070 131.725  0.00  0.00    +0.129 A 
ATOM     26  C   LIG A   1      -7.344  -1.890 131.695  0.00  0.00    +0.046 A 
ATOM     27  C   LIG A   1      -7.888  -1.431 130.495  0.00  0.00    +0.011 A 
ATOM     28  C   LIG A   1      -7.702  -2.153 129.306  0.00  0.00    -0.006 A 
ATOM     29  C   LIG A   1      -6.953  -3.342 129.350  0.00  0.00    +0.018 A 
ENDBRANCH   1  28
TORSDOF 1
ENDMDL
MODEL 7
REMARK VINA RESULT:      -8.8      6.565     10.369
REMARK  Name = NuBBE_2171
REMARK  5 active torsions:
REMARK  status: ('A' for Active; 'I' for Inactive)
REMARK    1  A    between atoms: C_1  and  C_2
REMARK    2  A    between atoms: C_2  and  C_4
REMARK    3  A    between atoms: C_11  and  C_12
REMARK    4  A    between atoms: C_23  and  C_24
REMARK    5  A    between atoms: C_23  and  C_25
REMARK                            x       y       z     vdW  Elec       q    Type
REMARK                         _______ _______ _______ _____ _____    ______ ____
ROOT
ATOM      1  C   LIG A   1      -7.428   0.938 129.889  0.00  0.00    +0.211 C 
ATOM      2  C   LIG A   1      -6.945   0.193 131.123  0.00  0.00    +0.129 C 
ATOM      3  C   LIG A   1      -7.565  -1.174 131.107  0.00  0.00    +0.171 C 
ATOM      4  C   LIG A   1      -7.794  -1.781 129.779  0.00  0.00    +0.060 A 
ATOM      5  C   LIG A   1      -8.269  -3.091 129.681  0.00  0.00    +0.019 A 
ATOM      6  C   LIG A   1      -8.433  -3.667 128.423  0.00  0.00    +0.047 A 
ATOM      7  C   LIG A   1      -8.117  -2.944 127.270  0.00  0.00    +0.132 A 
ATOM      8  C   LIG A   1      -7.642  -1.630 127.361  0.00  0.00    +0.059 A 
ATOM      9  C   LIG A   1      -7.322  -0.910 126.135  0.00  0.00    +0.015 C 
ATOM     10  C   LIG A   1      -7.502  -1.531 124.967  0.00  0.00    +0.020 C 
ATOM     11  C   LIG A   1      -8.022  -2.945 124.848  0.00  0.00    +0.123 C 
ATOM     12  C   LIG A   1      -6.981  -3.808 124.124  0.00  0.00    +0.060 C 
ATOM     13  C   LIG A   1      -9.331  -2.937 124.052  0.00  0.00    +0.060 C 
ATOM     14  O   LIG A   1      -8.306  -3.612 126.094  0.00  0.00    -0.481 OA
ATOM     15  C   LIG A   1      -7.497  -1.041 128.630  0.00  0.00    +0.142 A 
ATOM     16  O   LIG A   1      -7.030   0.250 128.693  0.00  0.00    -0.482 OA
ATOM     17  O   LIG A   1      -7.816  -1.792 132.136  0.00  0.00    -0.292 OA
ENDROOT
BRANCH   1  28
ATOM     18  C   LIG A   1      -3.762   7.527 130.919  0.00  0.00    +0.060 C 
ATOM     19  C   LIG A   1      -3.893   6.478 129.810  0.00  0.00    +0.123 C 
ATOM     20  O   LIG A   1      -5.305   6.216 129.671  0.00  0.00    -0.482 OA
ATOM     21  C   LIG A   1      -3.426   7.074 128.477  0.00  0.00    +0.060 C 
ATOM     22  C   LIG A   1      -3.031   5.282 130.152  0.00  0.00    +0.020 C 
ATOM     23  C   LIG A   1      -3.508   4.038 130.254  0.00  0.00    +0.011 C 
ATOM     24  C   LIG A   1      -4.927   3.834 130.019  0.00  0.00    +0.017 A 
ATOM     25  C   LIG A   1      -5.748   4.926 129.742  0.00  0.00    +0.129 A 
ATOM     26  C   LIG A   1      -7.112   4.737 129.523  0.00  0.00    +0.046 A 
ATOM     27  C   LIG A   1      -7.663   3.456 129.575  0.00  0.00    +0.011 A 
ATOM     28  C   LIG A   1      -6.854   2.344 129.855  0.00  0.00    -0.006 A 
ATOM     29  C   LIG A   1      -5.481   2.547 130.074  0.00  0.00    +0.018 A 
ENDBRANCH   1  28
TORSDOF 1
ENDMDL
MODEL 8
REMARK VINA RESULT:      -8.8      5.939      8.670
REMARK  Name = NuBBE_2171
REMARK  5 active torsions:
REMARK  status: ('A' for Active; 'I' for Inactive)
REMARK    1  A    between atoms: C_1  and  C_2
REMARK    2  A    between atoms: C_2  and  C_4
REMARK    3  A    between atoms: C_11  and  C_12
REMARK    4  A    between atoms: C_23  and  C_24
REMARK    5  A    between atoms: C_23  and  C_25
REMARK                            x       y       z     vdW  Elec       q    Type
REMARK                         _______ _______ _______ _____ _____    ______ ____
ROOT
ATOM      1  C   LIG A   1      -5.493   2.889 128.267  0.00  0.00    +0.211 C 
ATOM      2  C   LIG A   1      -4.239   2.883 129.127  0.00  0.00    +0.129 C 
ATOM      3  C   LIG A   1      -4.100   4.243 129.748  0.00  0.00    +0.171 C 
ATOM      4  C   LIG A   1      -5.355   4.952 130.074  0.00  0.00    +0.060 A 
ATOM      5  C   LIG A   1      -5.313   6.174 130.749  0.00  0.00    +0.019 A 
ATOM      6  C   LIG A   1      -6.505   6.807 131.094  0.00  0.00    +0.047 A 
ATOM      7  C   LIG A   1      -7.733   6.220 130.776  0.00  0.00    +0.132 A 
ATOM      8  C   LIG A   1      -7.782   4.996 130.098  0.00  0.00    +0.059 A 
ATOM      9  C   LIG A   1      -9.082   4.415 129.786  0.00  0.00    +0.015 C 
ATOM     10  C   LIG A   1     -10.181   5.080 130.154  0.00  0.00    +0.020 C 
ATOM     11  C   LIG A   1     -10.148   6.406 130.877  0.00  0.00    +0.123 C 
ATOM     12  C   LIG A   1     -10.869   6.267 132.223  0.00  0.00    +0.060 C 
ATOM     13  C   LIG A   1     -10.848   7.466 130.021  0.00  0.00    +0.060 C 
ATOM     14  O   LIG A   1      -8.834   6.923 131.173  0.00  0.00    -0.481 OA
ATOM     15  C   LIG A   1      -6.579   4.368 129.731  0.00  0.00    +0.142 A 
ATOM     16  O   LIG A   1      -6.653   3.167 129.066  0.00  0.00    -0.482 OA
ATOM     17  O   LIG A   1      -3.010   4.727 130.031  0.00  0.00    -0.292 OA
ENDROOT
BRANCH   1  28
ATOM     18  C   LIG A   1      -7.681  -3.225 124.298  0.00  0.00    +0.060 C 
ATOM     19  C   LIG A   1      -6.467  -2.291 124.342  0.00  0.00    +0.123 C 
ATOM     20  O   LIG A   1      -6.102  -2.172 125.733  0.00  0.00    -0.482 OA
ATOM     21  C   LIG A   1      -5.280  -2.954 123.634  0.00  0.00    +0.060 C 
ATOM     22  C   LIG A   1      -6.810  -0.997 123.637  0.00  0.00    +0.020 C 
ATOM     23  C   LIG A   1      -6.719   0.203 124.218  0.00  0.00    +0.011 C 
ATOM     24  C   LIG A   1      -6.265   0.256 125.597  0.00  0.00    +0.017 A 
ATOM     25  C   LIG A   1      -5.981  -0.926 126.280  0.00  0.00    +0.129 A 
ATOM     26  C   LIG A   1      -5.551  -0.882 127.605  0.00  0.00    +0.046 A 
ATOM     27  C   LIG A   1      -5.398   0.343 128.256  0.00  0.00    +0.011 A 
ATOM     28  C   LIG A   1      -5.681   1.544 127.588  0.00  0.00    -0.006 A 
ATOM     29  C   LIG A   1      -6.113   1.487 126.251  0.00  0.00    +0.018 A 
ENDBRANCH   1  28
TORSDOF 1
ENDMDL
MODEL 9
REMARK VINA RESULT:      -8.8      6.294      8.124
REMARK  Name = NuBBE_2171
REMARK  5 active torsions:
REMARK  status: ('A' for Active; 'I' for Inactive)
REMARK    1  A    between atoms: C_1  and  C_2
REMARK    2  A    between atoms: C_2  and  C_4
REMARK    3  A    between atoms: C_11  and  C_12
REMARK    4  A    between atoms: C_23  and  C_24
REMARK    5  A    between atoms: C_23  and  C_25
REMARK                            x       y       z     vdW  Elec       q    Type
REMARK                         _______ _______ _______ _____ _____    ______ ____
ROOT
ATOM      1  C   LIG A   1      -7.318  -0.574 130.644  0.00  0.00    +0.211 C 
ATOM      2  C   LIG A   1      -7.629  -1.194 129.291  0.00  0.00    +0.129 C 
ATOM      3  C   LIG A   1      -6.773  -2.417 129.137  0.00  0.00    +0.171 C 
ATOM      4  C   LIG A   1      -6.470  -3.171 130.371  0.00  0.00    +0.060 A 
ATOM      5  C   LIG A   1      -5.770  -4.377 130.300  0.00  0.00    +0.019 A 
ATOM      6  C   LIG A   1      -5.536  -5.103 131.467  0.00  0.00    +0.047 A 
ATOM      7  C   LIG A   1      -6.005  -4.631 132.696  0.00  0.00    +0.132 A 
ATOM      8  C   LIG A   1      -6.706  -3.423 132.775  0.00  0.00    +0.059 A 
ATOM      9  C   LIG A   1      -7.181  -2.966 134.075  0.00  0.00    +0.015 C 
ATOM     10  C   LIG A   1      -6.920  -3.719 135.147  0.00  0.00    +0.020 C 
ATOM     11  C   LIG A   1      -6.157  -5.021 135.084  0.00  0.00    +0.123 C 
ATOM     12  C   LIG A   1      -7.042  -6.154 135.618  0.00  0.00    +0.060 C 
ATOM     13  C   LIG A   1      -4.890  -4.907 135.938  0.00  0.00    +0.060 C 
ATOM     14  O   LIG A   1      -5.727  -5.429 133.769  0.00  0.00    -0.481 OA
ATOM     15  C   LIG A   1      -6.924  -2.680 131.600  0.00  0.00    +0.142 A 
ATOM     16  O   LIG A   1      -7.615  -1.496 131.703  0.00  0.00    -0.482 OA
ATOM     17  O   LIG A   1      -6.389  -2.816 128.043  0.00  0.00    -0.292 OA
ENDROOT
BRANCH   1  28
ATOM     18  C   LIG A   1     -10.098   6.454 131.534  0.00  0.00    +0.060 C 
ATOM     19  C   LIG A   1     -10.310   5.277 130.576  0.00  0.00    +0.123 C 
ATOM     20  O   LIG A   1     -10.467   4.107 131.407  0.00  0.00    -0.482 OA
ATOM     21  C   LIG A   1     -11.633   5.457 129.821  0.00  0.00    +0.060 C 
ATOM     22  C   LIG A   1      -9.170   5.233 129.583  0.00  0.00    +0.020 C 
ATOM     23  C   LIG A   1      -8.385   4.165 129.412  0.00  0.00    +0.011 C 
ATOM     24  C   LIG A   1      -8.652   2.990 130.224  0.00  0.00    +0.017 A 
ATOM     25  C   LIG A   1      -9.672   3.021 131.174  0.00  0.00    +0.129 A 
ATOM     26  C   LIG A   1      -9.928   1.899 131.962  0.00  0.00    +0.046 A 
ATOM     27  C   LIG A   1      -9.169   0.739 131.802  0.00  0.00    +0.011 A 
ATOM     28  C   LIG A   1      -8.136   0.688 130.854  0.00  0.00    -0.006 A 
ATOM     29  C   LIG A   1      -7.888   1.825 130.066  0.00  0.00    +0.018 A 
ENDBRANCH   1  28
TORSDOF 1
ENDMDL
