MODEL 1
REMARK VINA RESULT:      -7.6      0.000      0.000
REMARK  Name = NuBBE_284
REMARK  11 active torsions:
REMARK  status: ('A' for Active; 'I' for Inactive)
REMARK    1  A    between atoms: O_1  and  C_2
REMARK    2  A    between atoms: C_5  and  O_6
REMARK    3  A    between atoms: O_6  and  C_7
REMARK    4  A    between atoms: C_10  and  C_18
REMARK    5  A    between atoms: C_12  and  O_17
REMARK    6  A    between atoms: C_14  and  O_16
REMARK    7  A    between atoms: C_18  and  O_19
REMARK    8  A    between atoms: C_20  and  O_22
REMARK    9  A    between atoms: C_23  and  C_30
REMARK   10  A    between atoms: C_27  and  O_28
REMARK   11  A    between atoms: C_33  and  O_36
REMARK                            x       y       z     vdW  Elec       q    Type
REMARK                         _______ _______ _______ _____ _____    ______ ____
ROOT
ATOM      1  C   LIG A   1      -7.725   3.705 120.839  0.00  0.00    +0.135 A 
ATOM      2  C   LIG A   1      -7.102   3.746 122.090  0.00  0.00    +0.109 A 
ATOM      3  C   LIG A   1      -7.779   3.254 123.303  0.00  0.00    +0.238 A 
ATOM      4  C   LIG A   1      -6.996   3.193 124.573  0.00  0.00    +0.214 A 
ATOM      5  C   LIG A   1      -5.766   3.752 124.548  0.00  0.00    +0.181 A 
ATOM      6  O   LIG A   1      -5.170   4.328 123.427  0.00  0.00    -0.451 OA
ATOM      7  C   LIG A   1      -5.829   4.273 122.223  0.00  0.00    +0.146 A 
ATOM      8  C   LIG A   1      -5.167   4.781 121.097  0.00  0.00    +0.092 A 
ATOM      9  C   LIG A   1      -5.798   4.740 119.853  0.00  0.00    +0.124 A 
ATOM     10  C   LIG A   1      -7.071   4.201 119.712  0.00  0.00    +0.091 A 
ATOM     11  O   LIG A   1      -8.951   2.921 123.211  0.00  0.00    -0.283 OA
ENDROOT
BRANCH   5  12
ATOM     12  C   LIG A   1      -4.907   3.854 125.752  0.00  0.00    +0.021 A 
ATOM     13  C   LIG A   1      -4.035   2.812 126.108  0.00  0.00    +0.015 A 
ATOM     14  C   LIG A   1      -3.238   2.902 127.260  0.00  0.00    +0.046 A 
ATOM     15  C   LIG A   1      -3.318   4.033 128.063  0.00  0.00    +0.117 A 
ATOM     16  C   LIG A   1      -4.184   5.069 127.735  0.00  0.00    +0.046 A 
ATOM     17  C   LIG A   1      -4.977   4.981 126.582  0.00  0.00    +0.015 A 
BRANCH  15  18
ATOM     18  O   LIG A   1      -2.561   4.168 129.190  0.00  0.00    -0.507 OA
ATOM     19  H   LIG A   1      -2.092   3.334 129.361  0.00  0.00    +0.292 HD
ENDBRANCH  15  18
ENDBRANCH   5  12
BRANCH   1  20
ATOM     20  O   LIG A   1      -8.975   3.184 120.631  0.00  0.00    -0.506 OA
ATOM     21  H   LIG A   1      -9.184   2.583 121.382  0.00  0.00    +0.292 HD
ENDBRANCH   1  20
BRANCH   9  22
ATOM     22  O   LIG A   1      -5.198   5.223 118.727  0.00  0.00    -0.506 OA
ATOM     23  H   LIG A   1      -5.387   6.171 118.637  0.00  0.00    +0.292 HD
ENDBRANCH   9  22
BRANCH   4  24
ATOM     24  O   LIG A   1      -7.539   2.672 125.742  0.00  0.00    -0.453 OA
BRANCH  24  25
ATOM     25  C   LIG A   1      -7.342   1.274 126.018  0.00  0.00    +0.340 C 
ATOM     26  O   LIG A   1      -7.189   0.575 124.760  0.00  0.00    -0.331 OA
ATOM     27  C   LIG A   1      -7.229  -0.850 124.959  0.00  0.00    +0.179 C 
ATOM     28  C   LIG A   1      -8.677  -1.282 125.286  0.00  0.00    +0.177 C 
ATOM     29  C   LIG A   1      -9.469  -0.104 125.891  0.00  0.00    +0.180 C 
ATOM     30  C   LIG A   1      -8.575   0.741 126.807  0.00  0.00    +0.214 C 
BRANCH  29  31
ATOM     31  O   LIG A   1     -10.027   0.684 124.825  0.00  0.00    -0.386 OA
ATOM     32  H   LIG A   1     -11.001   0.562 124.852  0.00  0.00    +0.210 HD
ENDBRANCH  29  31
BRANCH  28  33
ATOM     33  O   LIG A   1      -9.376  -1.772 124.131  0.00  0.00    -0.387 OA
ATOM     34  H   LIG A   1      -9.664  -0.979 123.630  0.00  0.00    +0.210 HD
ENDBRANCH  28  33
BRANCH  30  35
ATOM     35  O   LIG A   1      -8.123  -0.083 127.897  0.00  0.00    -0.383 OA
ATOM     36  H   LIG A   1      -7.151  -0.031 127.928  0.00  0.00    +0.210 HD
ENDBRANCH  30  35
BRANCH  27  37
ATOM     37  C   LIG A   1      -6.635  -1.569 123.744  0.00  0.00    +0.190 C 
BRANCH  37  38
ATOM     38  O   LIG A   1      -6.682  -2.983 123.905  0.00  0.00    -0.392 OA
ATOM     39  H   LIG A   1      -7.627  -3.228 123.839  0.00  0.00    +0.209 HD
ENDBRANCH  37  38
ENDBRANCH  27  37
ENDBRANCH  24  25
ENDBRANCH   4  24
TORSDOF 11
ENDMDL
MODEL 2
REMARK VINA RESULT:      -7.4      1.675      5.791
REMARK  Name = NuBBE_284
REMARK  11 active torsions:
REMARK  status: ('A' for Active; 'I' for Inactive)
REMARK    1  A    between atoms: O_1  and  C_2
REMARK    2  A    between atoms: C_5  and  O_6
REMARK    3  A    between atoms: O_6  and  C_7
REMARK    4  A    between atoms: C_10  and  C_18
REMARK    5  A    between atoms: C_12  and  O_17
REMARK    6  A    between atoms: C_14  and  O_16
REMARK    7  A    between atoms: C_18  and  O_19
REMARK    8  A    between atoms: C_20  and  O_22
REMARK    9  A    between atoms: C_23  and  C_30
REMARK   10  A    between atoms: C_27  and  O_28
REMARK   11  A    between atoms: C_33  and  O_36
REMARK                            x       y       z     vdW  Elec       q    Type
REMARK                         _______ _______ _______ _____ _____    ______ ____
ROOT
ATOM      1  C   LIG A   1      -4.269   2.674 128.144  0.00  0.00    +0.135 A 
ATOM      2  C   LIG A   1      -4.836   2.754 126.869  0.00  0.00    +0.109 A 
ATOM      3  C   LIG A   1      -5.307   1.550 126.160  0.00  0.00    +0.238 A 
ATOM      4  C   LIG A   1      -6.035   1.732 124.868  0.00  0.00    +0.214 A 
ATOM      5  C   LIG A   1      -6.063   2.986 124.366  0.00  0.00    +0.181 A 
ATOM      6  O   LIG A   1      -5.510   4.109 124.980  0.00  0.00    -0.451 OA
ATOM      7  C   LIG A   1      -4.953   3.975 126.228  0.00  0.00    +0.146 A 
ATOM      8  C   LIG A   1      -4.486   5.137 126.858  0.00  0.00    +0.092 A 
ATOM      9  C   LIG A   1      -3.917   5.047 128.130  0.00  0.00    +0.124 A 
ATOM     10  C   LIG A   1      -3.808   3.825 128.782  0.00  0.00    +0.091 A 
ATOM     11  O   LIG A   1      -5.075   0.462 126.662  0.00  0.00    -0.283 OA
ENDROOT
BRANCH   5  12
ATOM     12  C   LIG A   1      -6.663   3.308 123.050  0.00  0.00    +0.021 A 
ATOM     13  C   LIG A   1      -8.046   3.180 122.835  0.00  0.00    +0.015 A 
ATOM     14  C   LIG A   1      -8.610   3.465 121.582  0.00  0.00    +0.046 A 
ATOM     15  C   LIG A   1      -7.790   3.874 120.538  0.00  0.00    +0.117 A 
ATOM     16  C   LIG A   1      -6.419   3.994 120.725  0.00  0.00    +0.046 A 
ATOM     17  C   LIG A   1      -5.855   3.713 121.978  0.00  0.00    +0.015 A 
BRANCH  15  18
ATOM     18  O   LIG A   1      -8.292   4.166 119.303  0.00  0.00    -0.507 OA
ATOM     19  H   LIG A   1      -7.997   5.054 119.041  0.00  0.00    +0.292 HD
ENDBRANCH  15  18
ENDBRANCH   5  12
BRANCH   1  20
ATOM     20  O   LIG A   1      -4.137   1.503 128.843  0.00  0.00    -0.506 OA
ATOM     21  H   LIG A   1      -4.819   1.491 129.552  0.00  0.00    +0.292 HD
ENDBRANCH   1  20
BRANCH   9  22
ATOM     22  O   LIG A   1      -3.446   6.147 128.785  0.00  0.00    -0.506 OA
ATOM     23  H   LIG A   1      -3.269   6.856 128.146  0.00  0.00    +0.292 HD
ENDBRANCH   9  22
BRANCH   4  24
ATOM     24  O   LIG A   1      -6.575   0.654 124.177  0.00  0.00    -0.453 OA
BRANCH  24  25
ATOM     25  C   LIG A   1      -7.762   0.037 124.702  0.00  0.00    +0.340 C 
ATOM     26  O   LIG A   1      -7.376  -1.145 125.441  0.00  0.00    -0.331 OA
ATOM     27  C   LIG A   1      -8.532  -1.933 125.787  0.00  0.00    +0.179 C 
ATOM     28  C   LIG A   1      -9.077  -2.625 124.517  0.00  0.00    +0.177 C 
ATOM     29  C   LIG A   1      -8.668  -1.839 123.253  0.00  0.00    +0.180 C 
ATOM     30  C   LIG A   1      -8.704  -0.329 123.515  0.00  0.00    +0.214 C 
BRANCH  29  31
ATOM     31  O   LIG A   1      -7.362  -2.272 122.834  0.00  0.00    -0.386 OA
ATOM     32  H   LIG A   1      -7.287  -2.080 121.874  0.00  0.00    +0.210 HD
ENDBRANCH  29  31
BRANCH  28  33
ATOM     33  O   LIG A   1      -8.620  -3.981 124.394  0.00  0.00    -0.387 OA
ATOM     34  H   LIG A   1      -7.737  -4.011 124.820  0.00  0.00    +0.210 HD
ENDBRANCH  28  33
BRANCH  30  35
ATOM     35  O   LIG A   1     -10.053   0.050 123.843  0.00  0.00    -0.383 OA
ATOM     36  H   LIG A   1     -10.423  -0.637 124.427  0.00  0.00    +0.210 HD
ENDBRANCH  30  35
BRANCH  27  37
ATOM     37  C   LIG A   1      -8.186  -2.908 126.916  0.00  0.00    +0.190 C 
BRANCH  37  38
ATOM     38  O   LIG A   1      -9.291  -3.751 127.228  0.00  0.00    -0.392 OA
ATOM     39  H   LIG A   1      -8.951  -4.416 127.858  0.00  0.00    +0.209 HD
ENDBRANCH  37  38
ENDBRANCH  27  37
ENDBRANCH  24  25
ENDBRANCH   4  24
TORSDOF 11
ENDMDL
MODEL 3
REMARK VINA RESULT:      -7.3      5.255      8.588
REMARK  Name = NuBBE_284
REMARK  11 active torsions:
REMARK  status: ('A' for Active; 'I' for Inactive)
REMARK    1  A    between atoms: O_1  and  C_2
REMARK    2  A    between atoms: C_5  and  O_6
REMARK    3  A    between atoms: O_6  and  C_7
REMARK    4  A    between atoms: C_10  and  C_18
REMARK    5  A    between atoms: C_12  and  O_17
REMARK    6  A    between atoms: C_14  and  O_16
REMARK    7  A    between atoms: C_18  and  O_19
REMARK    8  A    between atoms: C_20  and  O_22
REMARK    9  A    between atoms: C_23  and  C_30
REMARK   10  A    between atoms: C_27  and  O_28
REMARK   11  A    between atoms: C_33  and  O_36
REMARK                            x       y       z     vdW  Elec       q    Type
REMARK                         _______ _______ _______ _____ _____    ______ ____
ROOT
ATOM      1  C   LIG A   1     -10.532   6.928 129.020  0.00  0.00    +0.135 A 
ATOM      2  C   LIG A   1      -9.981   5.765 129.566  0.00  0.00    +0.109 A 
ATOM      3  C   LIG A   1      -8.932   5.007 128.860  0.00  0.00    +0.238 A 
ATOM      4  C   LIG A   1      -8.288   3.863 129.571  0.00  0.00    +0.214 A 
ATOM      5  C   LIG A   1      -8.834   3.508 130.756  0.00  0.00    +0.181 A 
ATOM      6  O   LIG A   1      -9.907   4.152 131.369  0.00  0.00    -0.451 OA
ATOM      7  C   LIG A   1     -10.422   5.284 130.786  0.00  0.00    +0.146 A 
ATOM      8  C   LIG A   1     -11.441   5.961 131.471  0.00  0.00    +0.092 A 
ATOM      9  C   LIG A   1     -11.990   7.119 130.917  0.00  0.00    +0.124 A 
ATOM     10  C   LIG A   1     -11.541   7.612 129.698  0.00  0.00    +0.091 A 
ATOM     11  O   LIG A   1      -8.644   5.350 127.723  0.00  0.00    -0.283 OA
ENDROOT
BRANCH   5  12
ATOM     12  C   LIG A   1      -8.367   2.336 131.534  0.00  0.00    +0.021 A 
ATOM     13  C   LIG A   1      -7.380   2.472 132.524  0.00  0.00    +0.015 A 
ATOM     14  C   LIG A   1      -6.924   1.359 133.245  0.00  0.00    +0.046 A 
ATOM     15  C   LIG A   1      -7.451   0.102 132.972  0.00  0.00    +0.117 A 
ATOM     16  C   LIG A   1      -8.419  -0.057 131.988  0.00  0.00    +0.046 A 
ATOM     17  C   LIG A   1      -8.877   1.057 131.270  0.00  0.00    +0.015 A 
BRANCH  15  18
ATOM     18  O   LIG A   1      -7.042  -1.010 133.649  0.00  0.00    -0.507 OA
ATOM     19  H   LIG A   1      -6.282  -1.402 133.189  0.00  0.00    +0.292 HD
ENDBRANCH  15  18
ENDBRANCH   5  12
BRANCH   1  20
ATOM     20  O   LIG A   1     -10.132   7.470 127.827  0.00  0.00    -0.506 OA
ATOM     21  H   LIG A   1     -10.755   7.163 127.129  0.00  0.00    +0.292 HD
ENDBRANCH   1  20
BRANCH   9  22
ATOM     22  O   LIG A   1     -12.984   7.813 131.542  0.00  0.00    -0.506 OA
ATOM     23  H   LIG A   1     -12.759   8.756 131.565  0.00  0.00    +0.292 HD
ENDBRANCH   9  22
BRANCH   4  24
ATOM     24  O   LIG A   1      -7.242   3.145 129.004  0.00  0.00    -0.453 OA
BRANCH  24  25
ATOM     25  C   LIG A   1      -5.896   3.537 129.325  0.00  0.00    +0.340 C 
ATOM     26  O   LIG A   1      -5.898   4.943 129.669  0.00  0.00    -0.331 OA
ATOM     27  C   LIG A   1      -4.552   5.446 129.766  0.00  0.00    +0.179 C 
ATOM     28  C   LIG A   1      -3.943   5.558 128.350  0.00  0.00    +0.177 C 
ATOM     29  C   LIG A   1      -4.643   4.581 127.381  0.00  0.00    +0.180 C 
ATOM     30  C   LIG A   1      -4.987   3.265 128.089  0.00  0.00    +0.214 C 
BRANCH  29  31
ATOM     31  O   LIG A   1      -5.816   5.213 126.842  0.00  0.00    -0.386 OA
ATOM     32  H   LIG A   1      -6.586   4.655 127.088  0.00  0.00    +0.210 HD
ENDBRANCH  29  31
BRANCH  28  33
ATOM     33  O   LIG A   1      -4.034   6.889 127.818  0.00  0.00    -0.387 OA
ATOM     34  H   LIG A   1      -4.491   6.807 126.954  0.00  0.00    +0.210 HD
ENDBRANCH  28  33
BRANCH  30  35
ATOM     35  O   LIG A   1      -3.764   2.642 128.526  0.00  0.00    -0.383 OA
ATOM     36  H   LIG A   1      -3.033   3.028 128.011  0.00  0.00    +0.210 HD
ENDBRANCH  30  35
BRANCH  27  37
ATOM     37  C   LIG A   1      -4.539   6.765 130.545  0.00  0.00    +0.190 C 
BRANCH  37  38
ATOM     38  O   LIG A   1      -5.717   7.526 130.294  0.00  0.00    -0.392 OA
ATOM     39  H   LIG A   1      -5.953   7.354 129.361  0.00  0.00    +0.209 HD
ENDBRANCH  37  38
ENDBRANCH  27  37
ENDBRANCH  24  25
ENDBRANCH   4  24
TORSDOF 11
ENDMDL
MODEL 4
REMARK VINA RESULT:      -7.3      4.131      7.628
REMARK  Name = NuBBE_284
REMARK  11 active torsions:
REMARK  status: ('A' for Active; 'I' for Inactive)
REMARK    1  A    between atoms: O_1  and  C_2
REMARK    2  A    between atoms: C_5  and  O_6
REMARK    3  A    between atoms: O_6  and  C_7
REMARK    4  A    between atoms: C_10  and  C_18
REMARK    5  A    between atoms: C_12  and  O_17
REMARK    6  A    between atoms: C_14  and  O_16
REMARK    7  A    between atoms: C_18  and  O_19
REMARK    8  A    between atoms: C_20  and  O_22
REMARK    9  A    between atoms: C_23  and  C_30
REMARK   10  A    between atoms: C_27  and  O_28
REMARK   11  A    between atoms: C_33  and  O_36
REMARK                            x       y       z     vdW  Elec       q    Type
REMARK                         _______ _______ _______ _____ _____    ______ ____
ROOT
ATOM      1  C   LIG A   1      -9.347   3.953 130.365  0.00  0.00    +0.135 A 
ATOM      2  C   LIG A   1      -8.857   2.652 130.215  0.00  0.00    +0.109 A 
ATOM      3  C   LIG A   1      -8.496   2.114 128.891  0.00  0.00    +0.238 A 
ATOM      4  C   LIG A   1      -7.840   0.774 128.828  0.00  0.00    +0.214 A 
ATOM      5  C   LIG A   1      -7.775   0.082 129.988  0.00  0.00    +0.181 A 
ATOM      6  O   LIG A   1      -8.228   0.543 131.223  0.00  0.00    -0.451 OA
ATOM      7  C   LIG A   1      -8.714   1.825 131.315  0.00  0.00    +0.146 A 
ATOM      8  C   LIG A   1      -9.078   2.291 132.586  0.00  0.00    +0.092 A 
ATOM      9  C   LIG A   1      -9.572   3.589 132.726  0.00  0.00    +0.124 A 
ATOM     10  C   LIG A   1      -9.706   4.427 131.626  0.00  0.00    +0.091 A 
ATOM     11  O   LIG A   1      -8.754   2.791 127.907  0.00  0.00    -0.283 OA
ENDROOT
BRANCH   5  12
ATOM     12  C   LIG A   1      -7.241  -1.298 130.068  0.00  0.00    +0.021 A 
ATOM     13  C   LIG A   1      -7.979  -2.389 129.580  0.00  0.00    +0.015 A 
ATOM     14  C   LIG A   1      -7.481  -3.697 129.676  0.00  0.00    +0.046 A 
ATOM     15  C   LIG A   1      -6.243  -3.918 130.268  0.00  0.00    +0.117 A 
ATOM     16  C   LIG A   1      -5.502  -2.854 130.769  0.00  0.00    +0.046 A 
ATOM     17  C   LIG A   1      -5.999  -1.546 130.669  0.00  0.00    +0.015 A 
BRANCH  15  18
ATOM     18  O   LIG A   1      -5.715  -5.170 130.380  0.00  0.00    -0.507 OA
ATOM     19  H   LIG A   1      -5.902  -5.670 129.568  0.00  0.00    +0.292 HD
ENDBRANCH  15  18
ENDBRANCH   5  12
BRANCH   1  20
ATOM     20  O   LIG A   1      -9.499   4.831 129.324  0.00  0.00    -0.506 OA
ATOM     21  H   LIG A   1      -8.902   4.547 128.595  0.00  0.00    +0.292 HD
ENDBRANCH   1  20
BRANCH   9  22
ATOM     22  O   LIG A   1      -9.943   4.089 133.940  0.00  0.00    -0.506 OA
ATOM     23  H   LIG A   1      -9.183   4.077 134.543  0.00  0.00    +0.292 HD
ENDBRANCH   9  22
BRANCH   4  24
ATOM     24  O   LIG A   1      -7.402   0.230 127.627  0.00  0.00    -0.453 OA
BRANCH  24  25
ATOM     25  C   LIG A   1      -8.375  -0.012 126.596  0.00  0.00    +0.340 C 
ATOM     26  O   LIG A   1      -8.268  -1.393 126.179  0.00  0.00    -0.331 OA
ATOM     27  C   LIG A   1      -9.048  -1.630 124.991  0.00  0.00    +0.179 C 
ATOM     28  C   LIG A   1      -8.349  -0.970 123.780  0.00  0.00    +0.177 C 
ATOM     29  C   LIG A   1      -7.448   0.194 124.243  0.00  0.00    +0.180 C 
ATOM     30  C   LIG A   1      -8.096   0.955 125.406  0.00  0.00    +0.214 C 
BRANCH  29  31
ATOM     31  O   LIG A   1      -6.157  -0.326 124.606  0.00  0.00    -0.386 OA
ATOM     32  H   LIG A   1      -5.613  -0.347 123.789  0.00  0.00    +0.210 HD
ENDBRANCH  29  31
BRANCH  28  33
ATOM     33  O   LIG A   1      -7.557  -1.904 123.030  0.00  0.00    -0.387 OA
ATOM     34  H   LIG A   1      -7.772  -2.792 123.387  0.00  0.00    +0.210 HD
ENDBRANCH  28  33
BRANCH  30  35
ATOM     35  O   LIG A   1      -9.338   1.522 124.951  0.00  0.00    -0.383 OA
ATOM     36  H   LIG A   1      -9.339   1.498 123.977  0.00  0.00    +0.210 HD
ENDBRANCH  30  35
BRANCH  27  37
ATOM     37  C   LIG A   1      -9.294  -3.131 124.814  0.00  0.00    +0.190 C 
BRANCH  37  38
ATOM     38  O   LIG A   1     -10.034  -3.397 123.626  0.00  0.00    -0.392 OA
ATOM     39  H   LIG A   1      -9.407  -3.271 122.887  0.00  0.00    +0.209 HD
ENDBRANCH  37  38
ENDBRANCH  27  37
ENDBRANCH  24  25
ENDBRANCH   4  24
TORSDOF 11
ENDMDL
MODEL 5
REMARK VINA RESULT:      -7.2      4.224      7.141
REMARK  Name = NuBBE_284
REMARK  11 active torsions:
REMARK  status: ('A' for Active; 'I' for Inactive)
REMARK    1  A    between atoms: O_1  and  C_2
REMARK    2  A    between atoms: C_5  and  O_6
REMARK    3  A    between atoms: O_6  and  C_7
REMARK    4  A    between atoms: C_10  and  C_18
REMARK    5  A    between atoms: C_12  and  O_17
REMARK    6  A    between atoms: C_14  and  O_16
REMARK    7  A    between atoms: C_18  and  O_19
REMARK    8  A    between atoms: C_20  and  O_22
REMARK    9  A    between atoms: C_23  and  C_30
REMARK   10  A    between atoms: C_27  and  O_28
REMARK   11  A    between atoms: C_33  and  O_36
REMARK                            x       y       z     vdW  Elec       q    Type
REMARK                         _______ _______ _______ _____ _____    ______ ____
ROOT
ATOM      1  C   LIG A   1      -9.245   2.092 124.750  0.00  0.00    +0.135 A 
ATOM      2  C   LIG A   1      -8.687   1.242 125.709  0.00  0.00    +0.109 A 
ATOM      3  C   LIG A   1      -8.212   1.755 127.007  0.00  0.00    +0.238 A 
ATOM      4  C   LIG A   1      -7.767   0.768 128.036  0.00  0.00    +0.214 A 
ATOM      5  C   LIG A   1      -7.682  -0.520 127.636  0.00  0.00    +0.181 A 
ATOM      6  O   LIG A   1      -8.017  -0.989 126.367  0.00  0.00    -0.451 OA
ATOM      7  C   LIG A   1      -8.550  -0.112 125.454  0.00  0.00    +0.146 A 
ATOM      8  C   LIG A   1      -8.961  -0.630 124.219  0.00  0.00    +0.092 A 
ATOM      9  C   LIG A   1      -9.512   0.226 123.264  0.00  0.00    +0.124 A 
ATOM     10  C   LIG A   1      -9.662   1.584 123.520  0.00  0.00    +0.091 A 
ATOM     11  O   LIG A   1      -8.201   2.965 127.176  0.00  0.00    -0.283 OA
ENDROOT
BRANCH   5  12
ATOM     12  C   LIG A   1      -7.167  -1.599 128.513  0.00  0.00    +0.021 A 
ATOM     13  C   LIG A   1      -5.799  -1.913 128.544  0.00  0.00    +0.015 A 
ATOM     14  C   LIG A   1      -5.316  -2.948 129.358  0.00  0.00    +0.046 A 
ATOM     15  C   LIG A   1      -6.204  -3.677 130.140  0.00  0.00    +0.117 A 
ATOM     16  C   LIG A   1      -7.563  -3.391 130.114  0.00  0.00    +0.046 A 
ATOM     17  C   LIG A   1      -8.045  -2.354 129.302  0.00  0.00    +0.015 A 
BRANCH  15  18
ATOM     18  O   LIG A   1      -5.782  -4.690 130.951  0.00  0.00    -0.507 OA
ATOM     19  H   LIG A   1      -5.273  -5.329 130.424  0.00  0.00    +0.292 HD
ENDBRANCH  15  18
ENDBRANCH   5  12
BRANCH   1  20
ATOM     20  O   LIG A   1      -9.425   3.437 124.940  0.00  0.00    -0.506 OA
ATOM     21  H   LIG A   1      -9.447   3.870 124.056  0.00  0.00    +0.292 HD
ENDBRANCH   1  20
BRANCH   9  22
ATOM     22  O   LIG A   1      -9.925  -0.228 122.045  0.00  0.00    -0.506 OA
ATOM     23  H   LIG A   1      -9.549   0.329 121.345  0.00  0.00    +0.292 HD
ENDBRANCH   9  22
BRANCH   4  24
ATOM     24  O   LIG A   1      -7.376   1.166 129.309  0.00  0.00    -0.453 OA
BRANCH  24  25
ATOM     25  C   LIG A   1      -8.401   1.459 130.274  0.00  0.00    +0.340 C 
ATOM     26  O   LIG A   1      -8.269   2.841 130.679  0.00  0.00    -0.331 OA
ATOM     27  C   LIG A   1      -9.110   3.125 131.813  0.00  0.00    +0.179 C 
ATOM     28  C   LIG A   1      -8.513   2.459 133.074  0.00  0.00    +0.177 C 
ATOM     29  C   LIG A   1      -7.630   1.255 132.682  0.00  0.00    +0.180 C 
ATOM     30  C   LIG A   1      -8.232   0.501 131.491  0.00  0.00    +0.214 C 
BRANCH  29  31
ATOM     31  O   LIG A   1      -6.300   1.722 132.394  0.00  0.00    -0.386 OA
ATOM     32  H   LIG A   1      -6.027   1.313 131.545  0.00  0.00    +0.210 HD
ENDBRANCH  29  31
BRANCH  28  33
ATOM     33  O   LIG A   1      -7.735   3.374 133.860  0.00  0.00    -0.387 OA
ATOM     34  H   LIG A   1      -7.552   4.144 133.280  0.00  0.00    +0.210 HD
ENDBRANCH  28  33
BRANCH  30  35
ATOM     35  O   LIG A   1      -9.521  -0.014 131.875  0.00  0.00    -0.383 OA
ATOM     36  H   LIG A   1     -10.201   0.516 131.422  0.00  0.00    +0.210 HD
ENDBRANCH  30  35
BRANCH  27  37
ATOM     37  C   LIG A   1      -9.311   4.637 131.956  0.00  0.00    +0.190 C 
BRANCH  37  38
ATOM     38  O   LIG A   1     -10.095   4.949 133.103  0.00  0.00    -0.392 OA
ATOM     39  H   LIG A   1     -10.965   4.529 132.954  0.00  0.00    +0.209 HD
ENDBRANCH  37  38
ENDBRANCH  27  37
ENDBRANCH  24  25
ENDBRANCH   4  24
TORSDOF 11
ENDMDL
MODEL 6
REMARK VINA RESULT:      -7.2      4.885      9.123
REMARK  Name = NuBBE_284
REMARK  11 active torsions:
REMARK  status: ('A' for Active; 'I' for Inactive)
REMARK    1  A    between atoms: O_1  and  C_2
REMARK    2  A    between atoms: C_5  and  O_6
REMARK    3  A    between atoms: O_6  and  C_7
REMARK    4  A    between atoms: C_10  and  C_18
REMARK    5  A    between atoms: C_12  and  O_17
REMARK    6  A    between atoms: C_14  and  O_16
REMARK    7  A    between atoms: C_18  and  O_19
REMARK    8  A    between atoms: C_20  and  O_22
REMARK    9  A    between atoms: C_23  and  C_30
REMARK   10  A    between atoms: C_27  and  O_28
REMARK   11  A    between atoms: C_33  and  O_36
REMARK                            x       y       z     vdW  Elec       q    Type
REMARK                         _______ _______ _______ _____ _____    ______ ____
ROOT
ATOM      1  C   LIG A   1      -7.522  -1.786 131.930  0.00  0.00    +0.135 A 
ATOM      2  C   LIG A   1      -7.747  -0.923 130.854  0.00  0.00    +0.109 A 
ATOM      3  C   LIG A   1      -8.540   0.310 131.009  0.00  0.00    +0.238 A 
ATOM      4  C   LIG A   1      -8.611   1.254 129.854  0.00  0.00    +0.214 A 
ATOM      5  C   LIG A   1      -8.071   0.824 128.692  0.00  0.00    +0.181 A 
ATOM      6  O   LIG A   1      -7.424  -0.398 128.513  0.00  0.00    -0.451 OA
ATOM      7  C   LIG A   1      -7.239  -1.217 129.600  0.00  0.00    +0.146 A 
ATOM      8  C   LIG A   1      -6.508  -2.397 129.407  0.00  0.00    +0.092 A 
ATOM      9  C   LIG A   1      -6.292  -3.256 130.487  0.00  0.00    +0.124 A 
ATOM     10  C   LIG A   1      -6.790  -2.958 131.750  0.00  0.00    +0.091 A 
ATOM     11  O   LIG A   1      -9.105   0.498 132.076  0.00  0.00    -0.283 OA
ENDROOT
BRANCH   5  12
ATOM     12  C   LIG A   1      -8.146   1.605 127.436  0.00  0.00    +0.021 A 
ATOM     13  C   LIG A   1      -9.004   1.217 126.393  0.00  0.00    +0.015 A 
ATOM     14  C   LIG A   1      -9.058   1.946 125.195  0.00  0.00    +0.046 A 
ATOM     15  C   LIG A   1      -8.249   3.064 125.036  0.00  0.00    +0.117 A 
ATOM     16  C   LIG A   1      -7.385   3.458 126.049  0.00  0.00    +0.046 A 
ATOM     17  C   LIG A   1      -7.333   2.731 127.248  0.00  0.00    +0.015 A 
BRANCH  15  18
ATOM     18  O   LIG A   1      -8.270   3.807 123.892  0.00  0.00    -0.507 OA
ATOM     19  H   LIG A   1      -8.585   3.254 123.158  0.00  0.00    +0.292 HD
ENDBRANCH  15  18
ENDBRANCH   5  12
BRANCH   1  20
ATOM     20  O   LIG A   1      -7.980  -1.550 133.200  0.00  0.00    -0.506 OA
ATOM     21  H   LIG A   1      -8.792  -2.088 133.337  0.00  0.00    +0.292 HD
ENDBRANCH   1  20
BRANCH   9  22
ATOM     22  O   LIG A   1      -5.589  -4.417 130.351  0.00  0.00    -0.506 OA
ATOM     23  H   LIG A   1      -5.778  -4.813 129.486  0.00  0.00    +0.292 HD
ENDBRANCH   9  22
BRANCH   4  24
ATOM     24  O   LIG A   1      -9.276   2.471 129.945  0.00  0.00    -0.453 OA
BRANCH  24  25
ATOM     25  C   LIG A   1      -8.554   3.603 130.460  0.00  0.00    +0.340 C 
ATOM     26  O   LIG A   1      -8.759   3.666 131.891  0.00  0.00    -0.331 OA
ATOM     27  C   LIG A   1      -8.260   4.906 132.425  0.00  0.00    +0.179 C 
ATOM     28  C   LIG A   1      -9.202   6.059 132.008  0.00  0.00    +0.177 C 
ATOM     29  C   LIG A   1      -9.971   5.690 130.722  0.00  0.00    +0.180 C 
ATOM     30  C   LIG A   1      -9.080   4.893 129.763  0.00  0.00    +0.214 C 
BRANCH  29  31
ATOM     31  O   LIG A   1     -11.156   4.955 131.077  0.00  0.00    -0.386 OA
ATOM     32  H   LIG A   1     -10.998   4.017 130.834  0.00  0.00    +0.210 HD
ENDBRANCH  29  31
BRANCH  28  33
ATOM     33  O   LIG A   1     -10.145   6.395 133.037  0.00  0.00    -0.387 OA
ATOM     34  H   LIG A   1      -9.740   6.107 133.883  0.00  0.00    +0.210 HD
ENDBRANCH  28  33
BRANCH  30  35
ATOM     35  O   LIG A   1      -7.963   5.716 129.379  0.00  0.00    -0.383 OA
ATOM     36  H   LIG A   1      -7.154   5.311 129.742  0.00  0.00    +0.210 HD
ENDBRANCH  30  35
BRANCH  27  37
ATOM     37  C   LIG A   1      -8.069   4.789 133.940  0.00  0.00    +0.190 C 
BRANCH  37  38
ATOM     38  O   LIG A   1      -9.182   4.145 134.553  0.00  0.00    -0.392 OA
ATOM     39  H   LIG A   1      -9.258   4.536 135.447  0.00  0.00    +0.209 HD
ENDBRANCH  37  38
ENDBRANCH  27  37
ENDBRANCH  24  25
ENDBRANCH   4  24
TORSDOF 11
ENDMDL
MODEL 7
REMARK VINA RESULT:      -7.2      4.013      7.311
REMARK  Name = NuBBE_284
REMARK  11 active torsions:
REMARK  status: ('A' for Active; 'I' for Inactive)
REMARK    1  A    between atoms: O_1  and  C_2
REMARK    2  A    between atoms: C_5  and  O_6
REMARK    3  A    between atoms: O_6  and  C_7
REMARK    4  A    between atoms: C_10  and  C_18
REMARK    5  A    between atoms: C_12  and  O_17
REMARK    6  A    between atoms: C_14  and  O_16
REMARK    7  A    between atoms: C_18  and  O_19
REMARK    8  A    between atoms: C_20  and  O_22
REMARK    9  A    between atoms: C_23  and  C_30
REMARK   10  A    between atoms: C_27  and  O_28
REMARK   11  A    between atoms: C_33  and  O_36
REMARK                            x       y       z     vdW  Elec       q    Type
REMARK                         _______ _______ _______ _____ _____    ______ ____
ROOT
ATOM      1  C   LIG A   1      -7.212  -1.751 124.208  0.00  0.00    +0.135 A 
ATOM      2  C   LIG A   1      -7.184  -1.761 125.606  0.00  0.00    +0.109 A 
ATOM      3  C   LIG A   1      -6.093  -1.114 126.358  0.00  0.00    +0.238 A 
ATOM      4  C   LIG A   1      -6.210  -1.037 127.844  0.00  0.00    +0.214 A 
ATOM      5  C   LIG A   1      -7.237  -1.715 128.403  0.00  0.00    +0.181 A 
ATOM      6  O   LIG A   1      -8.203  -2.431 127.697  0.00  0.00    -0.451 OA
ATOM      7  C   LIG A   1      -8.180  -2.400 126.324  0.00  0.00    +0.146 A 
ATOM      8  C   LIG A   1      -9.215  -3.055 125.642  0.00  0.00    +0.092 A 
ATOM      9  C   LIG A   1      -9.233  -3.044 124.247  0.00  0.00    +0.124 A 
ATOM     10  C   LIG A   1      -8.242  -2.394 123.522  0.00  0.00    +0.091 A 
ATOM     11  O   LIG A   1      -5.144  -0.674 125.727  0.00  0.00    -0.283 OA
ENDROOT
BRANCH   5  12
ATOM     12  C   LIG A   1      -7.430  -1.813 129.869  0.00  0.00    +0.021 A 
ATOM     13  C   LIG A   1      -8.062  -0.782 130.584  0.00  0.00    +0.015 A 
ATOM     14  C   LIG A   1      -8.225  -0.865 131.975  0.00  0.00    +0.046 A 
ATOM     15  C   LIG A   1      -7.750  -1.980 132.656  0.00  0.00    +0.117 A 
ATOM     16  C   LIG A   1      -7.111  -3.005 131.969  0.00  0.00    +0.046 A 
ATOM     17  C   LIG A   1      -6.951  -2.923 130.578  0.00  0.00    +0.015 A 
BRANCH  15  18
ATOM     18  O   LIG A   1      -7.889  -2.109 134.007  0.00  0.00    -0.507 OA
ATOM     19  H   LIG A   1      -8.800  -1.879 134.257  0.00  0.00    +0.292 HD
ENDBRANCH  15  18
ENDBRANCH   5  12
BRANCH   1  20
ATOM     20  O   LIG A   1      -6.270  -1.125 123.435  0.00  0.00    -0.506 OA
ATOM     21  H   LIG A   1      -6.490  -1.293 122.490  0.00  0.00    +0.292 HD
ENDBRANCH   1  20
BRANCH   9  22
ATOM     22  O   LIG A   1     -10.217  -3.668 123.536  0.00  0.00    -0.506 OA
ATOM     23  H   LIG A   1     -10.726  -3.010 123.036  0.00  0.00    +0.292 HD
ENDBRANCH   9  22
BRANCH   4  24
ATOM     24  O   LIG A   1      -5.262  -0.378 128.618  0.00  0.00    -0.453 OA
BRANCH  24  25
ATOM     25  C   LIG A   1      -5.499   1.000 128.955  0.00  0.00    +0.340 C 
ATOM     26  O   LIG A   1      -6.365   1.576 127.950  0.00  0.00    -0.331 OA
ATOM     27  C   LIG A   1      -6.444   3.006 128.102  0.00  0.00    +0.179 C 
ATOM     28  C   LIG A   1      -5.111   3.643 127.647  0.00  0.00    +0.177 C 
ATOM     29  C   LIG A   1      -3.957   2.625 127.765  0.00  0.00    +0.180 C 
ATOM     30  C   LIG A   1      -4.132   1.745 129.008  0.00  0.00    +0.214 C 
BRANCH  29  31
ATOM     31  O   LIG A   1      -3.900   1.837 126.563  0.00  0.00    -0.386 OA
ATOM     32  H   LIG A   1      -3.102   1.269 126.626  0.00  0.00    +0.210 HD
ENDBRANCH  29  31
BRANCH  28  33
ATOM     33  O   LIG A   1      -5.169   4.129 126.297  0.00  0.00    -0.387 OA
ATOM     34  H   LIG A   1      -4.331   4.616 126.146  0.00  0.00    +0.210 HD
ENDBRANCH  28  33
BRANCH  30  35
ATOM     35  O   LIG A   1      -4.091   2.584 130.177  0.00  0.00    -0.383 OA
ATOM     36  H   LIG A   1      -3.350   2.284 130.735  0.00  0.00    +0.210 HD
ENDBRANCH  30  35
BRANCH  27  37
ATOM     37  C   LIG A   1      -7.668   3.548 127.357  0.00  0.00    +0.190 C 
BRANCH  37  38
ATOM     38  O   LIG A   1      -7.803   4.954 127.539  0.00  0.00    -0.392 OA
ATOM     39  H   LIG A   1      -6.937   5.265 127.868  0.00  0.00    +0.209 HD
ENDBRANCH  37  38
ENDBRANCH  27  37
ENDBRANCH  24  25
ENDBRANCH   4  24
TORSDOF 11
ENDMDL
MODEL 8
REMARK VINA RESULT:      -7.1      4.174      7.569
REMARK  Name = NuBBE_284
REMARK  11 active torsions:
REMARK  status: ('A' for Active; 'I' for Inactive)
REMARK    1  A    between atoms: O_1  and  C_2
REMARK    2  A    between atoms: C_5  and  O_6
REMARK    3  A    between atoms: O_6  and  C_7
REMARK    4  A    between atoms: C_10  and  C_18
REMARK    5  A    between atoms: C_12  and  O_17
REMARK    6  A    between atoms: C_14  and  O_16
REMARK    7  A    between atoms: C_18  and  O_19
REMARK    8  A    between atoms: C_20  and  O_22
REMARK    9  A    between atoms: C_23  and  C_30
REMARK   10  A    between atoms: C_27  and  O_28
REMARK   11  A    between atoms: C_33  and  O_36
REMARK                            x       y       z     vdW  Elec       q    Type
REMARK                         _______ _______ _______ _____ _____    ______ ____
ROOT
ATOM      1  C   LIG A   1     -10.435   6.871 130.056  0.00  0.00    +0.135 A 
ATOM      2  C   LIG A   1      -9.708   6.270 129.025  0.00  0.00    +0.109 A 
ATOM      3  C   LIG A   1      -8.653   5.279 129.305  0.00  0.00    +0.238 A 
ATOM      4  C   LIG A   1      -8.025   4.572 128.149  0.00  0.00    +0.214 A 
ATOM      5  C   LIG A   1      -8.361   5.016 126.918  0.00  0.00    +0.181 A 
ATOM      6  O   LIG A   1      -9.271   6.039 126.655  0.00  0.00    -0.451 OA
ATOM      7  C   LIG A   1      -9.952   6.607 127.705  0.00  0.00    +0.146 A 
ATOM      8  C   LIG A   1     -10.925   7.569 127.403  0.00  0.00    +0.092 A 
ATOM      9  C   LIG A   1     -11.643   8.168 128.439  0.00  0.00    +0.124 A 
ATOM     10  C   LIG A   1     -11.410   7.824 129.765  0.00  0.00    +0.091 A 
ATOM     11  O   LIG A   1      -8.341   5.087 130.470  0.00  0.00    -0.283 OA
ENDROOT
BRANCH   5  12
ATOM     12  C   LIG A   1      -7.751   4.480 125.678  0.00  0.00    +0.021 A 
ATOM     13  C   LIG A   1      -6.536   4.992 125.191  0.00  0.00    +0.015 A 
ATOM     14  C   LIG A   1      -5.970   4.498 124.006  0.00  0.00    +0.046 A 
ATOM     15  C   LIG A   1      -6.622   3.494 123.301  0.00  0.00    +0.117 A 
ATOM     16  C   LIG A   1      -7.831   2.983 123.758  0.00  0.00    +0.046 A 
ATOM     17  C   LIG A   1      -8.395   3.474 124.945  0.00  0.00    +0.015 A 
BRANCH  15  18
ATOM     18  O   LIG A   1      -6.109   2.979 122.146  0.00  0.00    -0.507 OA
ATOM     19  H   LIG A   1      -5.221   2.625 122.322  0.00  0.00    +0.292 HD
ENDBRANCH  15  18
ENDBRANCH   5  12
BRANCH   1  20
ATOM     20  O   LIG A   1     -10.259   6.574 131.382  0.00  0.00    -0.506 OA
ATOM     21  H   LIG A   1     -10.975   7.017 131.892  0.00  0.00    +0.292 HD
ENDBRANCH   1  20
BRANCH   9  22
ATOM     22  O   LIG A   1     -12.599   9.112 128.198  0.00  0.00    -0.506 OA
ATOM     23  H   LIG A   1     -12.339   9.952 128.609  0.00  0.00    +0.292 HD
ENDBRANCH   9  22
BRANCH   4  24
ATOM     24  O   LIG A   1      -7.077   3.572 128.332  0.00  0.00    -0.453 OA
BRANCH  24  25
ATOM     25  C   LIG A   1      -5.834   3.922 128.965  0.00  0.00    +0.340 C 
ATOM     26  O   LIG A   1      -5.190   4.949 128.175  0.00  0.00    -0.331 OA
ATOM     27  C   LIG A   1      -3.840   5.169 128.625  0.00  0.00    +0.179 C 
ATOM     28  C   LIG A   1      -2.958   3.970 128.204  0.00  0.00    +0.177 C 
ATOM     29  C   LIG A   1      -3.821   2.704 128.014  0.00  0.00    +0.180 C 
ATOM     30  C   LIG A   1      -4.943   2.648 129.059  0.00  0.00    +0.214 C 
BRANCH  29  31
ATOM     31  O   LIG A   1      -4.345   2.689 126.675  0.00  0.00    -0.386 OA
ATOM     32  H   LIG A   1      -4.982   1.945 126.621  0.00  0.00    +0.210 HD
ENDBRANCH  29  31
BRANCH  28  33
ATOM     33  O   LIG A   1      -2.229   4.225 126.994  0.00  0.00    -0.387 OA
ATOM     34  H   LIG A   1      -2.087   5.195 126.960  0.00  0.00    +0.210 HD
ENDBRANCH  28  33
BRANCH  30  35
ATOM     35  O   LIG A   1      -4.350   2.576 130.369  0.00  0.00    -0.383 OA
ATOM     36  H   LIG A   1      -4.226   3.487 130.691  0.00  0.00    +0.210 HD
ENDBRANCH  30  35
BRANCH  27  37
ATOM     37  C   LIG A   1      -3.326   6.517 128.111  0.00  0.00    +0.190 C 
BRANCH  37  38
ATOM     38  O   LIG A   1      -1.912   6.618 128.250  0.00  0.00    -0.392 OA
ATOM     39  H   LIG A   1      -1.719   6.411 129.186  0.00  0.00    +0.209 HD
ENDBRANCH  37  38
ENDBRANCH  27  37
ENDBRANCH  24  25
ENDBRANCH   4  24
TORSDOF 11
ENDMDL
MODEL 9
REMARK VINA RESULT:      -7.1      4.754      9.187
REMARK  Name = NuBBE_284
REMARK  11 active torsions:
REMARK  status: ('A' for Active; 'I' for Inactive)
REMARK    1  A    between atoms: O_1  and  C_2
REMARK    2  A    between atoms: C_5  and  O_6
REMARK    3  A    between atoms: O_6  and  C_7
REMARK    4  A    between atoms: C_10  and  C_18
REMARK    5  A    between atoms: C_12  and  O_17
REMARK    6  A    between atoms: C_14  and  O_16
REMARK    7  A    between atoms: C_18  and  O_19
REMARK    8  A    between atoms: C_20  and  O_22
REMARK    9  A    between atoms: C_23  and  C_30
REMARK   10  A    between atoms: C_27  and  O_28
REMARK   11  A    between atoms: C_33  and  O_36
REMARK                            x       y       z     vdW  Elec       q    Type
REMARK                         _______ _______ _______ _____ _____    ______ ____
ROOT
ATOM      1  C   LIG A   1      -1.184   6.505 131.838  0.00  0.00    +0.135 A 
ATOM      2  C   LIG A   1      -2.580   6.452 131.800  0.00  0.00    +0.109 A 
ATOM      3  C   LIG A   1      -3.313   6.405 130.521  0.00  0.00    +0.238 A 
ATOM      4  C   LIG A   1      -4.792   6.200 130.562  0.00  0.00    +0.214 A 
ATOM      5  C   LIG A   1      -5.370   6.236 131.783  0.00  0.00    +0.181 A 
ATOM      6  O   LIG A   1      -4.689   6.403 132.988  0.00  0.00    -0.451 OA
ATOM      7  C   LIG A   1      -3.316   6.462 132.972  0.00  0.00    +0.146 A 
ATOM      8  C   LIG A   1      -2.655   6.539 134.205  0.00  0.00    +0.092 A 
ATOM      9  C   LIG A   1      -1.260   6.596 134.235  0.00  0.00    +0.124 A 
ATOM     10  C   LIG A   1      -0.517   6.575 133.060  0.00  0.00    +0.091 A 
ATOM     11  O   LIG A   1      -2.674   6.539 129.489  0.00  0.00    -0.283 OA
ENDROOT
BRANCH   5  12
ATOM     12  C   LIG A   1      -6.836   6.144 131.979  0.00  0.00    +0.021 A 
ATOM     13  C   LIG A   1      -7.724   6.784 131.098  0.00  0.00    +0.015 A 
ATOM     14  C   LIG A   1      -9.111   6.713 131.297  0.00  0.00    +0.046 A 
ATOM     15  C   LIG A   1      -9.614   6.006 132.382  0.00  0.00    +0.117 A 
ATOM     16  C   LIG A   1      -8.752   5.376 133.272  0.00  0.00    +0.046 A 
ATOM     17  C   LIG A   1      -7.366   5.444 133.072  0.00  0.00    +0.015 A 
BRANCH  15  18
ATOM     18  O   LIG A   1     -10.954   5.905 132.614  0.00  0.00    -0.507 OA
ATOM     19  H   LIG A   1     -11.410   5.717 131.776  0.00  0.00    +0.292 HD
ENDBRANCH  15  18
ENDBRANCH   5  12
BRANCH   1  20
ATOM     20  O   LIG A   1      -0.393   6.483 130.719  0.00  0.00    -0.506 OA
ATOM     21  H   LIG A   1      -0.930   6.800 129.959  0.00  0.00    +0.292 HD
ENDBRANCH   1  20
BRANCH   9  22
ATOM     22  O   LIG A   1      -0.570   6.675 135.409  0.00  0.00    -0.506 OA
ATOM     23  H   LIG A   1      -1.019   6.147 136.088  0.00  0.00    +0.292 HD
ENDBRANCH   9  22
BRANCH   4  24
ATOM     24  O   LIG A   1      -5.544   6.070 129.401  0.00  0.00    -0.453 OA
BRANCH  24  25
ATOM     25  C   LIG A   1      -5.452   4.836 128.667  0.00  0.00    +0.340 C 
ATOM     26  O   LIG A   1      -5.722   5.111 127.272  0.00  0.00    -0.331 OA
ATOM     27  C   LIG A   1      -5.879   3.886 126.531  0.00  0.00    +0.179 C 
ATOM     28  C   LIG A   1      -7.231   3.233 126.902  0.00  0.00    +0.177 C 
ATOM     29  C   LIG A   1      -7.686   3.691 128.303  0.00  0.00    +0.180 C 
ATOM     30  C   LIG A   1      -6.487   3.828 129.249  0.00  0.00    +0.214 C 
BRANCH  29  31
ATOM     31  O   LIG A   1      -8.407   4.930 128.181  0.00  0.00    -0.386 OA
ATOM     32  H   LIG A   1      -9.364   4.714 128.220  0.00  0.00    +0.210 HD
ENDBRANCH  29  31
BRANCH  28  33
ATOM     33  O   LIG A   1      -8.264   3.536 125.952  0.00  0.00    -0.387 OA
ATOM     34  H   LIG A   1      -9.083   3.124 126.299  0.00  0.00    +0.210 HD
ENDBRANCH  28  33
BRANCH  30  35
ATOM     35  O   LIG A   1      -5.866   2.538 129.395  0.00  0.00    -0.383 OA
ATOM     36  H   LIG A   1      -4.921   2.681 129.588  0.00  0.00    +0.210 HD
ENDBRANCH  30  35
BRANCH  27  37
ATOM     37  C   LIG A   1      -5.719   4.154 125.032  0.00  0.00    +0.190 C 
BRANCH  37  38
ATOM     38  O   LIG A   1      -6.345   5.376 124.654  0.00  0.00    -0.392 OA
ATOM     39  H   LIG A   1      -6.999   5.140 123.967  0.00  0.00    +0.209 HD
ENDBRANCH  37  38
ENDBRANCH  27  37
ENDBRANCH  24  25
ENDBRANCH   4  24
TORSDOF 11
ENDMDL
