MODEL 1
REMARK VINA RESULT:      -6.4      0.000      0.000
REMARK  Name = NuBBE_938
REMARK  6 active torsions:
REMARK  status: ('A' for Active; 'I' for Inactive)
REMARK    1  A    between atoms: C_1  and  C_5
REMARK    2  A    between atoms: C_1  and  C_7
REMARK    3  A    between atoms: C_2  and  C_3
REMARK    4  A    between atoms: C_2  and  C_4
REMARK    5  A    between atoms: C_12  and  O_13
REMARK    6  A    between atoms: O_13  and  C_14
REMARK                            x       y       z     vdW  Elec       q    Type
REMARK                         _______ _______ _______ _____ _____    ______ ____
ROOT
ATOM      1  C   LIG A   1      -9.697   5.735 130.468  0.00  0.00    +0.070 A 
ATOM      2  C   LIG A   1     -10.416   6.461 129.505  0.00  0.00    +0.150 A 
ATOM      3  C   LIG A   1     -11.577   7.161 129.828  0.00  0.00    +0.018 A 
ATOM      4  C   LIG A   1     -12.036   7.139 131.146  0.00  0.00    +0.015 A 
ATOM      5  C   LIG A   1     -11.345   6.409 132.120  0.00  0.00    +0.047 A 
ATOM      6  C   LIG A   1     -10.187   5.695 131.788  0.00  0.00    +0.131 A 
ATOM      7  C   LIG A   1     -12.275   7.907 128.794  0.00  0.00    +0.018 A 
ATOM      8  C   LIG A   1     -11.811   7.887 127.540  0.00  0.00    +0.092 A 
ATOM      9  C   LIG A   1     -10.597   7.145 127.159  0.00  0.00    +0.337 A 
ATOM     10  O   LIG A   1     -10.199   7.152 126.000  0.00  0.00    -0.245 OA
ATOM     11  O   LIG A   1      -9.933   6.475 128.172  0.00  0.00    -0.421 OA
ENDROOT
BRANCH   1  12
ATOM     12  C   LIG A   1      -8.463   5.009 130.091  0.00  0.00    +0.027 C 
ATOM     13  C   LIG A   1      -7.233   5.557 130.264  0.00  0.00    -0.065 C 
ATOM     14  C   LIG A   1      -5.930   4.915 129.851  0.00  0.00    +0.039 C 
ATOM     15  C   LIG A   1      -7.009   6.919 130.885  0.00  0.00    +0.039 C 
BRANCH  12  16
ATOM     16  C   LIG A   1      -8.644   3.637 129.535  0.00  0.00    +0.259 C 
ATOM     17  O   LIG A   1      -9.732   3.060 129.495  0.00  0.00    -0.296 OA
ENDBRANCH  12  16
ENDBRANCH   1  12
BRANCH   6  18
ATOM     18  O   LIG A   1      -9.442   4.997 132.707  0.00  0.00    -0.494 OA
ATOM     19  C   LIG A   1      -8.783   5.781 133.697  0.00  0.00    +0.277 C 
ENDBRANCH   6  18
TORSDOF 3
ENDMDL
MODEL 2
REMARK VINA RESULT:      -6.4      6.629      9.455
REMARK  Name = NuBBE_938
REMARK  6 active torsions:
REMARK  status: ('A' for Active; 'I' for Inactive)
REMARK    1  A    between atoms: C_1  and  C_5
REMARK    2  A    between atoms: C_1  and  C_7
REMARK    3  A    between atoms: C_2  and  C_3
REMARK    4  A    between atoms: C_2  and  C_4
REMARK    5  A    between atoms: C_12  and  O_13
REMARK    6  A    between atoms: O_13  and  C_14
REMARK                            x       y       z     vdW  Elec       q    Type
REMARK                         _______ _______ _______ _____ _____    ______ ____
ROOT
ATOM      1  C   LIG A   1      -8.306  -1.381 126.705  0.00  0.00    +0.070 A 
ATOM      2  C   LIG A   1      -7.891  -1.704 128.006  0.00  0.00    +0.150 A 
ATOM      3  C   LIG A   1      -8.146  -2.952 128.571  0.00  0.00    +0.018 A 
ATOM      4  C   LIG A   1      -8.833  -3.906 127.821  0.00  0.00    +0.015 A 
ATOM      5  C   LIG A   1      -9.272  -3.603 126.527  0.00  0.00    +0.047 A 
ATOM      6  C   LIG A   1      -9.025  -2.342 125.968  0.00  0.00    +0.131 A 
ATOM      7  C   LIG A   1      -7.682  -3.237 129.919  0.00  0.00    +0.018 A 
ATOM      8  C   LIG A   1      -7.042  -2.287 130.611  0.00  0.00    +0.092 A 
ATOM      9  C   LIG A   1      -6.770  -0.952 130.052  0.00  0.00    +0.337 A 
ATOM     10  O   LIG A   1      -6.178  -0.107 130.713  0.00  0.00    -0.245 OA
ATOM     11  O   LIG A   1      -7.191  -0.722 128.753  0.00  0.00    -0.421 OA
ENDROOT
BRANCH   1  12
ATOM     12  C   LIG A   1      -8.011  -0.047 126.133  0.00  0.00    +0.027 C 
ATOM     13  C   LIG A   1      -6.877   0.189 125.426  0.00  0.00    -0.065 C 
ATOM     14  C   LIG A   1      -6.467   1.530 124.863  0.00  0.00    +0.039 C 
ATOM     15  C   LIG A   1      -5.846  -0.878 125.125  0.00  0.00    +0.039 C 
BRANCH  12  16
ATOM     16  C   LIG A   1      -9.037   1.012 126.356  0.00  0.00    +0.259 C 
ATOM     17  O   LIG A   1      -9.054   1.741 127.348  0.00  0.00    -0.296 OA
ENDBRANCH  12  16
ENDBRANCH   1  12
BRANCH   6  18
ATOM     18  O   LIG A   1      -9.391  -2.000 124.689  0.00  0.00    -0.494 OA
ATOM     19  C   LIG A   1      -9.310  -3.040 123.720  0.00  0.00    +0.277 C 
ENDBRANCH   6  18
TORSDOF 3
ENDMDL
MODEL 3
REMARK VINA RESULT:      -6.3      6.477      9.531
REMARK  Name = NuBBE_938
REMARK  6 active torsions:
REMARK  status: ('A' for Active; 'I' for Inactive)
REMARK    1  A    between atoms: C_1  and  C_5
REMARK    2  A    between atoms: C_1  and  C_7
REMARK    3  A    between atoms: C_2  and  C_3
REMARK    4  A    between atoms: C_2  and  C_4
REMARK    5  A    between atoms: C_12  and  O_13
REMARK    6  A    between atoms: O_13  and  C_14
REMARK                            x       y       z     vdW  Elec       q    Type
REMARK                         _______ _______ _______ _____ _____    ______ ____
ROOT
ATOM      1  C   LIG A   1      -8.133  -0.882 125.687  0.00  0.00    +0.070 A 
ATOM      2  C   LIG A   1      -8.259  -1.775 126.763  0.00  0.00    +0.150 A 
ATOM      3  C   LIG A   1      -8.812  -3.045 126.605  0.00  0.00    +0.018 A 
ATOM      4  C   LIG A   1      -9.252  -3.438 125.341  0.00  0.00    +0.015 A 
ATOM      5  C   LIG A   1      -9.152  -2.560 124.255  0.00  0.00    +0.047 A 
ATOM      6  C   LIG A   1      -8.609  -1.279 124.422  0.00  0.00    +0.131 A 
ATOM      7  C   LIG A   1      -8.906  -3.933 127.752  0.00  0.00    +0.018 A 
ATOM      8  C   LIG A   1      -8.489  -3.510 128.950  0.00  0.00    +0.092 A 
ATOM      9  C   LIG A   1      -7.915  -2.169 129.158  0.00  0.00    +0.337 A 
ATOM     10  O   LIG A   1      -7.540  -1.816 130.269  0.00  0.00    -0.245 OA
ATOM     11  O   LIG A   1      -7.804  -1.359 128.041  0.00  0.00    -0.421 OA
ENDROOT
BRANCH   1  12
ATOM     12  C   LIG A   1      -7.534   0.457 125.890  0.00  0.00    +0.027 C 
ATOM     13  C   LIG A   1      -6.192   0.652 125.829  0.00  0.00    -0.065 C 
ATOM     14  C   LIG A   1      -5.493   1.967 126.085  0.00  0.00    +0.039 C 
ATOM     15  C   LIG A   1      -5.203  -0.450 125.514  0.00  0.00    +0.039 C 
BRANCH  12  16
ATOM     16  C   LIG A   1      -8.485   1.578 126.139  0.00  0.00    +0.259 C 
ATOM     17  O   LIG A   1      -9.028   1.777 127.227  0.00  0.00    -0.296 OA
ENDBRANCH  12  16
ENDBRANCH   1  12
BRANCH   6  18
ATOM     18  O   LIG A   1      -8.443  -0.390 123.388  0.00  0.00    -0.494 OA
ATOM     19  C   LIG A   1      -9.639   0.148 122.834  0.00  0.00    +0.277 C 
ENDBRANCH   6  18
TORSDOF 3
ENDMDL
MODEL 4
REMARK VINA RESULT:      -6.2      7.453     10.100
REMARK  Name = NuBBE_938
REMARK  6 active torsions:
REMARK  status: ('A' for Active; 'I' for Inactive)
REMARK    1  A    between atoms: C_1  and  C_5
REMARK    2  A    between atoms: C_1  and  C_7
REMARK    3  A    between atoms: C_2  and  C_3
REMARK    4  A    between atoms: C_2  and  C_4
REMARK    5  A    between atoms: C_12  and  O_13
REMARK    6  A    between atoms: O_13  and  C_14
REMARK                            x       y       z     vdW  Elec       q    Type
REMARK                         _______ _______ _______ _____ _____    ______ ____
ROOT
ATOM      1  C   LIG A   1      -7.755  -1.950 126.268  0.00  0.00    +0.070 A 
ATOM      2  C   LIG A   1      -7.229  -2.292 127.524  0.00  0.00    +0.150 A 
ATOM      3  C   LIG A   1      -7.840  -3.239 128.344  0.00  0.00    +0.018 A 
ATOM      4  C   LIG A   1      -9.007  -3.864 127.902  0.00  0.00    +0.015 A 
ATOM      5  C   LIG A   1      -9.559  -3.528 126.661  0.00  0.00    +0.047 A 
ATOM      6  C   LIG A   1      -8.949  -2.565 125.846  0.00  0.00    +0.131 A 
ATOM      7  C   LIG A   1      -7.246  -3.564 129.630  0.00  0.00    +0.018 A 
ATOM      8  C   LIG A   1      -6.137  -2.928 130.023  0.00  0.00    +0.092 A 
ATOM      9  C   LIG A   1      -5.473  -1.910 129.190  0.00  0.00    +0.337 A 
ATOM     10  O   LIG A   1      -4.456  -1.350 129.581  0.00  0.00    -0.245 OA
ATOM     11  O   LIG A   1      -6.041  -1.649 127.955  0.00  0.00    -0.421 OA
ENDROOT
BRANCH   1  12
ATOM     12  C   LIG A   1      -7.075  -0.945 125.420  0.00  0.00    +0.027 C 
ATOM     13  C   LIG A   1      -7.398   0.372 125.478  0.00  0.00    -0.065 C 
ATOM     14  C   LIG A   1      -6.802   1.452 124.607  0.00  0.00    +0.039 C 
ATOM     15  C   LIG A   1      -8.434   0.934 126.429  0.00  0.00    +0.039 C 
BRANCH  12  16
ATOM     16  C   LIG A   1      -6.003  -1.455 124.517  0.00  0.00    +0.259 C 
ATOM     17  O   LIG A   1      -6.214  -1.854 123.371  0.00  0.00    -0.296 OA
ENDBRANCH  12  16
ENDBRANCH   1  12
BRANCH   6  18
ATOM     18  O   LIG A   1      -9.418  -2.226 124.601  0.00  0.00    -0.494 OA
ATOM     19  C   LIG A   1      -9.450  -3.277 123.641  0.00  0.00    +0.277 C 
ENDBRANCH   6  18
TORSDOF 3
ENDMDL
MODEL 5
REMARK VINA RESULT:      -6.1      7.649      8.797
REMARK  Name = NuBBE_938
REMARK  6 active torsions:
REMARK  status: ('A' for Active; 'I' for Inactive)
REMARK    1  A    between atoms: C_1  and  C_5
REMARK    2  A    between atoms: C_1  and  C_7
REMARK    3  A    between atoms: C_2  and  C_3
REMARK    4  A    between atoms: C_2  and  C_4
REMARK    5  A    between atoms: C_12  and  O_13
REMARK    6  A    between atoms: O_13  and  C_14
REMARK                            x       y       z     vdW  Elec       q    Type
REMARK                         _______ _______ _______ _____ _____    ______ ____
ROOT
ATOM      1  C   LIG A   1      -7.041  -0.327 125.251  0.00  0.00    +0.070 A 
ATOM      2  C   LIG A   1      -7.686   0.613 124.431  0.00  0.00    +0.150 A 
ATOM      3  C   LIG A   1      -7.269   1.941 124.367  0.00  0.00    +0.018 A 
ATOM      4  C   LIG A   1      -6.181   2.347 125.140  0.00  0.00    +0.015 A 
ATOM      5  C   LIG A   1      -5.531   1.432 125.977  0.00  0.00    +0.047 A 
ATOM      6  C   LIG A   1      -5.963   0.101 126.049  0.00  0.00    +0.131 A 
ATOM      7  C   LIG A   1      -7.965   2.869 123.491  0.00  0.00    +0.018 A 
ATOM      8  C   LIG A   1      -9.016   2.444 122.781  0.00  0.00    +0.092 A 
ATOM      9  C   LIG A   1      -9.494   1.052 122.836  0.00  0.00    +0.337 A 
ATOM     10  O   LIG A   1     -10.458   0.695 122.168  0.00  0.00    -0.245 OA
ATOM     11  O   LIG A   1      -8.789   0.182 123.650  0.00  0.00    -0.421 OA
ENDROOT
BRANCH   1  12
ATOM     12  C   LIG A   1      -7.506  -1.733 125.288  0.00  0.00    +0.027 C 
ATOM     13  C   LIG A   1      -6.917  -2.697 124.537  0.00  0.00    -0.065 C 
ATOM     14  C   LIG A   1      -7.365  -4.138 124.466  0.00  0.00    +0.039 C 
ATOM     15  C   LIG A   1      -5.725  -2.441 123.639  0.00  0.00    +0.039 C 
BRANCH  12  16
ATOM     16  C   LIG A   1      -8.638  -2.032 126.212  0.00  0.00    +0.259 C 
ATOM     17  O   LIG A   1      -9.806  -2.143 125.838  0.00  0.00    -0.296 OA
ENDBRANCH  12  16
ENDBRANCH   1  12
BRANCH   6  18
ATOM     18  O   LIG A   1      -5.340  -0.853 126.816  0.00  0.00    -0.494 OA
ATOM     19  C   LIG A   1      -5.504  -0.722 128.225  0.00  0.00    +0.277 C 
ENDBRANCH   6  18
TORSDOF 3
ENDMDL
MODEL 6
REMARK VINA RESULT:      -6.0      6.375      8.772
REMARK  Name = NuBBE_938
REMARK  6 active torsions:
REMARK  status: ('A' for Active; 'I' for Inactive)
REMARK    1  A    between atoms: C_1  and  C_5
REMARK    2  A    between atoms: C_1  and  C_7
REMARK    3  A    between atoms: C_2  and  C_3
REMARK    4  A    between atoms: C_2  and  C_4
REMARK    5  A    between atoms: C_12  and  O_13
REMARK    6  A    between atoms: O_13  and  C_14
REMARK                            x       y       z     vdW  Elec       q    Type
REMARK                         _______ _______ _______ _____ _____    ______ ____
ROOT
ATOM      1  C   LIG A   1      -7.982  -0.975 126.850  0.00  0.00    +0.070 A 
ATOM      2  C   LIG A   1      -8.470  -1.680 125.738  0.00  0.00    +0.150 A 
ATOM      3  C   LIG A   1      -8.836  -3.023 125.822  0.00  0.00    +0.018 A 
ATOM      4  C   LIG A   1      -8.713  -3.682 127.045  0.00  0.00    +0.015 A 
ATOM      5  C   LIG A   1      -8.215  -3.005 128.164  0.00  0.00    +0.047 A 
ATOM      6  C   LIG A   1      -7.835  -1.659 128.072  0.00  0.00    +0.131 A 
ATOM      7  C   LIG A   1      -9.346  -3.700 124.642  0.00  0.00    +0.018 A 
ATOM      8  C   LIG A   1      -9.430  -3.037 123.484  0.00  0.00    +0.092 A 
ATOM      9  C   LIG A   1      -9.037  -1.622 123.355  0.00  0.00    +0.337 A 
ATOM     10  O   LIG A   1      -9.131  -1.044 122.279  0.00  0.00    -0.245 OA
ATOM     11  O   LIG A   1      -8.590  -0.992 124.504  0.00  0.00    -0.421 OA
ENDROOT
BRANCH   1  12
ATOM     12  C   LIG A   1      -7.611   0.453 126.727  0.00  0.00    +0.027 C 
ATOM     13  C   LIG A   1      -6.354   0.835 126.383  0.00  0.00    -0.065 C 
ATOM     14  C   LIG A   1      -5.873   2.264 126.298  0.00  0.00    +0.039 C 
ATOM     15  C   LIG A   1      -5.246  -0.144 126.058  0.00  0.00    +0.039 C 
BRANCH  12  16
ATOM     16  C   LIG A   1      -8.696   1.445 126.979  0.00  0.00    +0.259 C 
ATOM     17  O   LIG A   1      -8.943   1.913 128.091  0.00  0.00    -0.296 OA
ENDBRANCH  12  16
ENDBRANCH   1  12
BRANCH   6  18
ATOM     18  O   LIG A   1      -7.382  -0.929 129.144  0.00  0.00    -0.494 OA
ATOM     19  C   LIG A   1      -6.127  -1.331 129.683  0.00  0.00    +0.277 C 
ENDBRANCH   6  18
TORSDOF 3
ENDMDL
MODEL 7
REMARK VINA RESULT:      -5.9      6.891      9.919
REMARK  Name = NuBBE_938
REMARK  6 active torsions:
REMARK  status: ('A' for Active; 'I' for Inactive)
REMARK    1  A    between atoms: C_1  and  C_5
REMARK    2  A    between atoms: C_1  and  C_7
REMARK    3  A    between atoms: C_2  and  C_3
REMARK    4  A    between atoms: C_2  and  C_4
REMARK    5  A    between atoms: C_12  and  O_13
REMARK    6  A    between atoms: O_13  and  C_14
REMARK                            x       y       z     vdW  Elec       q    Type
REMARK                         _______ _______ _______ _____ _____    ______ ____
ROOT
ATOM      1  C   LIG A   1      -7.703  -1.256 125.577  0.00  0.00    +0.070 A 
ATOM      2  C   LIG A   1      -7.970  -1.952 126.766  0.00  0.00    +0.150 A 
ATOM      3  C   LIG A   1      -8.383  -3.284 126.762  0.00  0.00    +0.018 A 
ATOM      4  C   LIG A   1      -8.533  -3.941 125.540  0.00  0.00    +0.015 A 
ATOM      5  C   LIG A   1      -8.287  -3.263 124.340  0.00  0.00    +0.047 A 
ATOM      6  C   LIG A   1      -7.887  -1.921 124.349  0.00  0.00    +0.131 A 
ATOM      7  C   LIG A   1      -8.634  -3.960 128.023  0.00  0.00    +0.018 A 
ATOM      8  C   LIG A   1      -8.495  -3.288 129.171  0.00  0.00    +0.092 A 
ATOM      9  C   LIG A   1      -8.077  -1.876 129.213  0.00  0.00    +0.337 A 
ATOM     10  O   LIG A   1      -7.956  -1.292 130.284  0.00  0.00    -0.245 OA
ATOM     11  O   LIG A   1      -7.809  -1.269 127.999  0.00  0.00    -0.421 OA
ENDROOT
BRANCH   1  12
ATOM     12  C   LIG A   1      -7.258   0.156 125.619  0.00  0.00    +0.027 C 
ATOM     13  C   LIG A   1      -8.144   1.183 125.565  0.00  0.00    -0.065 C 
ATOM     14  C   LIG A   1      -7.775   2.648 125.539  0.00  0.00    +0.039 C 
ATOM     15  C   LIG A   1      -9.643   0.987 125.500  0.00  0.00    +0.039 C 
BRANCH  12  16
ATOM     16  C   LIG A   1      -5.790   0.386 125.748  0.00  0.00    +0.259 C 
ATOM     17  O   LIG A   1      -4.959  -0.523 125.745  0.00  0.00    -0.296 OA
ENDBRANCH  12  16
ENDBRANCH   1  12
BRANCH   6  18
ATOM     18  O   LIG A   1      -7.588  -1.216 123.209  0.00  0.00    -0.494 OA
ATOM     19  C   LIG A   1      -6.446  -1.659 122.485  0.00  0.00    +0.277 C 
ENDBRANCH   6  18
TORSDOF 3
ENDMDL
MODEL 8
REMARK VINA RESULT:      -5.9      6.513      8.436
REMARK  Name = NuBBE_938
REMARK  6 active torsions:
REMARK  status: ('A' for Active; 'I' for Inactive)
REMARK    1  A    between atoms: C_1  and  C_5
REMARK    2  A    between atoms: C_1  and  C_7
REMARK    3  A    between atoms: C_2  and  C_3
REMARK    4  A    between atoms: C_2  and  C_4
REMARK    5  A    between atoms: C_12  and  O_13
REMARK    6  A    between atoms: O_13  and  C_14
REMARK                            x       y       z     vdW  Elec       q    Type
REMARK                         _______ _______ _______ _____ _____    ______ ____
ROOT
ATOM      1  C   LIG A   1      -7.548   1.376 124.446  0.00  0.00    +0.070 A 
ATOM      2  C   LIG A   1      -6.798   2.371 123.799  0.00  0.00    +0.150 A 
ATOM      3  C   LIG A   1      -6.136   3.371 124.508  0.00  0.00    +0.018 A 
ATOM      4  C   LIG A   1      -6.223   3.383 125.901  0.00  0.00    +0.015 A 
ATOM      5  C   LIG A   1      -6.977   2.412 126.568  0.00  0.00    +0.047 A 
ATOM      6  C   LIG A   1      -7.652   1.416 125.850  0.00  0.00    +0.131 A 
ATOM      7  C   LIG A   1      -5.364   4.369 123.787  0.00  0.00    +0.018 A 
ATOM      8  C   LIG A   1      -5.322   4.332 122.451  0.00  0.00    +0.092 A 
ATOM      9  C   LIG A   1      -6.023   3.300 121.668  0.00  0.00    +0.337 A 
ATOM     10  O   LIG A   1      -5.960   3.294 120.444  0.00  0.00    -0.245 OA
ATOM     11  O   LIG A   1      -6.720   2.341 122.383  0.00  0.00    -0.421 OA
ENDROOT
BRANCH   1  12
ATOM     12  C   LIG A   1      -8.233   0.323 123.662  0.00  0.00    +0.027 C 
ATOM     13  C   LIG A   1      -7.657  -0.886 123.439  0.00  0.00    -0.065 C 
ATOM     14  C   LIG A   1      -8.254  -1.991 122.600  0.00  0.00    +0.039 C 
ATOM     15  C   LIG A   1      -6.306  -1.280 123.997  0.00  0.00    +0.039 C 
BRANCH  12  16
ATOM     16  C   LIG A   1      -9.594   0.656 123.151  0.00  0.00    +0.259 C 
ATOM     17  O   LIG A   1     -10.568   0.833 123.884  0.00  0.00    -0.296 OA
ENDBRANCH  12  16
ENDBRANCH   1  12
BRANCH   6  18
ATOM     18  O   LIG A   1      -8.371   0.411 126.450  0.00  0.00    -0.494 OA
ATOM     19  C   LIG A   1      -7.669  -0.366 127.415  0.00  0.00    +0.277 C 
ENDBRANCH   6  18
TORSDOF 3
ENDMDL
MODEL 9
REMARK VINA RESULT:      -5.8      6.972      8.788
REMARK  Name = NuBBE_938
REMARK  6 active torsions:
REMARK  status: ('A' for Active; 'I' for Inactive)
REMARK    1  A    between atoms: C_1  and  C_5
REMARK    2  A    between atoms: C_1  and  C_7
REMARK    3  A    between atoms: C_2  and  C_3
REMARK    4  A    between atoms: C_2  and  C_4
REMARK    5  A    between atoms: C_12  and  O_13
REMARK    6  A    between atoms: O_13  and  C_14
REMARK                            x       y       z     vdW  Elec       q    Type
REMARK                         _______ _______ _______ _____ _____    ______ ____
ROOT
ATOM      1  C   LIG A   1      -7.818  -0.370 124.558  0.00  0.00    +0.070 A 
ATOM      2  C   LIG A   1      -7.641   0.968 124.171  0.00  0.00    +0.150 A 
ATOM      3  C   LIG A   1      -8.191   2.023 124.897  0.00  0.00    +0.018 A 
ATOM      4  C   LIG A   1      -8.939   1.739 126.041  0.00  0.00    +0.015 A 
ATOM      5  C   LIG A   1      -9.143   0.412 126.438  0.00  0.00    +0.047 A 
ATOM      6  C   LIG A   1      -8.600  -0.645 125.697  0.00  0.00    +0.131 A 
ATOM      7  C   LIG A   1      -7.966   3.389 124.458  0.00  0.00    +0.018 A 
ATOM      8  C   LIG A   1      -7.258   3.617 123.346  0.00  0.00    +0.092 A 
ATOM      9  C   LIG A   1      -6.676   2.527 122.545  0.00  0.00    +0.337 A 
ATOM     10  O   LIG A   1      -6.029   2.772 121.533  0.00  0.00    -0.245 OA
ATOM     11  O   LIG A   1      -6.875   1.238 123.008  0.00  0.00    -0.421 OA
ENDROOT
BRANCH   1  12
ATOM     12  C   LIG A   1      -7.212  -1.465 123.767  0.00  0.00    +0.027 C 
ATOM     13  C   LIG A   1      -5.970  -1.938 124.041  0.00  0.00    -0.065 C 
ATOM     14  C   LIG A   1      -5.252  -3.006 123.249  0.00  0.00    +0.039 C 
ATOM     15  C   LIG A   1      -5.119  -1.429 125.185  0.00  0.00    +0.039 C 
BRANCH  12  16
ATOM     16  C   LIG A   1      -8.049  -2.034 122.672  0.00  0.00    +0.259 C 
ATOM     17  O   LIG A   1      -8.875  -2.931 122.845  0.00  0.00    -0.296 OA
ENDBRANCH  12  16
ENDBRANCH   1  12
BRANCH   6  18
ATOM     18  O   LIG A   1      -8.728  -1.964 126.060  0.00  0.00    -0.494 OA
ATOM     19  C   LIG A   1      -8.139  -2.326 127.304  0.00  0.00    +0.277 C 
ENDBRANCH   6  18
TORSDOF 3
ENDMDL
