MODEL 1
REMARK VINA RESULT:      -7.7      0.000      0.000
REMARK  Name = NuBBE_1630
REMARK  13 active torsions:
REMARK  status: ('A' for Active; 'I' for Inactive)
REMARK    1  A    between atoms: C_1  and  C_2
REMARK    2  A    between atoms: C_1  and  C_16
REMARK    3  A    between atoms: C_3  and  C_4
REMARK    4  A    between atoms: C_3  and  C_15
REMARK    5  A    between atoms: C_4  and  C_5
REMARK    6  A    between atoms: C_5  and  C_6
REMARK    7  A    between atoms: C_7  and  C_8
REMARK    8  A    between atoms: C_7  and  C_14
REMARK    9  A    between atoms: C_8  and  C_9
REMARK   10  A    between atoms: C_9  and  C_10
REMARK   11  A    between atoms: C_11  and  C_12
REMARK   12  A    between atoms: C_11  and  C_13
REMARK   13  A    between atoms: C_20  and  O_25
REMARK                            x       y       z     vdW  Elec       q    Type
REMARK                         _______ _______ _______ _____ _____    ______ ____
ROOT
ATOM      1  C   LIG A   1      -5.820   2.489 127.884  0.00  0.00    +0.042 C 
ENDROOT
BRANCH   1   2
ATOM      2  C   LIG A   1      -6.491   3.114 126.611  0.00  0.00    +0.046 C 
ATOM      3  C   LIG A   1      -7.280   2.025 125.871  0.00  0.00    +0.062 C 
ATOM      4  C   LIG A   1      -7.916   2.639 124.639  0.00  0.00    +0.206 C 
ATOM      5  C   LIG A   1      -6.848   3.130 123.652  0.00  0.00    +0.162 C 
ATOM      6  C   LIG A   1      -5.888   4.133 124.269  0.00  0.00    +0.110 C 
ATOM      7  C   LIG A   1      -5.431   3.688 125.638  0.00  0.00    +0.143 C 
ATOM      8  O   LIG A   1      -4.259   3.882 125.963  0.00  0.00    -0.297 OA
ATOM      9  O   LIG A   1      -8.778   3.754 124.985  0.00  0.00    -0.459 OA
ATOM     10  C   LIG A   1      -8.431   4.655 125.921  0.00  0.00    +0.308 C 
ATOM     11  O   LIG A   1      -8.952   5.786 125.926  0.00  0.00    -0.251 OA
ATOM     12  C   LIG A   1      -7.477   4.222 126.996  0.00  0.00    +0.135 C 
BRANCH   5  13
ATOM     13  O   LIG A   1      -7.471   3.725 122.514  0.00  0.00    -0.388 OA
ATOM     14  H   LIG A   1      -7.058   4.599 122.369  0.00  0.00    +0.210 HD
ENDBRANCH   5  13
ENDBRANCH   1   2
BRANCH   1  15
ATOM     15  C   LIG A   1      -6.326   1.122 128.294  0.00  0.00    -0.027 C 
ATOM     16  C   LIG A   1      -7.391   0.800 129.056  0.00  0.00    -0.076 C 
ATOM     17  C   LIG A   1      -8.374   1.771 129.642  0.00  0.00    +0.038 C 
BRANCH  16  18
ATOM     18  C   LIG A   1      -7.672  -0.659 129.377  0.00  0.00    +0.034 C 
BRANCH  18  19
ATOM     19  C   LIG A   1      -7.014  -1.607 128.370  0.00  0.00    +0.031 C 
BRANCH  19  20
ATOM     20  C   LIG A   1      -7.877  -1.836 127.161  0.00  0.00    -0.027 C 
ATOM     21  C   LIG A   1      -8.670  -2.903 126.938  0.00  0.00    -0.076 C 
ATOM     22  C   LIG A   1      -8.828  -4.003 127.961  0.00  0.00    +0.038 C 
BRANCH  21  23
ATOM     23  C   LIG A   1      -9.435  -2.981 125.615  0.00  0.00    +0.034 C 
BRANCH  23  24
ATOM     24  C   LIG A   1      -8.606  -2.964 124.318  0.00  0.00    +0.031 C 
BRANCH  24  25
ATOM     25  C   LIG A   1      -7.297  -3.725 124.276  0.00  0.00    -0.028 C 
ATOM     26  C   LIG A   1      -6.025  -3.277 124.212  0.00  0.00    -0.080 C 
ATOM     27  C   LIG A   1      -5.555  -1.852 124.318  0.00  0.00    +0.038 C 
ATOM     28  C   LIG A   1      -4.894  -4.226 123.912  0.00  0.00    +0.038 C 
ENDBRANCH  24  25
ENDBRANCH  23  24
ENDBRANCH  21  23
ENDBRANCH  19  20
ENDBRANCH  18  19
ENDBRANCH  16  18
ENDBRANCH   1  15
TORSDOF 9
ENDMDL
MODEL 2
REMARK VINA RESULT:      -7.7      5.693      8.249
REMARK  Name = NuBBE_1630
REMARK  13 active torsions:
REMARK  status: ('A' for Active; 'I' for Inactive)
REMARK    1  A    between atoms: C_1  and  C_2
REMARK    2  A    between atoms: C_1  and  C_16
REMARK    3  A    between atoms: C_3  and  C_4
REMARK    4  A    between atoms: C_3  and  C_15
REMARK    5  A    between atoms: C_4  and  C_5
REMARK    6  A    between atoms: C_5  and  C_6
REMARK    7  A    between atoms: C_7  and  C_8
REMARK    8  A    between atoms: C_7  and  C_14
REMARK    9  A    between atoms: C_8  and  C_9
REMARK   10  A    between atoms: C_9  and  C_10
REMARK   11  A    between atoms: C_11  and  C_12
REMARK   12  A    between atoms: C_11  and  C_13
REMARK   13  A    between atoms: C_20  and  O_25
REMARK                            x       y       z     vdW  Elec       q    Type
REMARK                         _______ _______ _______ _____ _____    ______ ____
ROOT
ATOM      1  C   LIG A   1      -5.361  -4.731 131.224  0.00  0.00    +0.042 C 
ENDROOT
BRANCH   1   2
ATOM      2  C   LIG A   1      -5.689  -4.120 132.632  0.00  0.00    +0.046 C 
ATOM      3  C   LIG A   1      -6.960  -3.267 132.527  0.00  0.00    +0.062 C 
ATOM      4  C   LIG A   1      -7.261  -2.676 133.890  0.00  0.00    +0.206 C 
ATOM      5  C   LIG A   1      -6.146  -1.719 134.337  0.00  0.00    +0.162 C 
ATOM      6  C   LIG A   1      -4.779  -2.380 134.373  0.00  0.00    +0.110 C 
ATOM      7  C   LIG A   1      -4.538  -3.214 133.137  0.00  0.00    +0.143 C 
ATOM      8  O   LIG A   1      -3.415  -3.216 132.632  0.00  0.00    -0.297 OA
ATOM      9  O   LIG A   1      -7.418  -3.710 134.896  0.00  0.00    -0.459 OA
ATOM     10  C   LIG A   1      -6.612  -4.786 134.939  0.00  0.00    +0.308 C 
ATOM     11  O   LIG A   1      -6.485  -5.433 135.995  0.00  0.00    -0.251 OA
ATOM     12  C   LIG A   1      -5.954  -5.224 133.663  0.00  0.00    +0.135 C 
BRANCH   5  13
ATOM     13  O   LIG A   1      -6.441  -1.196 135.631  0.00  0.00    -0.388 OA
ATOM     14  H   LIG A   1      -6.773  -0.284 135.518  0.00  0.00    +0.210 HD
ENDBRANCH   5  13
ENDBRANCH   1   2
BRANCH   1  15
ATOM     15  C   LIG A   1      -5.646  -3.839 130.035  0.00  0.00    -0.027 C 
ATOM     16  C   LIG A   1      -4.787  -3.307 129.142  0.00  0.00    -0.076 C 
ATOM     17  C   LIG A   1      -3.305  -3.540 129.106  0.00  0.00    +0.038 C 
BRANCH  16  18
ATOM     18  C   LIG A   1      -5.311  -2.387 128.051  0.00  0.00    +0.034 C 
BRANCH  18  19
ATOM     19  C   LIG A   1      -6.705  -1.843 128.376  0.00  0.00    +0.031 C 
BRANCH  19  20
ATOM     20  C   LIG A   1      -7.633  -1.918 127.196  0.00  0.00    -0.027 C 
ATOM     21  C   LIG A   1      -8.551  -2.876 126.964  0.00  0.00    -0.076 C 
ATOM     22  C   LIG A   1      -8.797  -3.996 127.947  0.00  0.00    +0.038 C 
BRANCH  21  23
ATOM     23  C   LIG A   1      -9.369  -2.806 125.672  0.00  0.00    +0.034 C 
BRANCH  23  24
ATOM     24  C   LIG A   1      -8.759  -3.452 124.415  0.00  0.00    +0.031 C 
BRANCH  24  25
ATOM     25  C   LIG A   1      -7.308  -3.883 124.443  0.00  0.00    -0.028 C 
ATOM     26  C   LIG A   1      -6.186  -3.204 124.123  0.00  0.00    -0.080 C 
ATOM     27  C   LIG A   1      -6.071  -1.744 123.784  0.00  0.00    +0.038 C 
ATOM     28  C   LIG A   1      -4.870  -3.926 123.976  0.00  0.00    +0.038 C 
ENDBRANCH  24  25
ENDBRANCH  23  24
ENDBRANCH  21  23
ENDBRANCH  19  20
ENDBRANCH  18  19
ENDBRANCH  16  18
ENDBRANCH   1  15
TORSDOF 9
ENDMDL
MODEL 3
REMARK VINA RESULT:      -7.6      4.414      7.055
REMARK  Name = NuBBE_1630
REMARK  13 active torsions:
REMARK  status: ('A' for Active; 'I' for Inactive)
REMARK    1  A    between atoms: C_1  and  C_2
REMARK    2  A    between atoms: C_1  and  C_16
REMARK    3  A    between atoms: C_3  and  C_4
REMARK    4  A    between atoms: C_3  and  C_15
REMARK    5  A    between atoms: C_4  and  C_5
REMARK    6  A    between atoms: C_5  and  C_6
REMARK    7  A    between atoms: C_7  and  C_8
REMARK    8  A    between atoms: C_7  and  C_14
REMARK    9  A    between atoms: C_8  and  C_9
REMARK   10  A    between atoms: C_9  and  C_10
REMARK   11  A    between atoms: C_11  and  C_12
REMARK   12  A    between atoms: C_11  and  C_13
REMARK   13  A    between atoms: C_20  and  O_25
REMARK                            x       y       z     vdW  Elec       q    Type
REMARK                         _______ _______ _______ _____ _____    ______ ____
ROOT
ATOM      1  C   LIG A   1      -7.370  -2.864 130.770  0.00  0.00    +0.042 C 
ENDROOT
BRANCH   1   2
ATOM      2  C   LIG A   1      -5.829  -2.719 131.023  0.00  0.00    +0.046 C 
ATOM      3  C   LIG A   1      -5.463  -3.438 132.329  0.00  0.00    +0.062 C 
ATOM      4  C   LIG A   1      -3.974  -3.283 132.567  0.00  0.00    +0.206 C 
ATOM      5  C   LIG A   1      -3.597  -1.810 132.777  0.00  0.00    +0.162 C 
ATOM      6  C   LIG A   1      -4.009  -0.923 131.614  0.00  0.00    +0.110 C 
ATOM      7  C   LIG A   1      -5.415  -1.232 131.157  0.00  0.00    +0.143 C 
ATOM      8  O   LIG A   1      -6.147  -0.301 130.820  0.00  0.00    -0.297 OA
ATOM      9  O   LIG A   1      -3.200  -3.808 131.457  0.00  0.00    -0.459 OA
ATOM     10  C   LIG A   1      -3.568  -3.609 130.179  0.00  0.00    +0.308 C 
ATOM     11  O   LIG A   1      -2.728  -3.697 129.265  0.00  0.00    -0.251 OA
ATOM     12  C   LIG A   1      -5.021  -3.369 129.894  0.00  0.00    +0.135 C 
BRANCH   5  13
ATOM     13  O   LIG A   1      -2.189  -1.689 132.974  0.00  0.00    -0.388 OA
ATOM     14  H   LIG A   1      -1.968  -0.736 132.989  0.00  0.00    +0.210 HD
ENDBRANCH   5  13
ENDBRANCH   1   2
BRANCH   1  15
ATOM     15  C   LIG A   1      -7.768  -3.410 129.414  0.00  0.00    -0.027 C 
ATOM     16  C   LIG A   1      -7.985  -2.749 128.259  0.00  0.00    -0.076 C 
ATOM     17  C   LIG A   1      -7.820  -1.272 128.049  0.00  0.00    +0.038 C 
BRANCH  16  18
ATOM     18  C   LIG A   1      -8.433  -3.518 127.026  0.00  0.00    +0.034 C 
BRANCH  18  19
ATOM     19  C   LIG A   1      -9.507  -2.765 126.236  0.00  0.00    +0.031 C 
BRANCH  19  20
ATOM     20  C   LIG A   1      -8.914  -1.882 125.174  0.00  0.00    -0.027 C 
ATOM     21  C   LIG A   1      -8.885  -2.135 123.851  0.00  0.00    -0.076 C 
ATOM     22  C   LIG A   1      -9.533  -3.366 123.263  0.00  0.00    +0.038 C 
BRANCH  21  23
ATOM     23  C   LIG A   1      -8.185  -1.132 122.930  0.00  0.00    +0.034 C 
BRANCH  23  24
ATOM     24  C   LIG A   1      -6.648  -1.177 122.876  0.00  0.00    +0.031 C 
BRANCH  24  25
ATOM     25  C   LIG A   1      -5.949  -2.515 122.998  0.00  0.00    -0.028 C 
ATOM     26  C   LIG A   1      -5.334  -3.089 124.054  0.00  0.00    -0.080 C 
ATOM     27  C   LIG A   1      -5.309  -2.594 125.474  0.00  0.00    +0.038 C 
ATOM     28  C   LIG A   1      -4.476  -4.315 123.866  0.00  0.00    +0.038 C 
ENDBRANCH  24  25
ENDBRANCH  23  24
ENDBRANCH  21  23
ENDBRANCH  19  20
ENDBRANCH  18  19
ENDBRANCH  16  18
ENDBRANCH   1  15
TORSDOF 9
ENDMDL
MODEL 4
REMARK VINA RESULT:      -7.4      3.787      5.154
REMARK  Name = NuBBE_1630
REMARK  13 active torsions:
REMARK  status: ('A' for Active; 'I' for Inactive)
REMARK    1  A    between atoms: C_1  and  C_2
REMARK    2  A    between atoms: C_1  and  C_16
REMARK    3  A    between atoms: C_3  and  C_4
REMARK    4  A    between atoms: C_3  and  C_15
REMARK    5  A    between atoms: C_4  and  C_5
REMARK    6  A    between atoms: C_5  and  C_6
REMARK    7  A    between atoms: C_7  and  C_8
REMARK    8  A    between atoms: C_7  and  C_14
REMARK    9  A    between atoms: C_8  and  C_9
REMARK   10  A    between atoms: C_9  and  C_10
REMARK   11  A    between atoms: C_11  and  C_12
REMARK   12  A    between atoms: C_11  and  C_13
REMARK   13  A    between atoms: C_20  and  O_25
REMARK                            x       y       z     vdW  Elec       q    Type
REMARK                         _______ _______ _______ _____ _____    ______ ____
ROOT
ATOM      1  C   LIG A   1      -7.086   1.919 130.749  0.00  0.00    +0.042 C 
ENDROOT
BRANCH   1   2
ATOM      2  C   LIG A   1      -8.133   3.004 131.181  0.00  0.00    +0.046 C 
ATOM      3  C   LIG A   1      -7.540   4.400 130.945  0.00  0.00    +0.062 C 
ATOM      4  C   LIG A   1      -8.558   5.438 131.375  0.00  0.00    +0.206 C 
ATOM      5  C   LIG A   1      -8.838   5.348 132.881  0.00  0.00    +0.162 C 
ATOM      6  C   LIG A   1      -9.320   3.973 133.312  0.00  0.00    +0.110 C 
ATOM      7  C   LIG A   1      -8.491   2.878 132.683  0.00  0.00    +0.143 C 
ATOM      8  O   LIG A   1      -8.211   1.886 133.356  0.00  0.00    -0.297 OA
ATOM      9  O   LIG A   1      -9.810   5.285 130.658  0.00  0.00    -0.459 OA
ATOM     10  C   LIG A   1     -10.343   4.075 130.412  0.00  0.00    +0.308 C 
ATOM     11  O   LIG A   1     -11.559   3.962 130.174  0.00  0.00    -0.251 OA
ATOM     12  C   LIG A   1      -9.414   2.898 130.345  0.00  0.00    +0.135 C 
BRANCH   5  13
ATOM     13  O   LIG A   1      -9.816   6.318 133.255  0.00  0.00    -0.388 OA
ATOM     14  H   LIG A   1      -9.403   6.928 133.899  0.00  0.00    +0.210 HD
ENDBRANCH   5  13
ENDBRANCH   1   2
BRANCH   1  15
ATOM     15  C   LIG A   1      -7.660   0.610 130.248  0.00  0.00    -0.027 C 
ATOM     16  C   LIG A   1      -7.490  -0.637 130.733  0.00  0.00    -0.076 C 
ATOM     17  C   LIG A   1      -6.705  -1.001 131.959  0.00  0.00    +0.038 C 
BRANCH  16  18
ATOM     18  C   LIG A   1      -8.134  -1.814 130.019  0.00  0.00    +0.034 C 
BRANCH  18  19
ATOM     19  C   LIG A   1      -7.217  -2.408 128.945  0.00  0.00    +0.031 C 
BRANCH  19  20
ATOM     20  C   LIG A   1      -7.992  -3.002 127.803  0.00  0.00    -0.027 C 
ATOM     21  C   LIG A   1      -8.471  -2.337 126.733  0.00  0.00    -0.076 C 
ATOM     22  C   LIG A   1      -8.210  -0.863 126.533  0.00  0.00    +0.038 C 
BRANCH  21  23
ATOM     23  C   LIG A   1      -9.286  -3.112 125.695  0.00  0.00    +0.034 C 
BRANCH  23  24
ATOM     24  C   LIG A   1      -8.613  -3.400 124.341  0.00  0.00    +0.031 C 
BRANCH  24  25
ATOM     25  C   LIG A   1      -7.197  -3.938 124.326  0.00  0.00    -0.028 C 
ATOM     26  C   LIG A   1      -6.023  -3.308 124.113  0.00  0.00    -0.080 C 
ATOM     27  C   LIG A   1      -5.795  -1.828 123.977  0.00  0.00    +0.038 C 
ATOM     28  C   LIG A   1      -4.761  -4.099 123.883  0.00  0.00    +0.038 C 
ENDBRANCH  24  25
ENDBRANCH  23  24
ENDBRANCH  21  23
ENDBRANCH  19  20
ENDBRANCH  18  19
ENDBRANCH  16  18
ENDBRANCH   1  15
TORSDOF 9
ENDMDL
MODEL 5
REMARK VINA RESULT:      -7.4      1.812      4.293
REMARK  Name = NuBBE_1630
REMARK  13 active torsions:
REMARK  status: ('A' for Active; 'I' for Inactive)
REMARK    1  A    between atoms: C_1  and  C_2
REMARK    2  A    between atoms: C_1  and  C_16
REMARK    3  A    between atoms: C_3  and  C_4
REMARK    4  A    between atoms: C_3  and  C_15
REMARK    5  A    between atoms: C_4  and  C_5
REMARK    6  A    between atoms: C_5  and  C_6
REMARK    7  A    between atoms: C_7  and  C_8
REMARK    8  A    between atoms: C_7  and  C_14
REMARK    9  A    between atoms: C_8  and  C_9
REMARK   10  A    between atoms: C_9  and  C_10
REMARK   11  A    between atoms: C_11  and  C_12
REMARK   12  A    between atoms: C_11  and  C_13
REMARK   13  A    between atoms: C_20  and  O_25
REMARK                            x       y       z     vdW  Elec       q    Type
REMARK                         _______ _______ _______ _____ _____    ______ ____
ROOT
ATOM      1  C   LIG A   1      -6.889   0.200 123.239  0.00  0.00    +0.042 C 
ENDROOT
BRANCH   1   2
ATOM      2  C   LIG A   1      -6.948   1.331 124.325  0.00  0.00    +0.046 C 
ATOM      3  C   LIG A   1      -8.346   1.351 124.957  0.00  0.00    +0.062 C 
ATOM      4  C   LIG A   1      -8.393   2.453 125.997  0.00  0.00    +0.206 C 
ATOM      5  C   LIG A   1      -8.203   3.832 125.351  0.00  0.00    +0.162 C 
ATOM      6  C   LIG A   1      -6.907   3.944 124.566  0.00  0.00    +0.110 C 
ATOM      7  C   LIG A   1      -6.678   2.725 123.704  0.00  0.00    +0.143 C 
ATOM      8  O   LIG A   1      -6.200   2.875 122.579  0.00  0.00    -0.297 OA
ATOM      9  O   LIG A   1      -7.373   2.269 127.012  0.00  0.00    -0.459 OA
ATOM     10  C   LIG A   1      -6.126   1.871 126.702  0.00  0.00    +0.308 C 
ATOM     11  O   LIG A   1      -5.183   2.101 127.480  0.00  0.00    -0.251 OA
ATOM     12  C   LIG A   1      -5.935   1.072 125.446  0.00  0.00    +0.135 C 
BRANCH   5  13
ATOM     13  O   LIG A   1      -8.226   4.848 126.352  0.00  0.00    -0.388 OA
ATOM     14  H   LIG A   1      -8.706   5.618 125.988  0.00  0.00    +0.210 HD
ENDBRANCH   5  13
ENDBRANCH   1   2
BRANCH   1  15
ATOM     15  C   LIG A   1      -7.475  -1.136 123.645  0.00  0.00    -0.027 C 
ATOM     16  C   LIG A   1      -6.852  -2.316 123.841  0.00  0.00    -0.076 C 
ATOM     17  C   LIG A   1      -5.373  -2.553 123.747  0.00  0.00    +0.038 C 
BRANCH  16  18
ATOM     18  C   LIG A   1      -7.670  -3.547 124.198  0.00  0.00    +0.034 C 
BRANCH  18  19
ATOM     19  C   LIG A   1      -8.937  -3.189 124.980  0.00  0.00    +0.031 C 
BRANCH  19  20
ATOM     20  C   LIG A   1      -8.870  -3.650 126.409  0.00  0.00    -0.027 C 
ATOM     21  C   LIG A   1      -8.464  -2.917 127.465  0.00  0.00    -0.076 C 
ATOM     22  C   LIG A   1      -8.075  -1.464 127.321  0.00  0.00    +0.038 C 
BRANCH  21  23
ATOM     23  C   LIG A   1      -8.416  -3.583 128.842  0.00  0.00    +0.034 C 
BRANCH  23  24
ATOM     24  C   LIG A   1      -7.454  -2.983 129.883  0.00  0.00    +0.031 C 
BRANCH  24  25
ATOM     25  C   LIG A   1      -6.011  -3.441 129.897  0.00  0.00    -0.028 C 
ATOM     26  C   LIG A   1      -4.933  -2.961 129.241  0.00  0.00    -0.080 C 
ATOM     27  C   LIG A   1      -4.855  -1.711 128.409  0.00  0.00    +0.038 C 
ATOM     28  C   LIG A   1      -3.646  -3.746 129.206  0.00  0.00    +0.038 C 
ENDBRANCH  24  25
ENDBRANCH  23  24
ENDBRANCH  21  23
ENDBRANCH  19  20
ENDBRANCH  18  19
ENDBRANCH  16  18
ENDBRANCH   1  15
TORSDOF 9
ENDMDL
MODEL 6
REMARK VINA RESULT:      -7.3      1.842      3.516
REMARK  Name = NuBBE_1630
REMARK  13 active torsions:
REMARK  status: ('A' for Active; 'I' for Inactive)
REMARK    1  A    between atoms: C_1  and  C_2
REMARK    2  A    between atoms: C_1  and  C_16
REMARK    3  A    between atoms: C_3  and  C_4
REMARK    4  A    between atoms: C_3  and  C_15
REMARK    5  A    between atoms: C_4  and  C_5
REMARK    6  A    between atoms: C_5  and  C_6
REMARK    7  A    between atoms: C_7  and  C_8
REMARK    8  A    between atoms: C_7  and  C_14
REMARK    9  A    between atoms: C_8  and  C_9
REMARK   10  A    between atoms: C_9  and  C_10
REMARK   11  A    between atoms: C_11  and  C_12
REMARK   12  A    between atoms: C_11  and  C_13
REMARK   13  A    between atoms: C_20  and  O_25
REMARK                            x       y       z     vdW  Elec       q    Type
REMARK                         _______ _______ _______ _____ _____    ______ ____
ROOT
ATOM      1  C   LIG A   1      -5.642   0.714 126.395  0.00  0.00    +0.042 C 
ENDROOT
BRANCH   1   2
ATOM      2  C   LIG A   1      -5.699   2.239 126.758  0.00  0.00    +0.046 C 
ATOM      3  C   LIG A   1      -5.183   3.060 125.568  0.00  0.00    +0.062 C 
ATOM      4  C   LIG A   1      -5.235   4.530 125.934  0.00  0.00    +0.206 C 
ATOM      5  C   LIG A   1      -4.290   4.843 127.103  0.00  0.00    +0.162 C 
ATOM      6  C   LIG A   1      -4.585   4.012 128.341  0.00  0.00    +0.110 C 
ATOM      7  C   LIG A   1      -4.813   2.561 127.988  0.00  0.00    +0.143 C 
ATOM      8  O   LIG A   1      -4.368   1.692 128.738  0.00  0.00    -0.297 OA
ATOM      9  O   LIG A   1      -6.578   4.941 126.298  0.00  0.00    -0.459 OA
ATOM     10  C   LIG A   1      -7.376   4.166 127.054  0.00  0.00    +0.308 C 
ATOM     11  O   LIG A   1      -8.326   4.670 127.682  0.00  0.00    -0.251 OA
ATOM     12  C   LIG A   1      -7.138   2.685 127.040  0.00  0.00    +0.135 C 
BRANCH   5  13
ATOM     13  O   LIG A   1      -4.376   6.226 127.444  0.00  0.00    -0.388 OA
ATOM     14  H   LIG A   1      -4.665   6.288 128.376  0.00  0.00    +0.210 HD
ENDBRANCH   5  13
ENDBRANCH   1   2
BRANCH   1  15
ATOM     15  C   LIG A   1      -6.779  -0.134 126.925  0.00  0.00    -0.027 C 
ATOM     16  C   LIG A   1      -6.742  -1.365 127.474  0.00  0.00    -0.076 C 
ATOM     17  C   LIG A   1      -5.502  -2.169 127.737  0.00  0.00    +0.038 C 
BRANCH  16  18
ATOM     18  C   LIG A   1      -8.038  -2.043 127.888  0.00  0.00    +0.034 C 
BRANCH  18  19
ATOM     19  C   LIG A   1      -8.245  -3.378 127.167  0.00  0.00    +0.031 C 
BRANCH  19  20
ATOM     20  C   LIG A   1      -8.972  -3.211 125.863  0.00  0.00    -0.027 C 
ATOM     21  C   LIG A   1      -8.418  -3.220 124.634  0.00  0.00    -0.076 C 
ATOM     22  C   LIG A   1      -6.943  -3.474 124.430  0.00  0.00    +0.038 C 
BRANCH  21  23
ATOM     23  C   LIG A   1      -9.322  -2.980 123.423  0.00  0.00    +0.034 C 
BRANCH  23  24
ATOM     24  C   LIG A   1      -9.041  -1.731 122.569  0.00  0.00    +0.031 C 
BRANCH  24  25
ATOM     25  C   LIG A   1      -9.419  -0.370 123.115  0.00  0.00    -0.028 C 
ATOM     26  C   LIG A   1      -8.645   0.676 123.475  0.00  0.00    -0.080 C 
ATOM     27  C   LIG A   1      -7.160   0.818 123.283  0.00  0.00    +0.038 C 
ATOM     28  C   LIG A   1      -9.230   1.833 124.243  0.00  0.00    +0.038 C 
ENDBRANCH  24  25
ENDBRANCH  23  24
ENDBRANCH  21  23
ENDBRANCH  19  20
ENDBRANCH  18  19
ENDBRANCH  16  18
ENDBRANCH   1  15
TORSDOF 9
ENDMDL
MODEL 7
REMARK VINA RESULT:      -7.3      3.434      7.059
REMARK  Name = NuBBE_1630
REMARK  13 active torsions:
REMARK  status: ('A' for Active; 'I' for Inactive)
REMARK    1  A    between atoms: C_1  and  C_2
REMARK    2  A    between atoms: C_1  and  C_16
REMARK    3  A    between atoms: C_3  and  C_4
REMARK    4  A    between atoms: C_3  and  C_15
REMARK    5  A    between atoms: C_4  and  C_5
REMARK    6  A    between atoms: C_5  and  C_6
REMARK    7  A    between atoms: C_7  and  C_8
REMARK    8  A    between atoms: C_7  and  C_14
REMARK    9  A    between atoms: C_8  and  C_9
REMARK   10  A    between atoms: C_9  and  C_10
REMARK   11  A    between atoms: C_11  and  C_12
REMARK   12  A    between atoms: C_11  and  C_13
REMARK   13  A    between atoms: C_20  and  O_25
REMARK                            x       y       z     vdW  Elec       q    Type
REMARK                         _______ _______ _______ _____ _____    ______ ____
ROOT
ATOM      1  C   LIG A   1      -5.819  -2.105 127.213  0.00  0.00    +0.042 C 
ENDROOT
BRANCH   1   2
ATOM      2  C   LIG A   1      -7.028  -2.057 126.214  0.00  0.00    +0.046 C 
ATOM      3  C   LIG A   1      -8.197  -2.861 126.798  0.00  0.00    +0.062 C 
ATOM      4  C   LIG A   1      -9.354  -2.815 125.819  0.00  0.00    +0.206 C 
ATOM      5  C   LIG A   1      -8.988  -3.503 124.497  0.00  0.00    +0.162 C 
ATOM      6  C   LIG A   1      -7.757  -2.904 123.839  0.00  0.00    +0.110 C 
ATOM      7  C   LIG A   1      -6.652  -2.676 124.844  0.00  0.00    +0.143 C 
ATOM      8  O   LIG A   1      -5.489  -2.900 124.507  0.00  0.00    -0.297 OA
ATOM      9  O   LIG A   1      -9.759  -1.450 125.537  0.00  0.00    -0.459 OA
ATOM     10  C   LIG A   1      -8.859  -0.466 125.359  0.00  0.00    +0.308 C 
ATOM     11  O   LIG A   1      -9.174   0.566 124.739  0.00  0.00    -0.251 OA
ATOM     12  C   LIG A   1      -7.513  -0.618 126.003  0.00  0.00    +0.135 C 
BRANCH   5  13
ATOM     13  O   LIG A   1     -10.084  -3.424 123.585  0.00  0.00    -0.388 OA
ATOM     14  H   LIG A   1     -10.083  -2.529 123.192  0.00  0.00    +0.210 HD
ENDBRANCH   5  13
ENDBRANCH   1   2
BRANCH   1  15
ATOM     15  C   LIG A   1      -6.052  -2.879 128.494  0.00  0.00    -0.027 C 
ATOM     16  C   LIG A   1      -5.151  -3.405 129.349  0.00  0.00    -0.076 C 
ATOM     17  C   LIG A   1      -3.660  -3.283 129.234  0.00  0.00    +0.038 C 
BRANCH  16  18
ATOM     18  C   LIG A   1      -5.632  -4.195 130.555  0.00  0.00    +0.034 C 
BRANCH  18  19
ATOM     19  C   LIG A   1      -6.922  -3.617 131.145  0.00  0.00    +0.031 C 
BRANCH  19  20
ATOM     20  C   LIG A   1      -6.652  -2.488 132.100  0.00  0.00    -0.027 C 
ATOM     21  C   LIG A   1      -7.046  -1.207 131.953  0.00  0.00    -0.076 C 
ATOM     22  C   LIG A   1      -7.895  -0.767 130.784  0.00  0.00    +0.038 C 
BRANCH  21  23
ATOM     23  C   LIG A   1      -6.626  -0.187 133.013  0.00  0.00    +0.034 C 
BRANCH  23  24
ATOM     24  C   LIG A   1      -6.612   1.296 132.600  0.00  0.00    +0.031 C 
BRANCH  24  25
ATOM     25  C   LIG A   1      -7.468   2.279 133.370  0.00  0.00    -0.028 C 
ATOM     26  C   LIG A   1      -8.744   2.672 133.173  0.00  0.00    -0.080 C 
ATOM     27  C   LIG A   1      -9.730   2.105 132.188  0.00  0.00    +0.038 C 
ATOM     28  C   LIG A   1      -9.301   3.863 133.910  0.00  0.00    +0.038 C 
ENDBRANCH  24  25
ENDBRANCH  23  24
ENDBRANCH  21  23
ENDBRANCH  19  20
ENDBRANCH  18  19
ENDBRANCH  16  18
ENDBRANCH   1  15
TORSDOF 9
ENDMDL
MODEL 8
REMARK VINA RESULT:      -7.2      5.003      7.524
REMARK  Name = NuBBE_1630
REMARK  13 active torsions:
REMARK  status: ('A' for Active; 'I' for Inactive)
REMARK    1  A    between atoms: C_1  and  C_2
REMARK    2  A    between atoms: C_1  and  C_16
REMARK    3  A    between atoms: C_3  and  C_4
REMARK    4  A    between atoms: C_3  and  C_15
REMARK    5  A    between atoms: C_4  and  C_5
REMARK    6  A    between atoms: C_5  and  C_6
REMARK    7  A    between atoms: C_7  and  C_8
REMARK    8  A    between atoms: C_7  and  C_14
REMARK    9  A    between atoms: C_8  and  C_9
REMARK   10  A    between atoms: C_9  and  C_10
REMARK   11  A    between atoms: C_11  and  C_12
REMARK   12  A    between atoms: C_11  and  C_13
REMARK   13  A    between atoms: C_20  and  O_25
REMARK                            x       y       z     vdW  Elec       q    Type
REMARK                         _______ _______ _______ _____ _____    ______ ____
ROOT
ATOM      1  C   LIG A   1      -6.275   6.809 131.404  0.00  0.00    +0.042 C 
ENDROOT
BRANCH   1   2
ATOM      2  C   LIG A   1      -7.714   6.213 131.213  0.00  0.00    +0.046 C 
ATOM      3  C   LIG A   1      -8.614   7.268 130.555  0.00  0.00    +0.062 C 
ATOM      4  C   LIG A   1     -10.002   6.684 130.385  0.00  0.00    +0.206 C 
ATOM      5  C   LIG A   1     -10.642   6.373 131.745  0.00  0.00    +0.162 C 
ATOM      6  C   LIG A   1      -9.806   5.427 132.590  0.00  0.00    +0.110 C 
ATOM      7  C   LIG A   1      -8.346   5.817 132.571  0.00  0.00    +0.143 C 
ATOM      8  O   LIG A   1      -7.692   5.717 133.610  0.00  0.00    -0.297 OA
ATOM      9  O   LIG A   1      -9.974   5.468 129.594  0.00  0.00    -0.459 OA
ATOM     10  C   LIG A   1      -9.013   4.541 129.752  0.00  0.00    +0.308 C 
ATOM     11  O   LIG A   1      -9.208   3.367 129.388  0.00  0.00    -0.251 OA
ATOM     12  C   LIG A   1      -7.686   4.988 130.292  0.00  0.00    +0.135 C 
BRANCH   5  13
ATOM     13  O   LIG A   1     -11.937   5.802 131.557  0.00  0.00    -0.388 OA
ATOM     14  H   LIG A   1     -12.555   6.526 131.333  0.00  0.00    +0.210 HD
ENDBRANCH   5  13
ENDBRANCH   1   2
BRANCH   1  15
ATOM     15  C   LIG A   1      -5.382   6.780 130.181  0.00  0.00    -0.027 C 
ATOM     16  C   LIG A   1      -4.052   6.984 130.092  0.00  0.00    -0.076 C 
ATOM     17  C   LIG A   1      -3.125   7.240 131.245  0.00  0.00    +0.038 C 
BRANCH  16  18
ATOM     18  C   LIG A   1      -3.377   6.956 128.730  0.00  0.00    +0.034 C 
BRANCH  18  19
ATOM     19  C   LIG A   1      -2.856   5.560 128.374  0.00  0.00    +0.031 C 
BRANCH  19  20
ATOM     20  C   LIG A   1      -3.801   4.816 127.472  0.00  0.00    -0.027 C 
ATOM     21  C   LIG A   1      -3.472   3.837 126.606  0.00  0.00    -0.076 C 
ATOM     22  C   LIG A   1      -2.057   3.319 126.493  0.00  0.00    +0.038 C 
BRANCH  21  23
ATOM     23  C   LIG A   1      -4.574   3.234 125.732  0.00  0.00    +0.034 C 
BRANCH  23  24
ATOM     24  C   LIG A   1      -5.532   4.212 125.030  0.00  0.00    +0.031 C 
BRANCH  24  25
ATOM     25  C   LIG A   1      -5.401   4.420 123.535  0.00  0.00    -0.028 C 
ATOM     26  C   LIG A   1      -5.897   3.704 122.504  0.00  0.00    -0.080 C 
ATOM     27  C   LIG A   1      -6.866   2.556 122.575  0.00  0.00    +0.038 C 
ATOM     28  C   LIG A   1      -5.413   3.951 121.098  0.00  0.00    +0.038 C 
ENDBRANCH  24  25
ENDBRANCH  23  24
ENDBRANCH  21  23
ENDBRANCH  19  20
ENDBRANCH  18  19
ENDBRANCH  16  18
ENDBRANCH   1  15
TORSDOF 9
ENDMDL
MODEL 9
REMARK VINA RESULT:      -7.2      3.842      6.960
REMARK  Name = NuBBE_1630
REMARK  13 active torsions:
REMARK  status: ('A' for Active; 'I' for Inactive)
REMARK    1  A    between atoms: C_1  and  C_2
REMARK    2  A    between atoms: C_1  and  C_16
REMARK    3  A    between atoms: C_3  and  C_4
REMARK    4  A    between atoms: C_3  and  C_15
REMARK    5  A    between atoms: C_4  and  C_5
REMARK    6  A    between atoms: C_5  and  C_6
REMARK    7  A    between atoms: C_7  and  C_8
REMARK    8  A    between atoms: C_7  and  C_14
REMARK    9  A    between atoms: C_8  and  C_9
REMARK   10  A    between atoms: C_9  and  C_10
REMARK   11  A    between atoms: C_11  and  C_12
REMARK   12  A    between atoms: C_11  and  C_13
REMARK   13  A    between atoms: C_20  and  O_25
REMARK                            x       y       z     vdW  Elec       q    Type
REMARK                         _______ _______ _______ _____ _____    ______ ____
ROOT
ATOM      1  C   LIG A   1      -4.466   3.838 125.195  0.00  0.00    +0.042 C 
ENDROOT
BRANCH   1   2
ATOM      2  C   LIG A   1      -6.018   3.720 125.002  0.00  0.00    +0.046 C 
ATOM      3  C   LIG A   1      -6.520   2.456 125.713  0.00  0.00    +0.062 C 
ATOM      4  C   LIG A   1      -8.019   2.349 125.511  0.00  0.00    +0.206 C 
ATOM      5  C   LIG A   1      -8.366   2.164 124.028  0.00  0.00    +0.162 C 
ATOM      6  C   LIG A   1      -7.825   3.281 123.150  0.00  0.00    +0.110 C 
ATOM      7  C   LIG A   1      -6.395   3.614 123.503  0.00  0.00    +0.143 C 
ATOM      8  O   LIG A   1      -5.607   3.880 122.595  0.00  0.00    -0.297 OA
ATOM      9  O   LIG A   1      -8.708   3.525 126.008  0.00  0.00    -0.459 OA
ATOM     10  C   LIG A   1      -8.223   4.765 125.816  0.00  0.00    +0.308 C 
ATOM     11  O   LIG A   1      -8.982   5.750 125.875  0.00  0.00    -0.251 OA
ATOM     12  C   LIG A   1      -6.744   4.920 125.623  0.00  0.00    +0.135 C 
BRANCH   5  13
ATOM     13  O   LIG A   1      -9.781   2.091 123.862  0.00  0.00    -0.388 OA
ATOM     14  H   LIG A   1      -9.962   1.620 123.025  0.00  0.00    +0.210 HD
ENDBRANCH   5  13
ENDBRANCH   1   2
BRANCH   1  15
ATOM     15  C   LIG A   1      -3.950   3.549 126.589  0.00  0.00    -0.027 C 
ATOM     16  C   LIG A   1      -3.641   4.411 127.580  0.00  0.00    -0.076 C 
ATOM     17  C   LIG A   1      -3.801   5.902 127.527  0.00  0.00    +0.038 C 
BRANCH  16  18
ATOM     18  C   LIG A   1      -3.084   3.879 128.891  0.00  0.00    +0.034 C 
BRANCH  18  19
ATOM     19  C   LIG A   1      -4.039   2.887 129.563  0.00  0.00    +0.031 C 
BRANCH  19  20
ATOM     20  C   LIG A   1      -4.861   3.534 130.642  0.00  0.00    -0.027 C 
ATOM     21  C   LIG A   1      -6.099   4.047 130.503  0.00  0.00    -0.076 C 
ATOM     22  C   LIG A   1      -6.850   3.963 129.195  0.00  0.00    +0.038 C 
BRANCH  21  23
ATOM     23  C   LIG A   1      -6.754   4.715 131.713  0.00  0.00    +0.034 C 
BRANCH  23  24
ATOM     24  C   LIG A   1      -6.203   6.084 132.148  0.00  0.00    +0.031 C 
BRANCH  24  25
ATOM     25  C   LIG A   1      -5.649   7.019 131.093  0.00  0.00    -0.028 C 
ATOM     26  C   LIG A   1      -4.375   7.362 130.808  0.00  0.00    -0.080 C 
ATOM     27  C   LIG A   1      -3.120   6.770 131.390  0.00  0.00    +0.038 C 
ATOM     28  C   LIG A   1      -4.081   8.517 129.885  0.00  0.00    +0.038 C 
ENDBRANCH  24  25
ENDBRANCH  23  24
ENDBRANCH  21  23
ENDBRANCH  19  20
ENDBRANCH  18  19
ENDBRANCH  16  18
ENDBRANCH   1  15
TORSDOF 9
ENDMDL
