MODEL 1
REMARK VINA RESULT:      -8.6      0.000      0.000
REMARK  Name = NuBBE_1147
REMARK  18 active torsions:
REMARK  status: ('A' for Active; 'I' for Inactive)
REMARK    1  A    between atoms: C_1  and  C_2
REMARK    2  A    between atoms: C_6  and  C_28
REMARK    3  A    between atoms: C_7  and  C_8
REMARK    4  A    between atoms: C_9  and  C_11
REMARK    5  A    between atoms: C_11  and  C_13
REMARK    6  A    between atoms: C_11  and  C_14
REMARK    7  A    between atoms: C_14  and  O_15
REMARK    8  A    between atoms: C_14  and  C_16
REMARK    9  A    between atoms: C_16  and  O_17
REMARK   10  A    between atoms: C_16  and  C_18
REMARK   11  A    between atoms: C_18  and  O_19
REMARK   12  A    between atoms: C_18  and  C_20
REMARK   13  A    between atoms: C_20  and  O_21
REMARK   14  A    between atoms: C_20  and  C_22
REMARK   15  A    between atoms: C_20  and  C_23
REMARK   16  A    between atoms: C_33  and  C_34
REMARK   17  A    between atoms: C_33  and  C_40
REMARK   18  A    between atoms: C_35  and  O_39
REMARK                            x       y       z     vdW  Elec       q    Type
REMARK                         _______ _______ _______ _____ _____    ______ ____
ROOT
ATOM      1  C   LIG A   1      -7.259  -2.614 133.413  0.00  0.00    +0.012 C 
ATOM      2  C   LIG A   1      -6.221  -1.923 132.456  0.00  0.00    -0.022 C 
ATOM      3  C   LIG A   1      -6.710  -0.415 132.332  0.00  0.00    +0.021 C 
ATOM      4  C   LIG A   1      -7.665  -0.133 131.176  0.00  0.00    -0.063 C 
ATOM      5  C   LIG A   1      -8.312   1.282 131.132  0.00  0.00    -0.005 C 
ATOM      6  C   LIG A   1      -7.442   2.421 131.815  0.00  0.00    -0.020 C 
ATOM      7  C   LIG A   1      -7.786   2.696 133.288  0.00  0.00    +0.012 C 
ATOM      8  C   LIG A   1      -7.566   3.701 130.902  0.00  0.00    +0.001 C 
ATOM      9  C   LIG A   1      -7.773   3.105 129.503  0.00  0.00    +0.005 C 
ATOM     10  C   LIG A   1      -8.511   1.783 129.670  0.00  0.00    +0.012 C 
ATOM     11  C   LIG A   1      -5.946   1.975 131.756  0.00  0.00    +0.008 C 
ATOM     12  C   LIG A   1      -5.653   0.691 132.528  0.00  0.00    +0.009 C 
ATOM     13  C   LIG A   1      -9.697   1.084 131.797  0.00  0.00    +0.016 C 
ATOM     14  C   LIG A   1      -8.056  -1.110 130.336  0.00  0.00    -0.026 C 
ATOM     15  C   LIG A   1      -7.595  -2.531 130.387  0.00  0.00    +0.031 C 
ATOM     16  C   LIG A   1      -6.241  -2.708 131.092  0.00  0.00    +0.007 C 
ATOM     17  C   LIG A   1      -4.973  -2.547 130.149  0.00  0.00    -0.005 C 
ATOM     18  C   LIG A   1      -5.268  -1.909 128.766  0.00  0.00    +0.014 C 
ATOM     19  C   LIG A   1      -3.868  -1.690 130.804  0.00  0.00    +0.120 C 
ATOM     20  C   LIG A   1      -3.610  -2.017 132.268  0.00  0.00    +0.032 C 
ATOM     21  C   LIG A   1      -4.851  -2.117 133.150  0.00  0.00    +0.010 C 
ATOM     22  C   LIG A   1      -4.431  -3.972 129.848  0.00  0.00    +0.014 C 
ENDROOT
BRANCH   8  23
ATOM     23  C   LIG A   1      -8.556   4.900 131.184  0.00  0.00    +0.021 C 
ATOM     24  C   LIG A   1      -7.875   6.255 131.353  0.00  0.00    +0.010 C 
BRANCH  23  25
ATOM     25  C   LIG A   1      -9.809   4.944 130.237  0.00  0.00    +0.149 C 
BRANCH  25  26
ATOM     26  O   LIG A   1     -10.960   4.696 131.056  0.00  0.00    -0.389 OA
ATOM     27  H   LIG A   1     -10.852   5.218 131.880  0.00  0.00    +0.210 HD
ENDBRANCH  25  26
BRANCH  25  28
ATOM     28  C   LIG A   1      -9.989   6.277 129.421  0.00  0.00    +0.174 C 
BRANCH  28  29
ATOM     29  O   LIG A   1      -9.628   6.066 128.059  0.00  0.00    -0.387 OA
ATOM     30  H   LIG A   1      -8.660   6.171 128.010  0.00  0.00    +0.210 HD
ENDBRANCH  28  29
BRANCH  28  31
ATOM     31  C   LIG A   1     -11.457   6.799 129.480  0.00  0.00    +0.176 C 
BRANCH  31  32
ATOM     32  C   LIG A   1     -11.837   7.941 128.480  0.00  0.00    +0.089 C 
ATOM     33  C   LIG A   1     -12.595   7.478 127.234  0.00  0.00    +0.044 C 
ATOM     34  C   LIG A   1     -12.688   9.008 129.195  0.00  0.00    +0.044 C 
BRANCH  32  35
ATOM     35  O   LIG A   1     -10.616   8.579 128.068  0.00  0.00    -0.387 OA
ATOM     36  H   LIG A   1     -10.753   9.542 128.131  0.00  0.00    +0.210 HD
ENDBRANCH  32  35
ENDBRANCH  31  32
BRANCH  31  37
ATOM     37  O   LIG A   1     -11.701   7.289 130.817  0.00  0.00    -0.386 OA
ATOM     38  H   LIG A   1     -12.299   6.624 131.221  0.00  0.00    +0.210 HD
ENDBRANCH  31  37
ENDBRANCH  28  31
ENDBRANCH  25  28
ENDBRANCH  23  25
ENDBRANCH   8  23
BRANCH  19  39
ATOM     39  O   LIG A   1      -2.631  -1.818 130.097  0.00  0.00    -0.391 OA
ATOM     40  H   LIG A   1      -1.943  -1.393 130.637  0.00  0.00    +0.210 HD
ENDBRANCH  19  39
TORSDOF 10
ENDMDL
MODEL 2
REMARK VINA RESULT:      -8.3      1.404      2.300
REMARK  Name = NuBBE_1147
REMARK  18 active torsions:
REMARK  status: ('A' for Active; 'I' for Inactive)
REMARK    1  A    between atoms: C_1  and  C_2
REMARK    2  A    between atoms: C_6  and  C_28
REMARK    3  A    between atoms: C_7  and  C_8
REMARK    4  A    between atoms: C_9  and  C_11
REMARK    5  A    between atoms: C_11  and  C_13
REMARK    6  A    between atoms: C_11  and  C_14
REMARK    7  A    between atoms: C_14  and  O_15
REMARK    8  A    between atoms: C_14  and  C_16
REMARK    9  A    between atoms: C_16  and  O_17
REMARK   10  A    between atoms: C_16  and  C_18
REMARK   11  A    between atoms: C_18  and  O_19
REMARK   12  A    between atoms: C_18  and  C_20
REMARK   13  A    between atoms: C_20  and  O_21
REMARK   14  A    between atoms: C_20  and  C_22
REMARK   15  A    between atoms: C_20  and  C_23
REMARK   16  A    between atoms: C_33  and  C_34
REMARK   17  A    between atoms: C_33  and  C_40
REMARK   18  A    between atoms: C_35  and  O_39
REMARK                            x       y       z     vdW  Elec       q    Type
REMARK                         _______ _______ _______ _____ _____    ______ ____
ROOT
ATOM      1  C   LIG A   1      -8.247  -2.701 129.172  0.00  0.00    +0.012 C 
ATOM      2  C   LIG A   1      -7.242  -2.165 130.256  0.00  0.00    -0.022 C 
ATOM      3  C   LIG A   1      -7.806  -0.739 130.678  0.00  0.00    +0.021 C 
ATOM      4  C   LIG A   1      -7.262   0.439 129.876  0.00  0.00    -0.063 C 
ATOM      5  C   LIG A   1      -7.926   1.824 130.129  0.00  0.00    -0.005 C 
ATOM      6  C   LIG A   1      -8.550   1.995 131.579  0.00  0.00    -0.020 C 
ATOM      7  C   LIG A   1     -10.045   1.655 131.679  0.00  0.00    +0.012 C 
ATOM      8  C   LIG A   1      -8.218   3.463 132.050  0.00  0.00    +0.001 C 
ATOM      9  C   LIG A   1      -6.894   3.762 131.332  0.00  0.00    +0.005 C 
ATOM     10  C   LIG A   1      -6.896   2.989 130.020  0.00  0.00    +0.012 C 
ATOM     11  C   LIG A   1      -7.782   1.034 132.543  0.00  0.00    +0.008 C 
ATOM     12  C   LIG A   1      -7.926  -0.443 132.186  0.00  0.00    +0.009 C 
ATOM     13  C   LIG A   1      -8.968   1.956 128.991  0.00  0.00    +0.016 C 
ATOM     14  C   LIG A   1      -6.370   0.259 128.883  0.00  0.00    -0.026 C 
ATOM     15  C   LIG A   1      -5.781  -1.053 128.477  0.00  0.00    +0.031 C 
ATOM     16  C   LIG A   1      -5.817  -2.110 129.593  0.00  0.00    +0.007 C 
ATOM     17  C   LIG A   1      -4.565  -2.087 130.571  0.00  0.00    -0.005 C 
ATOM     18  C   LIG A   1      -3.686  -0.813 130.471  0.00  0.00    +0.014 C 
ATOM     19  C   LIG A   1      -4.986  -2.220 132.051  0.00  0.00    +0.120 C 
ATOM     20  C   LIG A   1      -6.049  -3.278 132.305  0.00  0.00    +0.032 C 
ATOM     21  C   LIG A   1      -7.257  -3.236 131.373  0.00  0.00    +0.010 C 
ATOM     22  C   LIG A   1      -3.640  -3.270 130.173  0.00  0.00    +0.014 C 
ENDROOT
BRANCH   8  23
ATOM     23  C   LIG A   1      -9.225   4.677 131.953  0.00  0.00    +0.021 C 
ATOM     24  C   LIG A   1      -9.025   5.751 133.017  0.00  0.00    +0.010 C 
BRANCH  23  25
ATOM     25  C   LIG A   1      -9.406   5.257 130.504  0.00  0.00    +0.149 C 
BRANCH  25  26
ATOM     26  O   LIG A   1     -10.598   4.670 129.965  0.00  0.00    -0.389 OA
ATOM     27  H   LIG A   1     -11.146   5.399 129.600  0.00  0.00    +0.210 HD
ENDBRANCH  25  26
BRANCH  25  28
ATOM     28  C   LIG A   1      -9.473   6.826 130.412  0.00  0.00    +0.174 C 
BRANCH  28  29
ATOM     29  O   LIG A   1      -8.158   7.373 130.458  0.00  0.00    -0.387 OA
ATOM     30  H   LIG A   1      -8.022   7.688 131.370  0.00  0.00    +0.210 HD
ENDBRANCH  28  29
BRANCH  28  31
ATOM     31  C   LIG A   1     -10.172   7.301 129.101  0.00  0.00    +0.176 C 
BRANCH  31  32
ATOM     32  C   LIG A   1     -11.730   7.438 129.147  0.00  0.00    +0.089 C 
ATOM     33  C   LIG A   1     -12.323   7.566 130.552  0.00  0.00    +0.044 C 
ATOM     34  C   LIG A   1     -12.178   8.658 128.320  0.00  0.00    +0.044 C 
BRANCH  32  35
ATOM     35  O   LIG A   1     -12.286   6.271 128.516  0.00  0.00    -0.387 OA
ATOM     36  H   LIG A   1     -11.544   5.748 128.162  0.00  0.00    +0.210 HD
ENDBRANCH  32  35
ENDBRANCH  31  32
BRANCH  31  37
ATOM     37  O   LIG A   1      -9.846   6.358 128.057  0.00  0.00    -0.386 OA
ATOM     38  H   LIG A   1      -9.558   6.913 127.301  0.00  0.00    +0.210 HD
ENDBRANCH  31  37
ENDBRANCH  28  31
ENDBRANCH  25  28
ENDBRANCH  23  25
ENDBRANCH   8  23
BRANCH  19  39
ATOM     39  O   LIG A   1      -3.858  -2.517 132.880  0.00  0.00    -0.391 OA
ATOM     40  H   LIG A   1      -3.979  -3.419 133.222  0.00  0.00    +0.210 HD
ENDBRANCH  19  39
TORSDOF 10
ENDMDL
MODEL 3
REMARK VINA RESULT:      -7.9      5.764     10.050
REMARK  Name = NuBBE_1147
REMARK  18 active torsions:
REMARK  status: ('A' for Active; 'I' for Inactive)
REMARK    1  A    between atoms: C_1  and  C_2
REMARK    2  A    between atoms: C_6  and  C_28
REMARK    3  A    between atoms: C_7  and  C_8
REMARK    4  A    between atoms: C_9  and  C_11
REMARK    5  A    between atoms: C_11  and  C_13
REMARK    6  A    between atoms: C_11  and  C_14
REMARK    7  A    between atoms: C_14  and  O_15
REMARK    8  A    between atoms: C_14  and  C_16
REMARK    9  A    between atoms: C_16  and  O_17
REMARK   10  A    between atoms: C_16  and  C_18
REMARK   11  A    between atoms: C_18  and  O_19
REMARK   12  A    between atoms: C_18  and  C_20
REMARK   13  A    between atoms: C_20  and  O_21
REMARK   14  A    between atoms: C_20  and  C_22
REMARK   15  A    between atoms: C_20  and  C_23
REMARK   16  A    between atoms: C_33  and  C_34
REMARK   17  A    between atoms: C_33  and  C_40
REMARK   18  A    between atoms: C_35  and  O_39
REMARK                            x       y       z     vdW  Elec       q    Type
REMARK                         _______ _______ _______ _____ _____    ______ ____
ROOT
ATOM      1  C   LIG A   1      -8.249   0.731 126.904  0.00  0.00    +0.012 C 
ATOM      2  C   LIG A   1      -7.981  -0.785 126.588  0.00  0.00    -0.022 C 
ATOM      3  C   LIG A   1      -7.510  -1.420 127.968  0.00  0.00    +0.021 C 
ATOM      4  C   LIG A   1      -6.004  -1.409 128.208  0.00  0.00    -0.063 C 
ATOM      5  C   LIG A   1      -5.517  -1.846 129.621  0.00  0.00    -0.005 C 
ATOM      6  C   LIG A   1      -6.491  -2.857 130.364  0.00  0.00    -0.020 C 
ATOM      7  C   LIG A   1      -7.506  -2.192 131.307  0.00  0.00    +0.012 C 
ATOM      8  C   LIG A   1      -5.580  -3.921 131.088  0.00  0.00    +0.001 C 
ATOM      9  C   LIG A   1      -4.341  -3.984 130.184  0.00  0.00    +0.005 C 
ATOM     10  C   LIG A   1      -4.159  -2.609 129.555  0.00  0.00    +0.012 C 
ATOM     11  C   LIG A   1      -7.297  -3.629 129.272  0.00  0.00    +0.008 C 
ATOM     12  C   LIG A   1      -8.184  -2.735 128.410  0.00  0.00    +0.009 C 
ATOM     13  C   LIG A   1      -5.317  -0.512 130.382  0.00  0.00    +0.016 C 
ATOM     14  C   LIG A   1      -5.153  -0.887 127.303  0.00  0.00    -0.026 C 
ATOM     15  C   LIG A   1      -5.543  -0.317 125.978  0.00  0.00    +0.031 C 
ATOM     16  C   LIG A   1      -6.889  -0.847 125.458  0.00  0.00    +0.007 C 
ATOM     17  C   LIG A   1      -6.794  -2.192 124.618  0.00  0.00    -0.005 C 
ATOM     18  C   LIG A   1      -5.440  -2.939 124.737  0.00  0.00    +0.014 C 
ATOM     19  C   LIG A   1      -7.893  -3.202 125.016  0.00  0.00    +0.120 C 
ATOM     20  C   LIG A   1      -9.273  -2.585 125.190  0.00  0.00    +0.032 C 
ATOM     21  C   LIG A   1      -9.328  -1.320 126.043  0.00  0.00    +0.010 C 
ATOM     22  C   LIG A   1      -6.937  -1.816 123.117  0.00  0.00    +0.014 C 
ENDROOT
BRANCH   8  23
ATOM     23  C   LIG A   1      -5.188  -3.862 132.618  0.00  0.00    +0.021 C 
ATOM     24  C   LIG A   1      -5.480  -5.143 133.395  0.00  0.00    +0.010 C 
BRANCH  23  25
ATOM     25  C   LIG A   1      -3.761  -3.270 132.901  0.00  0.00    +0.149 C 
BRANCH  25  26
ATOM     26  O   LIG A   1      -3.951  -1.921 133.352  0.00  0.00    -0.389 OA
ATOM     27  H   LIG A   1      -4.808  -1.608 132.992  0.00  0.00    +0.210 HD
ENDBRANCH  25  26
BRANCH  25  28
ATOM     28  C   LIG A   1      -2.890  -4.078 133.930  0.00  0.00    +0.174 C 
BRANCH  28  29
ATOM     29  O   LIG A   1      -2.045  -4.993 133.240  0.00  0.00    -0.387 OA
ATOM     30  H   LIG A   1      -1.845  -4.588 132.377  0.00  0.00    +0.210 HD
ENDBRANCH  28  29
BRANCH  28  31
ATOM     31  C   LIG A   1      -2.007  -3.138 134.808  0.00  0.00    +0.176 C 
BRANCH  31  32
ATOM     32  C   LIG A   1      -0.766  -3.788 135.505  0.00  0.00    +0.089 C 
ATOM     33  C   LIG A   1      -0.082  -2.907 136.552  0.00  0.00    +0.044 C 
ATOM     34  C   LIG A   1      -1.173  -5.113 136.179  0.00  0.00    +0.044 C 
BRANCH  32  35
ATOM     35  O   LIG A   1       0.187  -4.111 134.478  0.00  0.00    -0.387 OA
ATOM     36  H   LIG A   1      -0.237  -4.748 133.874  0.00  0.00    +0.210 HD
ENDBRANCH  32  35
ENDBRANCH  31  32
BRANCH  31  37
ATOM     37  O   LIG A   1      -2.846  -2.578 135.842  0.00  0.00    -0.386 OA
ATOM     38  H   LIG A   1      -3.711  -2.423 135.405  0.00  0.00    +0.210 HD
ENDBRANCH  31  37
ENDBRANCH  28  31
ENDBRANCH  25  28
ENDBRANCH  23  25
ENDBRANCH   8  23
BRANCH  19  39
ATOM     39  O   LIG A   1      -7.996  -4.254 124.052  0.00  0.00    -0.391 OA
ATOM     40  H   LIG A   1      -7.900  -5.096 124.530  0.00  0.00    +0.210 HD
ENDBRANCH  19  39
TORSDOF 10
ENDMDL
MODEL 4
REMARK VINA RESULT:      -7.6      5.076      8.259
REMARK  Name = NuBBE_1147
REMARK  18 active torsions:
REMARK  status: ('A' for Active; 'I' for Inactive)
REMARK    1  A    between atoms: C_1  and  C_2
REMARK    2  A    between atoms: C_6  and  C_28
REMARK    3  A    between atoms: C_7  and  C_8
REMARK    4  A    between atoms: C_9  and  C_11
REMARK    5  A    between atoms: C_11  and  C_13
REMARK    6  A    between atoms: C_11  and  C_14
REMARK    7  A    between atoms: C_14  and  O_15
REMARK    8  A    between atoms: C_14  and  C_16
REMARK    9  A    between atoms: C_16  and  O_17
REMARK   10  A    between atoms: C_16  and  C_18
REMARK   11  A    between atoms: C_18  and  O_19
REMARK   12  A    between atoms: C_18  and  C_20
REMARK   13  A    between atoms: C_20  and  O_21
REMARK   14  A    between atoms: C_20  and  C_22
REMARK   15  A    between atoms: C_20  and  C_23
REMARK   16  A    between atoms: C_33  and  C_34
REMARK   17  A    between atoms: C_33  and  C_40
REMARK   18  A    between atoms: C_35  and  O_39
REMARK                            x       y       z     vdW  Elec       q    Type
REMARK                         _______ _______ _______ _____ _____    ______ ____
ROOT
ATOM      1  C   LIG A   1      -4.172   2.022 130.388  0.00  0.00    +0.012 C 
ATOM      2  C   LIG A   1      -4.602   3.448 129.885  0.00  0.00    -0.022 C 
ATOM      3  C   LIG A   1      -5.666   3.179 128.734  0.00  0.00    +0.021 C 
ATOM      4  C   LIG A   1      -5.089   3.073 127.326  0.00  0.00    -0.063 C 
ATOM      5  C   LIG A   1      -6.067   2.625 126.201  0.00  0.00    -0.005 C 
ATOM      6  C   LIG A   1      -7.589   2.989 126.473  0.00  0.00    -0.020 C 
ATOM      7  C   LIG A   1      -8.405   1.872 127.142  0.00  0.00    +0.012 C 
ATOM      8  C   LIG A   1      -8.199   3.462 125.099  0.00  0.00    +0.001 C 
ATOM      9  C   LIG A   1      -6.989   4.074 124.379  0.00  0.00    +0.005 C 
ATOM     10  C   LIG A   1      -5.748   3.323 124.844  0.00  0.00    +0.012 C 
ATOM     11  C   LIG A   1      -7.617   4.228 127.424  0.00  0.00    +0.008 C 
ATOM     12  C   LIG A   1      -6.987   3.973 128.790  0.00  0.00    +0.009 C 
ATOM     13  C   LIG A   1      -5.813   1.103 126.064  0.00  0.00    +0.016 C 
ATOM     14  C   LIG A   1      -3.767   3.198 127.099  0.00  0.00    -0.026 C 
ATOM     15  C   LIG A   1      -2.735   3.491 128.139  0.00  0.00    +0.031 C 
ATOM     16  C   LIG A   1      -3.305   4.185 129.387  0.00  0.00    +0.007 C 
ATOM     17  C   LIG A   1      -3.364   5.770 129.297  0.00  0.00    -0.005 C 
ATOM     18  C   LIG A   1      -3.169   6.348 127.871  0.00  0.00    +0.014 C 
ATOM     19  C   LIG A   1      -4.705   6.329 129.822  0.00  0.00    +0.120 C 
ATOM     20  C   LIG A   1      -5.186   5.686 131.114  0.00  0.00    +0.032 C 
ATOM     21  C   LIG A   1      -5.157   4.161 131.142  0.00  0.00    +0.010 C 
ATOM     22  C   LIG A   1      -2.188   6.329 130.143  0.00  0.00    +0.014 C 
ENDROOT
BRANCH   8  23
ATOM     23  C   LIG A   1      -9.049   2.538 124.138  0.00  0.00    +0.021 C 
ATOM     24  C   LIG A   1      -8.655   2.624 122.666  0.00  0.00    +0.010 C 
BRANCH  23  25
ATOM     25  C   LIG A   1      -9.234   1.065 124.651  0.00  0.00    +0.149 C 
BRANCH  25  26
ATOM     26  O   LIG A   1     -10.646   0.825 124.730  0.00  0.00    -0.389 OA
ATOM     27  H   LIG A   1     -11.095   1.698 124.713  0.00  0.00    +0.210 HD
ENDBRANCH  25  26
BRANCH  25  28
ATOM     28  C   LIG A   1      -8.535  -0.043 123.781  0.00  0.00    +0.174 C 
BRANCH  28  29
ATOM     29  O   LIG A   1      -7.246   0.403 123.369  0.00  0.00    -0.387 OA
ATOM     30  H   LIG A   1      -7.156   0.159 122.431  0.00  0.00    +0.210 HD
ENDBRANCH  28  29
BRANCH  28  31
ATOM     31  C   LIG A   1      -8.381  -1.384 124.563  0.00  0.00    +0.176 C 
BRANCH  31  32
ATOM     32  C   LIG A   1      -8.191  -2.678 123.706  0.00  0.00    +0.089 C 
ATOM     33  C   LIG A   1      -7.240  -3.715 124.309  0.00  0.00    +0.044 C 
ATOM     34  C   LIG A   1      -9.553  -3.356 123.462  0.00  0.00    +0.044 C 
BRANCH  32  35
ATOM     35  O   LIG A   1      -7.681  -2.277 122.422  0.00  0.00    -0.387 OA
ATOM     36  H   LIG A   1      -8.374  -2.462 121.761  0.00  0.00    +0.210 HD
ENDBRANCH  32  35
ENDBRANCH  31  32
BRANCH  31  37
ATOM     37  O   LIG A   1      -9.563  -1.564 125.373  0.00  0.00    -0.386 OA
ATOM     38  H   LIG A   1     -10.033  -0.704 125.324  0.00  0.00    +0.210 HD
ENDBRANCH  31  37
ENDBRANCH  28  31
ENDBRANCH  25  28
ENDBRANCH  23  25
ENDBRANCH   8  23
BRANCH  19  39
ATOM     39  O   LIG A   1      -4.623   7.742 130.033  0.00  0.00    -0.391 OA
ATOM     40  H   LIG A   1      -4.750   8.172 129.170  0.00  0.00    +0.210 HD
ENDBRANCH  19  39
TORSDOF 10
ENDMDL
MODEL 5
REMARK VINA RESULT:      -7.5      4.846      8.445
REMARK  Name = NuBBE_1147
REMARK  18 active torsions:
REMARK  status: ('A' for Active; 'I' for Inactive)
REMARK    1  A    between atoms: C_1  and  C_2
REMARK    2  A    between atoms: C_6  and  C_28
REMARK    3  A    between atoms: C_7  and  C_8
REMARK    4  A    between atoms: C_9  and  C_11
REMARK    5  A    between atoms: C_11  and  C_13
REMARK    6  A    between atoms: C_11  and  C_14
REMARK    7  A    between atoms: C_14  and  O_15
REMARK    8  A    between atoms: C_14  and  C_16
REMARK    9  A    between atoms: C_16  and  O_17
REMARK   10  A    between atoms: C_16  and  C_18
REMARK   11  A    between atoms: C_18  and  O_19
REMARK   12  A    between atoms: C_18  and  C_20
REMARK   13  A    between atoms: C_20  and  O_21
REMARK   14  A    between atoms: C_20  and  C_22
REMARK   15  A    between atoms: C_20  and  C_23
REMARK   16  A    between atoms: C_33  and  C_34
REMARK   17  A    between atoms: C_33  and  C_40
REMARK   18  A    between atoms: C_35  and  O_39
REMARK                            x       y       z     vdW  Elec       q    Type
REMARK                         _______ _______ _______ _____ _____    ______ ____
ROOT
ATOM      1  C   LIG A   1      -3.768   7.767 129.248  0.00  0.00    +0.012 C 
ATOM      2  C   LIG A   1      -3.552   6.506 130.161  0.00  0.00    -0.022 C 
ATOM      3  C   LIG A   1      -3.990   5.266 129.266  0.00  0.00    +0.021 C 
ATOM      4  C   LIG A   1      -5.455   4.860 129.391  0.00  0.00    -0.063 C 
ATOM      5  C   LIG A   1      -5.968   3.777 128.397  0.00  0.00    -0.005 C 
ATOM      6  C   LIG A   1      -4.846   2.776 127.884  0.00  0.00    -0.020 C 
ATOM      7  C   LIG A   1      -4.187   3.178 126.555  0.00  0.00    +0.012 C 
ATOM      8  C   LIG A   1      -5.499   1.341 127.840  0.00  0.00    +0.001 C 
ATOM      9  C   LIG A   1      -6.547   1.407 128.960  0.00  0.00    +0.005 C 
ATOM     10  C   LIG A   1      -7.034   2.847 129.052  0.00  0.00    +0.012 C 
ATOM     11  C   LIG A   1      -3.725   2.723 128.970  0.00  0.00    +0.008 C 
ATOM     12  C   LIG A   1      -3.030   4.061 129.206  0.00  0.00    +0.009 C 
ATOM     13  C   LIG A   1      -6.632   4.592 127.260  0.00  0.00    +0.016 C 
ATOM     14  C   LIG A   1      -6.300   5.522 130.204  0.00  0.00    -0.026 C 
ATOM     15  C   LIG A   1      -5.928   6.665 131.092  0.00  0.00    +0.031 C 
ATOM     16  C   LIG A   1      -4.433   6.698 131.449  0.00  0.00    +0.007 C 
ATOM     17  C   LIG A   1      -4.036   5.845 132.729  0.00  0.00    -0.005 C 
ATOM     18  C   LIG A   1      -5.126   4.852 133.212  0.00  0.00    +0.014 C 
ATOM     19  C   LIG A   1      -2.753   5.017 132.498  0.00  0.00    +0.120 C 
ATOM     20  C   LIG A   1      -1.639   5.777 131.794  0.00  0.00    +0.032 C 
ATOM     21  C   LIG A   1      -2.052   6.545 130.543  0.00  0.00    +0.010 C 
ATOM     22  C   LIG A   1      -3.822   6.838 133.905  0.00  0.00    +0.014 C 
ENDROOT
BRANCH   8  23
ATOM     23  C   LIG A   1      -6.078   0.668 126.533  0.00  0.00    +0.021 C 
ATOM     24  C   LIG A   1      -5.138  -0.335 125.870  0.00  0.00    +0.010 C 
BRANCH  23  25
ATOM     25  C   LIG A   1      -7.553   0.147 126.669  0.00  0.00    +0.149 C 
BRANCH  25  26
ATOM     26  O   LIG A   1      -8.373   0.999 125.858  0.00  0.00    -0.389 OA
ATOM     27  H   LIG A   1      -9.243   1.084 126.305  0.00  0.00    +0.210 HD
ENDBRANCH  25  26
BRANCH  25  28
ATOM     28  C   LIG A   1      -7.772  -1.362 126.280  0.00  0.00    +0.174 C 
BRANCH  28  29
ATOM     29  O   LIG A   1      -8.442  -2.044 127.335  0.00  0.00    -0.387 OA
ATOM     30  H   LIG A   1      -8.503  -2.978 127.065  0.00  0.00    +0.210 HD
ENDBRANCH  28  29
BRANCH  28  31
ATOM     31  C   LIG A   1      -8.609  -1.508 124.971  0.00  0.00    +0.176 C 
BRANCH  31  32
ATOM     32  C   LIG A   1      -9.134  -2.941 124.630  0.00  0.00    +0.089 C 
ATOM     33  C   LIG A   1      -9.688  -3.103 123.213  0.00  0.00    +0.044 C 
ATOM     34  C   LIG A   1      -8.012  -3.977 124.832  0.00  0.00    +0.044 C 
BRANCH  32  35
ATOM     35  O   LIG A   1     -10.175  -3.256 125.571  0.00  0.00    -0.387 OA
ATOM     36  H   LIG A   1      -9.750  -3.633 126.363  0.00  0.00    +0.210 HD
ENDBRANCH  32  35
ENDBRANCH  31  32
BRANCH  31  37
ATOM     37  O   LIG A   1      -7.787  -1.068 123.867  0.00  0.00    -0.386 OA
ATOM     38  H   LIG A   1      -8.422  -0.707 123.212  0.00  0.00    +0.210 HD
ENDBRANCH  31  37
ENDBRANCH  28  31
ENDBRANCH  25  28
ENDBRANCH  23  25
ENDBRANCH   8  23
BRANCH  19  39
ATOM     39  O   LIG A   1      -2.237   4.515 133.734  0.00  0.00    -0.391 OA
ATOM     40  H   LIG A   1      -1.301   4.777 133.785  0.00  0.00    +0.210 HD
ENDBRANCH  19  39
TORSDOF 10
ENDMDL
MODEL 6
REMARK VINA RESULT:      -7.2      4.389      7.923
REMARK  Name = NuBBE_1147
REMARK  18 active torsions:
REMARK  status: ('A' for Active; 'I' for Inactive)
REMARK    1  A    between atoms: C_1  and  C_2
REMARK    2  A    between atoms: C_6  and  C_28
REMARK    3  A    between atoms: C_7  and  C_8
REMARK    4  A    between atoms: C_9  and  C_11
REMARK    5  A    between atoms: C_11  and  C_13
REMARK    6  A    between atoms: C_11  and  C_14
REMARK    7  A    between atoms: C_14  and  O_15
REMARK    8  A    between atoms: C_14  and  C_16
REMARK    9  A    between atoms: C_16  and  O_17
REMARK   10  A    between atoms: C_16  and  C_18
REMARK   11  A    between atoms: C_18  and  O_19
REMARK   12  A    between atoms: C_18  and  C_20
REMARK   13  A    between atoms: C_20  and  O_21
REMARK   14  A    between atoms: C_20  and  C_22
REMARK   15  A    between atoms: C_20  and  C_23
REMARK   16  A    between atoms: C_33  and  C_34
REMARK   17  A    between atoms: C_33  and  C_40
REMARK   18  A    between atoms: C_35  and  O_39
REMARK                            x       y       z     vdW  Elec       q    Type
REMARK                         _______ _______ _______ _____ _____    ______ ____
ROOT
ATOM      1  C   LIG A   1      -6.384   7.223 131.073  0.00  0.00    +0.012 C 
ATOM      2  C   LIG A   1      -6.261   5.830 131.789  0.00  0.00    -0.022 C 
ATOM      3  C   LIG A   1      -6.176   4.764 130.612  0.00  0.00    +0.021 C 
ATOM      4  C   LIG A   1      -7.514   4.189 130.157  0.00  0.00    -0.063 C 
ATOM      5  C   LIG A   1      -7.495   3.289 128.887  0.00  0.00    -0.005 C 
ATOM      6  C   LIG A   1      -6.117   2.540 128.639  0.00  0.00    -0.020 C 
ATOM      7  C   LIG A   1      -5.146   3.275 127.701  0.00  0.00    +0.012 C 
ATOM      8  C   LIG A   1      -6.470   1.085 128.144  0.00  0.00    +0.001 C 
ATOM      9  C   LIG A   1      -7.816   0.807 128.829  0.00  0.00    +0.005 C 
ATOM     10  C   LIG A   1      -8.541   2.137 128.977  0.00  0.00    +0.012 C 
ATOM     11  C   LIG A   1      -5.407   2.379 130.021  0.00  0.00    +0.008 C 
ATOM     12  C   LIG A   1      -5.059   3.704 130.694  0.00  0.00    +0.009 C 
ATOM     13  C   LIG A   1      -7.889   4.249 127.738  0.00  0.00    +0.016 C 
ATOM     14  C   LIG A   1      -8.673   4.577 130.725  0.00  0.00    -0.026 C 
ATOM     15  C   LIG A   1      -8.800   5.543 131.858  0.00  0.00    +0.031 C 
ATOM     16  C   LIG A   1      -7.525   5.657 132.709  0.00  0.00    +0.007 C 
ATOM     17  C   LIG A   1      -7.419   4.603 133.892  0.00  0.00    -0.005 C 
ATOM     18  C   LIG A   1      -8.421   3.423 133.804  0.00  0.00    +0.014 C 
ATOM     19  C   LIG A   1      -6.009   3.980 133.987  0.00  0.00    +0.120 C 
ATOM     20  C   LIG A   1      -4.873   4.981 133.842  0.00  0.00    +0.032 C 
ATOM     21  C   LIG A   1      -4.989   5.945 132.665  0.00  0.00    +0.010 C 
ATOM     22  C   LIG A   1      -7.759   5.348 135.213  0.00  0.00    +0.014 C 
ENDROOT
BRANCH   8  23
ATOM     23  C   LIG A   1      -6.481   0.640 126.627  0.00  0.00    +0.021 C 
ATOM     24  C   LIG A   1      -5.185  -0.008 126.149  0.00  0.00    +0.010 C 
BRANCH  23  25
ATOM     25  C   LIG A   1      -7.770  -0.142 126.188  0.00  0.00    +0.149 C 
BRANCH  25  26
ATOM     26  O   LIG A   1      -8.343   0.579 125.088  0.00  0.00    -0.389 OA
ATOM     27  H   LIG A   1      -8.443   1.514 125.369  0.00  0.00    +0.210 HD
ENDBRANCH  25  26
BRANCH  25  28
ATOM     28  C   LIG A   1      -7.542  -1.650 125.800  0.00  0.00    +0.174 C 
BRANCH  28  29
ATOM     29  O   LIG A   1      -7.174  -2.399 126.954  0.00  0.00    -0.387 OA
ATOM     30  H   LIG A   1      -6.381  -2.910 126.710  0.00  0.00    +0.210 HD
ENDBRANCH  28  29
BRANCH  28  31
ATOM     31  C   LIG A   1      -8.820  -2.286 125.170  0.00  0.00    +0.176 C 
BRANCH  31  32
ATOM     32  C   LIG A   1      -8.936  -2.229 123.611  0.00  0.00    +0.089 C 
ATOM     33  C   LIG A   1      -7.600  -2.152 122.869  0.00  0.00    +0.044 C 
ATOM     34  C   LIG A   1      -9.706  -3.459 123.093  0.00  0.00    +0.044 C 
BRANCH  32  35
ATOM     35  O   LIG A   1      -9.718  -1.069 123.277  0.00  0.00    -0.387 OA
ATOM     36  H   LIG A   1     -10.508  -1.075 123.847  0.00  0.00    +0.210 HD
ENDBRANCH  32  35
ENDBRANCH  31  32
BRANCH  31  37
ATOM     37  O   LIG A   1      -9.971  -1.610 125.720  0.00  0.00    -0.386 OA
ATOM     38  H   LIG A   1     -10.486  -2.316 126.165  0.00  0.00    +0.210 HD
ENDBRANCH  31  37
ENDBRANCH  28  31
ENDBRANCH  25  28
ENDBRANCH  23  25
ENDBRANCH   8  23
BRANCH  19  39
ATOM     39  O   LIG A   1      -5.836   3.289 135.228  0.00  0.00    -0.391 OA
ATOM     40  H   LIG A   1      -6.426   2.516 135.215  0.00  0.00    +0.210 HD
ENDBRANCH  19  39
TORSDOF 10
ENDMDL
MODEL 7
REMARK VINA RESULT:      -6.9      7.351     11.282
REMARK  Name = NuBBE_1147
REMARK  18 active torsions:
REMARK  status: ('A' for Active; 'I' for Inactive)
REMARK    1  A    between atoms: C_1  and  C_2
REMARK    2  A    between atoms: C_6  and  C_28
REMARK    3  A    between atoms: C_7  and  C_8
REMARK    4  A    between atoms: C_9  and  C_11
REMARK    5  A    between atoms: C_11  and  C_13
REMARK    6  A    between atoms: C_11  and  C_14
REMARK    7  A    between atoms: C_14  and  O_15
REMARK    8  A    between atoms: C_14  and  C_16
REMARK    9  A    between atoms: C_16  and  O_17
REMARK   10  A    between atoms: C_16  and  C_18
REMARK   11  A    between atoms: C_18  and  O_19
REMARK   12  A    between atoms: C_18  and  C_20
REMARK   13  A    between atoms: C_20  and  O_21
REMARK   14  A    between atoms: C_20  and  C_22
REMARK   15  A    between atoms: C_20  and  C_23
REMARK   16  A    between atoms: C_33  and  C_34
REMARK   17  A    between atoms: C_33  and  C_40
REMARK   18  A    between atoms: C_35  and  O_39
REMARK                            x       y       z     vdW  Elec       q    Type
REMARK                         _______ _______ _______ _____ _____    ______ ____
ROOT
ATOM      1  C   LIG A   1      -2.044  10.985 135.844  0.00  0.00    +0.012 C 
ATOM      2  C   LIG A   1      -1.581  11.151 134.351  0.00  0.00    -0.022 C 
ATOM      3  C   LIG A   1      -2.067   9.827 133.615  0.00  0.00    +0.021 C 
ATOM      4  C   LIG A   1      -1.054   8.686 133.594  0.00  0.00    -0.063 C 
ATOM      5  C   LIG A   1      -1.556   7.316 133.052  0.00  0.00    -0.005 C 
ATOM      6  C   LIG A   1      -2.743   7.422 132.003  0.00  0.00    -0.020 C 
ATOM      7  C   LIG A   1      -4.149   7.298 132.609  0.00  0.00    +0.012 C 
ATOM      8  C   LIG A   1      -2.457   6.352 130.880  0.00  0.00    +0.001 C 
ATOM      9  C   LIG A   1      -0.924   6.268 130.868  0.00  0.00    +0.005 C 
ATOM     10  C   LIG A   1      -0.436   6.552 132.282  0.00  0.00    +0.012 C 
ATOM     11  C   LIG A   1      -2.646   8.823 131.317  0.00  0.00    +0.008 C 
ATOM     12  C   LIG A   1      -2.819   9.994 132.280  0.00  0.00    +0.009 C 
ATOM     13  C   LIG A   1      -1.932   6.521 134.327  0.00  0.00    +0.016 C 
ATOM     14  C   LIG A   1       0.157   8.813 134.169  0.00  0.00    -0.026 C 
ATOM     15  C   LIG A   1       0.674  10.047 134.836  0.00  0.00    +0.031 C 
ATOM     16  C   LIG A   1      -0.019  11.334 134.358  0.00  0.00    +0.007 C 
ATOM     17  C   LIG A   1       0.636  12.004 133.075  0.00  0.00    -0.005 C 
ATOM     18  C   LIG A   1       1.635  11.099 132.307  0.00  0.00    +0.014 C 
ATOM     19  C   LIG A   1      -0.429  12.456 132.051  0.00  0.00    +0.120 C 
ATOM     20  C   LIG A   1      -1.629  13.158 132.669  0.00  0.00    +0.032 C 
ATOM     21  C   LIG A   1      -2.258  12.458 133.870  0.00  0.00    +0.010 C 
ATOM     22  C   LIG A   1       1.461  13.228 133.557  0.00  0.00    +0.014 C 
ENDROOT
BRANCH   8  23
ATOM     23  C   LIG A   1      -3.125   4.920 130.827  0.00  0.00    +0.021 C 
ATOM     24  C   LIG A   1      -3.032   4.131 132.130  0.00  0.00    +0.010 C 
BRANCH  23  25
ATOM     25  C   LIG A   1      -4.557   4.895 130.181  0.00  0.00    +0.149 C 
BRANCH  25  26
ATOM     26  O   LIG A   1      -4.672   6.076 129.375  0.00  0.00    -0.389 OA
ATOM     27  H   LIG A   1      -4.510   6.848 129.959  0.00  0.00    +0.210 HD
ENDBRANCH  25  26
BRANCH  25  28
ATOM     28  C   LIG A   1      -4.888   3.613 129.332  0.00  0.00    +0.174 C 
BRANCH  28  29
ATOM     29  O   LIG A   1      -5.790   3.946 128.281  0.00  0.00    -0.387 OA
ATOM     30  H   LIG A   1      -5.544   4.837 127.977  0.00  0.00    +0.210 HD
ENDBRANCH  28  29
BRANCH  28  31
ATOM     31  C   LIG A   1      -3.604   2.978 128.714  0.00  0.00    +0.176 C 
BRANCH  31  32
ATOM     32  C   LIG A   1      -3.261   3.380 127.242  0.00  0.00    +0.089 C 
ATOM     33  C   LIG A   1      -1.816   3.102 126.820  0.00  0.00    +0.044 C 
ATOM     34  C   LIG A   1      -4.199   2.650 126.262  0.00  0.00    +0.044 C 
BRANCH  32  35
ATOM     35  O   LIG A   1      -3.519   4.788 127.106  0.00  0.00    -0.387 OA
ATOM     36  H   LIG A   1      -3.601   5.158 128.004  0.00  0.00    +0.210 HD
ENDBRANCH  32  35
ENDBRANCH  31  32
BRANCH  31  37
ATOM     37  O   LIG A   1      -3.757   1.542 128.752  0.00  0.00    -0.386 OA
ATOM     38  H   LIG A   1      -2.970   1.220 129.242  0.00  0.00    +0.210 HD
ENDBRANCH  31  37
ENDBRANCH  28  31
ENDBRANCH  25  28
ENDBRANCH  23  25
ENDBRANCH   8  23
BRANCH  19  39
ATOM     39  O   LIG A   1       0.140  13.329 131.071  0.00  0.00    -0.391 OA
ATOM     40  H   LIG A   1       0.791  12.811 130.565  0.00  0.00    +0.210 HD
ENDBRANCH  19  39
TORSDOF 10
ENDMDL
MODEL 8
REMARK VINA RESULT:      -6.8      3.855      8.089
REMARK  Name = NuBBE_1147
REMARK  18 active torsions:
REMARK  status: ('A' for Active; 'I' for Inactive)
REMARK    1  A    between atoms: C_1  and  C_2
REMARK    2  A    between atoms: C_6  and  C_28
REMARK    3  A    between atoms: C_7  and  C_8
REMARK    4  A    between atoms: C_9  and  C_11
REMARK    5  A    between atoms: C_11  and  C_13
REMARK    6  A    between atoms: C_11  and  C_14
REMARK    7  A    between atoms: C_14  and  O_15
REMARK    8  A    between atoms: C_14  and  C_16
REMARK    9  A    between atoms: C_16  and  O_17
REMARK   10  A    between atoms: C_16  and  C_18
REMARK   11  A    between atoms: C_18  and  O_19
REMARK   12  A    between atoms: C_18  and  C_20
REMARK   13  A    between atoms: C_20  and  O_21
REMARK   14  A    between atoms: C_20  and  C_22
REMARK   15  A    between atoms: C_20  and  C_23
REMARK   16  A    between atoms: C_33  and  C_34
REMARK   17  A    between atoms: C_33  and  C_40
REMARK   18  A    between atoms: C_35  and  O_39
REMARK                            x       y       z     vdW  Elec       q    Type
REMARK                         _______ _______ _______ _____ _____    ______ ____
ROOT
ATOM      1  C   LIG A   1      -6.816   4.461 134.148  0.00  0.00    +0.012 C 
ATOM      2  C   LIG A   1      -6.307   4.808 132.702  0.00  0.00    -0.022 C 
ATOM      3  C   LIG A   1      -6.570   3.496 131.843  0.00  0.00    +0.021 C 
ATOM      4  C   LIG A   1      -5.412   2.504 131.798  0.00  0.00    -0.063 C 
ATOM      5  C   LIG A   1      -5.694   1.128 131.128  0.00  0.00    -0.005 C 
ATOM      6  C   LIG A   1      -6.831   1.161 130.020  0.00  0.00    -0.020 C 
ATOM      7  C   LIG A   1      -8.236   0.803 130.530  0.00  0.00    +0.012 C 
ATOM      8  C   LIG A   1      -6.347   0.232 128.840  0.00  0.00    +0.001 C 
ATOM      9  C   LIG A   1      -4.818   0.353 128.914  0.00  0.00    +0.005 C 
ATOM     10  C   LIG A   1      -4.444   0.584 130.372  0.00  0.00    +0.012 C 
ATOM     11  C   LIG A   1      -6.893   2.612 129.447  0.00  0.00    +0.008 C 
ATOM     12  C   LIG A   1      -7.272   3.669 130.481  0.00  0.00    +0.009 C 
ATOM     13  C   LIG A   1      -6.020   0.189 132.316  0.00  0.00    +0.016 C 
ATOM     14  C   LIG A   1      -4.259   2.743 132.452  0.00  0.00    -0.026 C 
ATOM     15  C   LIG A   1      -3.949   3.977 133.238  0.00  0.00    +0.031 C 
ATOM     16  C   LIG A   1      -4.787   5.195 132.815  0.00  0.00    +0.007 C 
ATOM     17  C   LIG A   1      -4.167   6.047 131.627  0.00  0.00    -0.005 C 
ATOM     18  C   LIG A   1      -3.018   5.348 130.855  0.00  0.00    +0.014 C 
ATOM     19  C   LIG A   1      -5.232   6.436 130.577  0.00  0.00    +0.120 C 
ATOM     20  C   LIG A   1      -6.546   6.920 131.172  0.00  0.00    +0.032 C 
ATOM     21  C   LIG A   1      -7.131   6.048 132.279  0.00  0.00    +0.010 C 
ATOM     22  C   LIG A   1      -3.542   7.327 132.246  0.00  0.00    +0.014 C 
ENDROOT
BRANCH   8  23
ATOM     23  C   LIG A   1      -6.809  -1.266 128.642  0.00  0.00    +0.021 C 
ATOM     24  C   LIG A   1      -6.944  -2.062 129.937  0.00  0.00    +0.010 C 
BRANCH  23  25
ATOM     25  C   LIG A   1      -8.028  -1.446 127.667  0.00  0.00    +0.149 C 
BRANCH  25  26
ATOM     26  O   LIG A   1      -8.354  -0.144 127.161  0.00  0.00    -0.389 OA
ATOM     27  H   LIG A   1      -8.409  -0.214 126.184  0.00  0.00    +0.210 HD
ENDBRANCH  25  26
BRANCH  25  28
ATOM     28  C   LIG A   1      -7.798  -2.456 126.484  0.00  0.00    +0.174 C 
BRANCH  28  29
ATOM     29  O   LIG A   1      -8.735  -3.526 126.567  0.00  0.00    -0.387 OA
ATOM     30  H   LIG A   1      -8.557  -4.109 125.808  0.00  0.00    +0.210 HD
ENDBRANCH  28  29
BRANCH  28  31
ATOM     31  C   LIG A   1      -7.944  -1.764 125.093  0.00  0.00    +0.176 C 
BRANCH  31  32
ATOM     32  C   LIG A   1      -7.880  -2.693 123.836  0.00  0.00    +0.089 C 
ATOM     33  C   LIG A   1      -9.242  -3.099 123.267  0.00  0.00    +0.044 C 
ATOM     34  C   LIG A   1      -7.072  -2.011 122.716  0.00  0.00    +0.044 C 
BRANCH  32  35
ATOM     35  O   LIG A   1      -7.164  -3.882 124.212  0.00  0.00    -0.387 OA
ATOM     36  H   LIG A   1      -6.622  -4.151 123.448  0.00  0.00    +0.210 HD
ENDBRANCH  32  35
ENDBRANCH  31  32
BRANCH  31  37
ATOM     37  O   LIG A   1      -6.886  -0.787 124.970  0.00  0.00    -0.386 OA
ATOM     38  H   LIG A   1      -6.775  -0.425 125.875  0.00  0.00    +0.210 HD
ENDBRANCH  31  37
ENDBRANCH  28  31
ENDBRANCH  25  28
ENDBRANCH  23  25
ENDBRANCH   8  23
BRANCH  19  39
ATOM     39  O   LIG A   1      -4.740   7.453 129.699  0.00  0.00    -0.391 OA
ATOM     40  H   LIG A   1      -4.445   7.013 128.883  0.00  0.00    +0.210 HD
ENDBRANCH  19  39
TORSDOF 10
ENDMDL
MODEL 9
REMARK VINA RESULT:      -6.7      2.717      4.142
REMARK  Name = NuBBE_1147
REMARK  18 active torsions:
REMARK  status: ('A' for Active; 'I' for Inactive)
REMARK    1  A    between atoms: C_1  and  C_2
REMARK    2  A    between atoms: C_6  and  C_28
REMARK    3  A    between atoms: C_7  and  C_8
REMARK    4  A    between atoms: C_9  and  C_11
REMARK    5  A    between atoms: C_11  and  C_13
REMARK    6  A    between atoms: C_11  and  C_14
REMARK    7  A    between atoms: C_14  and  O_15
REMARK    8  A    between atoms: C_14  and  C_16
REMARK    9  A    between atoms: C_16  and  O_17
REMARK   10  A    between atoms: C_16  and  C_18
REMARK   11  A    between atoms: C_18  and  O_19
REMARK   12  A    between atoms: C_18  and  C_20
REMARK   13  A    between atoms: C_20  and  O_21
REMARK   14  A    between atoms: C_20  and  C_22
REMARK   15  A    between atoms: C_20  and  C_23
REMARK   16  A    between atoms: C_33  and  C_34
REMARK   17  A    between atoms: C_33  and  C_40
REMARK   18  A    between atoms: C_35  and  O_39
REMARK                            x       y       z     vdW  Elec       q    Type
REMARK                         _______ _______ _______ _____ _____    ______ ____
ROOT
ATOM      1  C   LIG A   1      -7.951  -2.712 133.653  0.00  0.00    +0.012 C 
ATOM      2  C   LIG A   1      -6.725  -2.177 132.828  0.00  0.00    -0.022 C 
ATOM      3  C   LIG A   1      -6.986  -0.617 132.662  0.00  0.00    +0.021 C 
ATOM      4  C   LIG A   1      -7.753  -0.216 131.407  0.00  0.00    -0.063 C 
ATOM      5  C   LIG A   1      -8.192   1.274 131.300  0.00  0.00    -0.005 C 
ATOM      6  C   LIG A   1      -7.259   2.288 132.090  0.00  0.00    -0.020 C 
ATOM      7  C   LIG A   1      -7.730   2.618 133.514  0.00  0.00    +0.012 C 
ATOM      8  C   LIG A   1      -7.100   3.567 131.180  0.00  0.00    +0.001 C 
ATOM      9  C   LIG A   1      -7.224   2.995 129.760  0.00  0.00    +0.005 C 
ATOM     10  C   LIG A   1      -8.149   1.787 129.829  0.00  0.00    +0.012 C 
ATOM     11  C   LIG A   1      -5.841   1.642 132.199  0.00  0.00    +0.008 C 
ATOM     12  C   LIG A   1      -5.818   0.335 132.988  0.00  0.00    +0.009 C 
ATOM     13  C   LIG A   1      -9.658   1.273 131.799  0.00  0.00    +0.016 C 
ATOM     14  C   LIG A   1      -8.175  -1.136 130.518  0.00  0.00    -0.026 C 
ATOM     15  C   LIG A   1      -7.921  -2.606 130.609  0.00  0.00    +0.031 C 
ATOM     16  C   LIG A   1      -6.694  -2.961 131.465  0.00  0.00    +0.007 C 
ATOM     17  C   LIG A   1      -5.316  -2.982 130.676  0.00  0.00    -0.005 C 
ATOM     18  C   LIG A   1      -5.360  -2.320 129.274  0.00  0.00    +0.014 C 
ATOM     19  C   LIG A   1      -4.187  -2.279 131.462  0.00  0.00    +0.120 C 
ATOM     20  C   LIG A   1      -4.148  -2.629 132.942  0.00  0.00    +0.032 C 
ATOM     21  C   LIG A   1      -5.484  -2.551 133.675  0.00  0.00    +0.010 C 
ATOM     22  C   LIG A   1      -4.942  -4.470 130.427  0.00  0.00    +0.014 C 
ENDROOT
BRANCH   8  23
ATOM     23  C   LIG A   1      -7.943   4.892 131.355  0.00  0.00    +0.021 C 
ATOM     24  C   LIG A   1      -9.277   4.703 132.073  0.00  0.00    +0.010 C 
BRANCH  23  25
ATOM     25  C   LIG A   1      -7.119   6.121 131.881  0.00  0.00    +0.149 C 
BRANCH  25  26
ATOM     26  O   LIG A   1      -6.874   5.893 133.276  0.00  0.00    -0.389 OA
ATOM     27  H   LIG A   1      -7.719   5.601 133.680  0.00  0.00    +0.210 HD
ENDBRANCH  25  26
BRANCH  25  28
ATOM     28  C   LIG A   1      -5.769   6.400 131.122  0.00  0.00    +0.174 C 
BRANCH  28  29
ATOM     29  O   LIG A   1      -5.863   7.621 130.395  0.00  0.00    -0.387 OA
ATOM     30  H   LIG A   1      -6.805   7.743 130.180  0.00  0.00    +0.210 HD
ENDBRANCH  28  29
BRANCH  28  31
ATOM     31  C   LIG A   1      -4.560   6.487 132.104  0.00  0.00    +0.176 C 
BRANCH  31  32
ATOM     32  C   LIG A   1      -3.201   6.973 131.501  0.00  0.00    +0.089 C 
ATOM     33  C   LIG A   1      -2.003   6.870 132.448  0.00  0.00    +0.044 C 
ATOM     34  C   LIG A   1      -2.875   6.179 130.222  0.00  0.00    +0.044 C 
BRANCH  32  35
ATOM     35  O   LIG A   1      -3.366   8.349 131.114  0.00  0.00    -0.387 OA
ATOM     36  H   LIG A   1      -2.477   8.719 130.962  0.00  0.00    +0.210 HD
ENDBRANCH  32  35
ENDBRANCH  31  32
BRANCH  31  37
ATOM     37  O   LIG A   1      -4.345   5.172 132.662  0.00  0.00    -0.386 OA
ATOM     38  H   LIG A   1      -4.837   5.179 133.511  0.00  0.00    +0.210 HD
ENDBRANCH  31  37
ENDBRANCH  28  31
ENDBRANCH  25  28
ENDBRANCH  23  25
ENDBRANCH   8  23
BRANCH  19  39
ATOM     39  O   LIG A   1      -2.906  -2.581 130.901  0.00  0.00    -0.391 OA
ATOM     40  H   LIG A   1      -2.240  -2.397 131.585  0.00  0.00    +0.210 HD
ENDBRANCH  19  39
TORSDOF 10
ENDMDL
