MODEL 1
REMARK VINA RESULT:      -7.4      0.000      0.000
REMARK  Name = NuBBE_1300
REMARK  14 active torsions:
REMARK  status: ('A' for Active; 'I' for Inactive)
REMARK    1  A    between atoms: C_2  and  C_3
REMARK    2  A    between atoms: C_2  and  C_17
REMARK    3  A    between atoms: C_4  and  C_5
REMARK    4  A    between atoms: C_7  and  O_8
REMARK    5  A    between atoms: O_8  and  C_9
REMARK    6  A    between atoms: C_10  and  O_15
REMARK    7  A    between atoms: C_11  and  O_12
REMARK    8  A    between atoms: O_12  and  C_13
REMARK    9  A    between atoms: O_15  and  C_16
REMARK   10  A    between atoms: C_18  and  O_27
REMARK   11  A    between atoms: C_20  and  O_25
REMARK   12  A    between atoms: C_22  and  O_23
REMARK   13  A    between atoms: O_23  and  C_24
REMARK   14  A    between atoms: O_25  and  C_26
REMARK                            x       y       z     vdW  Elec       q    Type
REMARK                         _______ _______ _______ _____ _____    ______ ____
ROOT
ATOM      1  O   LIG A   1     -11.144   4.230 130.142  0.00  0.00    -0.287 OA
ATOM      2  C   LIG A   1     -10.477   5.303 130.107  0.00  0.00    +0.193 C 
ENDROOT
BRANCH   2   3
ATOM      3  C   LIG A   1     -11.193   6.565 129.783  0.00  0.00    +0.105 A 
ATOM      4  C   LIG A   1     -12.116   7.079 130.727  0.00  0.00    +0.135 A 
ATOM      5  C   LIG A   1     -12.813   8.273 130.530  0.00  0.00    +0.092 A 
ATOM      6  C   LIG A   1     -12.696   8.945 129.323  0.00  0.00    +0.127 A 
ATOM      7  C   LIG A   1     -11.810   8.451 128.377  0.00  0.00    +0.092 A 
ATOM      8  C   LIG A   1     -11.019   7.298 128.589  0.00  0.00    +0.138 A 
BRANCH   8   9
ATOM      9  O   LIG A   1     -10.182   6.868 127.595  0.00  0.00    -0.494 OA
ATOM     10  C   LIG A   1     -10.552   7.298 126.275  0.00  0.00    +0.277 C 
ENDBRANCH   8   9
BRANCH   6  11
ATOM     11  O   LIG A   1     -13.447  10.073 129.128  0.00  0.00    -0.495 OA
ATOM     12  C   LIG A   1     -13.434  11.004 130.217  0.00  0.00    +0.277 C 
ENDBRANCH   6  11
BRANCH   4  13
ATOM     13  O   LIG A   1     -12.413   6.414 131.897  0.00  0.00    -0.506 OA
ATOM     14  H   LIG A   1     -11.802   6.739 132.591  0.00  0.00    +0.292 HD
ENDBRANCH   4  13
ENDBRANCH   2   3
BRANCH   2  15
ATOM     15  C   LIG A   1      -9.040   5.324 130.492  0.00  0.00    +0.052 C 
ATOM     16  C   LIG A   1      -8.537   6.323 131.302  0.00  0.00    +0.012 C 
BRANCH  16  17
ATOM     17  C   LIG A   1      -7.124   6.447 131.652  0.00  0.00    -0.018 A 
ATOM     18  C   LIG A   1      -6.222   7.070 130.792  0.00  0.00    +0.057 A 
ATOM     19  C   LIG A   1      -4.850   7.185 131.106  0.00  0.00    +0.166 A 
ATOM     20  C   LIG A   1      -4.328   6.559 132.262  0.00  0.00    +0.203 A 
ATOM     21  C   LIG A   1      -5.231   5.836 133.082  0.00  0.00    +0.166 A 
ATOM     22  C   LIG A   1      -6.606   5.855 132.797  0.00  0.00    +0.057 A 
BRANCH  19  23
ATOM     23  O   LIG A   1      -3.998   7.917 130.323  0.00  0.00    -0.491 OA
ATOM     24  C   LIG A   1      -3.636   7.408 129.051  0.00  0.00    +0.277 C 
ENDBRANCH  19  23
BRANCH  21  25
ATOM     25  O   LIG A   1      -4.768   5.071 134.141  0.00  0.00    -0.491 OA
ATOM     26  C   LIG A   1      -4.932   3.655 133.937  0.00  0.00    +0.277 C 
ENDBRANCH  21  25
BRANCH  20  27
ATOM     27  O   LIG A   1      -3.006   6.619 132.666  0.00  0.00    -0.488 OA
ATOM     28  C   LIG A   1      -2.599   7.725 133.482  0.00  0.00    +0.277 C 
ENDBRANCH  20  27
ENDBRANCH  16  17
ENDBRANCH   2  15
TORSDOF 9
ENDMDL
MODEL 2
REMARK VINA RESULT:      -7.3      0.560      2.408
REMARK  Name = NuBBE_1300
REMARK  14 active torsions:
REMARK  status: ('A' for Active; 'I' for Inactive)
REMARK    1  A    between atoms: C_2  and  C_3
REMARK    2  A    between atoms: C_2  and  C_17
REMARK    3  A    between atoms: C_4  and  C_5
REMARK    4  A    between atoms: C_7  and  O_8
REMARK    5  A    between atoms: O_8  and  C_9
REMARK    6  A    between atoms: C_10  and  O_15
REMARK    7  A    between atoms: C_11  and  O_12
REMARK    8  A    between atoms: O_12  and  C_13
REMARK    9  A    between atoms: O_15  and  C_16
REMARK   10  A    between atoms: C_18  and  O_27
REMARK   11  A    between atoms: C_20  and  O_25
REMARK   12  A    between atoms: C_22  and  O_23
REMARK   13  A    between atoms: O_23  and  C_24
REMARK   14  A    between atoms: O_25  and  C_26
REMARK                            x       y       z     vdW  Elec       q    Type
REMARK                         _______ _______ _______ _____ _____    ______ ____
ROOT
ATOM      1  O   LIG A   1     -11.092   4.385 130.092  0.00  0.00    -0.287 OA
ATOM      2  C   LIG A   1     -10.427   5.458 130.035  0.00  0.00    +0.193 C 
ENDROOT
BRANCH   2   3
ATOM      3  C   LIG A   1     -11.161   6.727 129.791  0.00  0.00    +0.105 A 
ATOM      4  C   LIG A   1     -12.092   7.167 130.765  0.00  0.00    +0.135 A 
ATOM      5  C   LIG A   1     -12.806   8.361 130.644  0.00  0.00    +0.092 A 
ATOM      6  C   LIG A   1     -12.698   9.110 129.482  0.00  0.00    +0.127 A 
ATOM      7  C   LIG A   1     -11.805   8.690 128.508  0.00  0.00    +0.092 A 
ATOM      8  C   LIG A   1     -10.997   7.538 128.646  0.00  0.00    +0.138 A 
BRANCH   8   9
ATOM      9  O   LIG A   1     -10.154   7.184 127.629  0.00  0.00    -0.494 OA
ATOM     10  C   LIG A   1     -10.643   7.494 126.313  0.00  0.00    +0.277 C 
ENDBRANCH   8   9
BRANCH   6  11
ATOM     11  O   LIG A   1     -13.465  10.238 129.358  0.00  0.00    -0.495 OA
ATOM     12  C   LIG A   1     -13.431  11.119 130.487  0.00  0.00    +0.277 C 
ENDBRANCH   6  11
BRANCH   4  13
ATOM     13  O   LIG A   1     -12.380   6.425 131.890  0.00  0.00    -0.506 OA
ATOM     14  H   LIG A   1     -12.680   7.043 132.589  0.00  0.00    +0.292 HD
ENDBRANCH   4  13
ENDBRANCH   2   3
BRANCH   2  15
ATOM     15  C   LIG A   1      -8.967   5.469 130.320  0.00  0.00    +0.052 C 
ATOM     16  C   LIG A   1      -8.440   6.295 131.294  0.00  0.00    +0.012 C 
BRANCH  16  17
ATOM     17  C   LIG A   1      -7.010   6.413 131.568  0.00  0.00    -0.018 A 
ATOM     18  C   LIG A   1      -6.468   5.966 132.771  0.00  0.00    +0.057 A 
ATOM     19  C   LIG A   1      -5.092   6.085 133.060  0.00  0.00    +0.166 A 
ATOM     20  C   LIG A   1      -4.234   6.778 132.174  0.00  0.00    +0.203 A 
ATOM     21  C   LIG A   1      -4.808   7.324 130.997  0.00  0.00    +0.166 A 
ATOM     22  C   LIG A   1      -6.156   7.072 130.692  0.00  0.00    +0.057 A 
BRANCH  19  23
ATOM     23  O   LIG A   1      -4.547   5.520 134.182  0.00  0.00    -0.491 OA
ATOM     24  C   LIG A   1      -4.813   6.115 135.441  0.00  0.00    +0.277 C 
ENDBRANCH  19  23
BRANCH  21  25
ATOM     25  O   LIG A   1      -4.065   8.144 130.163  0.00  0.00    -0.491 OA
ATOM     26  C   LIG A   1      -3.690   7.510 128.925  0.00  0.00    +0.277 C 
ENDBRANCH  21  25
BRANCH  20  27
ATOM     27  O   LIG A   1      -2.873   6.942 132.355  0.00  0.00    -0.488 OA
ATOM     28  C   LIG A   1      -2.425   8.054 133.143  0.00  0.00    +0.277 C 
ENDBRANCH  20  27
ENDBRANCH  16  17
ENDBRANCH   2  15
TORSDOF 9
ENDMDL
MODEL 3
REMARK VINA RESULT:      -6.4      5.274      7.417
REMARK  Name = NuBBE_1300
REMARK  14 active torsions:
REMARK  status: ('A' for Active; 'I' for Inactive)
REMARK    1  A    between atoms: C_2  and  C_3
REMARK    2  A    between atoms: C_2  and  C_17
REMARK    3  A    between atoms: C_4  and  C_5
REMARK    4  A    between atoms: C_7  and  O_8
REMARK    5  A    between atoms: O_8  and  C_9
REMARK    6  A    between atoms: C_10  and  O_15
REMARK    7  A    between atoms: C_11  and  O_12
REMARK    8  A    between atoms: O_12  and  C_13
REMARK    9  A    between atoms: O_15  and  C_16
REMARK   10  A    between atoms: C_18  and  O_27
REMARK   11  A    between atoms: C_20  and  O_25
REMARK   12  A    between atoms: C_22  and  O_23
REMARK   13  A    between atoms: O_23  and  C_24
REMARK   14  A    between atoms: O_25  and  C_26
REMARK                            x       y       z     vdW  Elec       q    Type
REMARK                         _______ _______ _______ _____ _____    ______ ____
ROOT
ATOM      1  O   LIG A   1      -6.643   5.135 129.266  0.00  0.00    -0.287 OA
ATOM      2  C   LIG A   1      -7.765   4.589 129.068  0.00  0.00    +0.193 C 
ENDROOT
BRANCH   2   3
ATOM      3  C   LIG A   1      -8.957   5.169 129.740  0.00  0.00    +0.105 A 
ATOM      4  C   LIG A   1      -9.190   4.848 131.101  0.00  0.00    +0.135 A 
ATOM      5  C   LIG A   1     -10.262   5.367 131.829  0.00  0.00    +0.092 A 
ATOM      6  C   LIG A   1     -11.213   6.147 131.188  0.00  0.00    +0.127 A 
ATOM      7  C   LIG A   1     -11.015   6.461 129.852  0.00  0.00    +0.092 A 
ATOM      8  C   LIG A   1      -9.888   6.029 129.116  0.00  0.00    +0.138 A 
BRANCH   8   9
ATOM      9  O   LIG A   1      -9.778   6.370 127.795  0.00  0.00    -0.494 OA
ATOM     10  C   LIG A   1     -10.645   7.438 127.380  0.00  0.00    +0.277 C 
ENDBRANCH   8   9
BRANCH   6  11
ATOM     11  O   LIG A   1     -12.293   6.583 131.907  0.00  0.00    -0.495 OA
ATOM     12  C   LIG A   1     -13.010   7.675 131.319  0.00  0.00    +0.277 C 
ENDBRANCH   6  11
BRANCH   4  13
ATOM     13  O   LIG A   1      -8.385   3.969 131.793  0.00  0.00    -0.506 OA
ATOM     14  H   LIG A   1      -8.295   4.302 132.711  0.00  0.00    +0.292 HD
ENDBRANCH   4  13
ENDBRANCH   2   3
BRANCH   2  15
ATOM     15  C   LIG A   1      -7.912   3.469 128.100  0.00  0.00    +0.052 C 
ATOM     16  C   LIG A   1      -8.238   2.197 128.528  0.00  0.00    +0.012 C 
BRANCH  16  17
ATOM     17  C   LIG A   1      -8.318   1.040 127.641  0.00  0.00    -0.018 A 
ATOM     18  C   LIG A   1      -9.110   1.066 126.494  0.00  0.00    +0.057 A 
ATOM     19  C   LIG A   1      -9.212  -0.048 125.633  0.00  0.00    +0.166 A 
ATOM     20  C   LIG A   1      -8.600  -1.275 125.978  0.00  0.00    +0.203 A 
ATOM     21  C   LIG A   1      -7.880  -1.330 127.198  0.00  0.00    +0.166 A 
ATOM     22  C   LIG A   1      -7.701  -0.163 127.960  0.00  0.00    +0.057 A 
BRANCH  19  23
ATOM     23  O   LIG A   1      -9.880   0.032 124.440  0.00  0.00    -0.491 OA
ATOM     24  C   LIG A   1      -9.991   1.294 123.805  0.00  0.00    +0.277 C 
ENDBRANCH  19  23
BRANCH  21  25
ATOM     25  O   LIG A   1      -7.387  -2.533 127.676  0.00  0.00    -0.491 OA
ATOM     26  C   LIG A   1      -8.291  -3.205 128.574  0.00  0.00    +0.277 C 
ENDBRANCH  21  25
BRANCH  20  27
ATOM     27  O   LIG A   1      -8.629  -2.420 125.202  0.00  0.00    -0.488 OA
ATOM     28  C   LIG A   1      -7.638  -2.567 124.176  0.00  0.00    +0.277 C 
ENDBRANCH  20  27
ENDBRANCH  16  17
ENDBRANCH   2  15
TORSDOF 9
ENDMDL
MODEL 4
REMARK VINA RESULT:      -6.3      5.223      7.693
REMARK  Name = NuBBE_1300
REMARK  14 active torsions:
REMARK  status: ('A' for Active; 'I' for Inactive)
REMARK    1  A    between atoms: C_2  and  C_3
REMARK    2  A    between atoms: C_2  and  C_17
REMARK    3  A    between atoms: C_4  and  C_5
REMARK    4  A    between atoms: C_7  and  O_8
REMARK    5  A    between atoms: O_8  and  C_9
REMARK    6  A    between atoms: C_10  and  O_15
REMARK    7  A    between atoms: C_11  and  O_12
REMARK    8  A    between atoms: O_12  and  C_13
REMARK    9  A    between atoms: O_15  and  C_16
REMARK   10  A    between atoms: C_18  and  O_27
REMARK   11  A    between atoms: C_20  and  O_25
REMARK   12  A    between atoms: C_22  and  O_23
REMARK   13  A    between atoms: O_23  and  C_24
REMARK   14  A    between atoms: O_25  and  C_26
REMARK                            x       y       z     vdW  Elec       q    Type
REMARK                         _______ _______ _______ _____ _____    ______ ____
ROOT
ATOM      1  O   LIG A   1      -7.256   5.062 129.490  0.00  0.00    -0.287 OA
ATOM      2  C   LIG A   1      -8.419   4.568 129.520  0.00  0.00    +0.193 C 
ENDROOT
BRANCH   2   3
ATOM      3  C   LIG A   1      -9.554   5.463 129.866  0.00  0.00    +0.105 A 
ATOM      4  C   LIG A   1     -10.114   6.269 128.844  0.00  0.00    +0.135 A 
ATOM      5  C   LIG A   1     -11.203   7.117 129.061  0.00  0.00    +0.092 A 
ATOM      6  C   LIG A   1     -11.704   7.275 130.344  0.00  0.00    +0.127 A 
ATOM      7  C   LIG A   1     -11.159   6.509 131.363  0.00  0.00    +0.092 A 
ATOM      8  C   LIG A   1     -10.123   5.571 131.154  0.00  0.00    +0.138 A 
BRANCH   8   9
ATOM      9  O   LIG A   1      -9.631   4.866 132.219  0.00  0.00    -0.494 OA
ATOM     10  C   LIG A   1      -8.816   5.636 133.119  0.00  0.00    +0.277 C 
ENDBRANCH   8   9
BRANCH   6  11
ATOM     11  O   LIG A   1     -12.723   8.169 130.542  0.00  0.00    -0.495 OA
ATOM     12  C   LIG A   1     -12.778   9.242 129.593  0.00  0.00    +0.277 C 
ENDBRANCH   6  11
BRANCH   4  13
ATOM     13  O   LIG A   1      -9.599   6.294 127.566  0.00  0.00    -0.506 OA
ATOM     14  H   LIG A   1      -8.741   6.768 127.597  0.00  0.00    +0.292 HD
ENDBRANCH   4  13
ENDBRANCH   2   3
BRANCH   2  15
ATOM     15  C   LIG A   1      -8.662   3.160 129.106  0.00  0.00    +0.052 C 
ATOM     16  C   LIG A   1      -7.919   2.577 128.098  0.00  0.00    +0.012 C 
BRANCH  16  17
ATOM     17  C   LIG A   1      -8.160   1.229 127.591  0.00  0.00    -0.018 A 
ATOM     18  C   LIG A   1      -7.551   0.120 128.174  0.00  0.00    +0.057 A 
ATOM     19  C   LIG A   1      -7.759  -1.188 127.687  0.00  0.00    +0.166 A 
ATOM     20  C   LIG A   1      -8.509  -1.399 126.507  0.00  0.00    +0.203 A 
ATOM     21  C   LIG A   1      -9.043  -0.259 125.855  0.00  0.00    +0.166 A 
ATOM     22  C   LIG A   1      -8.915   1.010 126.445  0.00  0.00    +0.057 A 
BRANCH  19  23
ATOM     23  O   LIG A   1      -7.268  -2.282 128.349  0.00  0.00    -0.491 OA
ATOM     24  C   LIG A   1      -8.069  -2.891 129.347  0.00  0.00    +0.277 C 
ENDBRANCH  19  23
BRANCH  21  25
ATOM     25  O   LIG A   1      -9.653  -0.372 124.617  0.00  0.00    -0.491 OA
ATOM     26  C   LIG A   1      -8.993   0.383 123.583  0.00  0.00    +0.277 C 
ENDBRANCH  21  25
BRANCH  20  27
ATOM     27  O   LIG A   1      -8.782  -2.637 125.953  0.00  0.00    -0.488 OA
ATOM     28  C   LIG A   1      -7.798  -3.223 125.090  0.00  0.00    +0.277 C 
ENDBRANCH  20  27
ENDBRANCH  16  17
ENDBRANCH   2  15
TORSDOF 9
ENDMDL
MODEL 5
REMARK VINA RESULT:      -6.3      5.157      7.591
REMARK  Name = NuBBE_1300
REMARK  14 active torsions:
REMARK  status: ('A' for Active; 'I' for Inactive)
REMARK    1  A    between atoms: C_2  and  C_3
REMARK    2  A    between atoms: C_2  and  C_17
REMARK    3  A    between atoms: C_4  and  C_5
REMARK    4  A    between atoms: C_7  and  O_8
REMARK    5  A    between atoms: O_8  and  C_9
REMARK    6  A    between atoms: C_10  and  O_15
REMARK    7  A    between atoms: C_11  and  O_12
REMARK    8  A    between atoms: O_12  and  C_13
REMARK    9  A    between atoms: O_15  and  C_16
REMARK   10  A    between atoms: C_18  and  O_27
REMARK   11  A    between atoms: C_20  and  O_25
REMARK   12  A    between atoms: C_22  and  O_23
REMARK   13  A    between atoms: O_23  and  C_24
REMARK   14  A    between atoms: O_25  and  C_26
REMARK                            x       y       z     vdW  Elec       q    Type
REMARK                         _______ _______ _______ _____ _____    ______ ____
ROOT
ATOM      1  O   LIG A   1      -6.543   5.253 129.439  0.00  0.00    -0.287 OA
ATOM      2  C   LIG A   1      -7.644   4.671 129.220  0.00  0.00    +0.193 C 
ENDROOT
BRANCH   2   3
ATOM      3  C   LIG A   1      -8.870   5.228 129.848  0.00  0.00    +0.105 A 
ATOM      4  C   LIG A   1      -9.130   4.926 131.208  0.00  0.00    +0.135 A 
ATOM      5  C   LIG A   1     -10.236   5.427 131.897  0.00  0.00    +0.092 A 
ATOM      6  C   LIG A   1     -11.193   6.164 131.214  0.00  0.00    +0.127 A 
ATOM      7  C   LIG A   1     -10.968   6.458 129.878  0.00  0.00    +0.092 A 
ATOM      8  C   LIG A   1      -9.809   6.046 129.181  0.00  0.00    +0.138 A 
BRANCH   8   9
ATOM      9  O   LIG A   1      -9.674   6.364 127.857  0.00  0.00    -0.494 OA
ATOM     10  C   LIG A   1     -10.648   7.299 127.365  0.00  0.00    +0.277 C 
ENDBRANCH   8   9
BRANCH   6  11
ATOM     11  O   LIG A   1     -12.305   6.581 131.896  0.00  0.00    -0.495 OA
ATOM     12  C   LIG A   1     -13.014   7.668 131.288  0.00  0.00    +0.277 C 
ENDBRANCH   6  11
BRANCH   4  13
ATOM     13  O   LIG A   1      -8.318   4.086 131.939  0.00  0.00    -0.506 OA
ATOM     14  H   LIG A   1      -8.253   3.235 131.455  0.00  0.00    +0.292 HD
ENDBRANCH   4  13
ENDBRANCH   2   3
BRANCH   2  15
ATOM     15  C   LIG A   1      -7.731   3.531 128.267  0.00  0.00    +0.052 C 
ATOM     16  C   LIG A   1      -8.296   2.329 128.647  0.00  0.00    +0.012 C 
BRANCH  16  17
ATOM     17  C   LIG A   1      -8.340   1.149 127.788  0.00  0.00    -0.018 A 
ATOM     18  C   LIG A   1      -7.507   0.056 128.023  0.00  0.00    +0.057 A 
ATOM     19  C   LIG A   1      -7.525  -1.087 127.196  0.00  0.00    +0.166 A 
ATOM     20  C   LIG A   1      -8.313  -1.106 126.022  0.00  0.00    +0.203 A 
ATOM     21  C   LIG A   1      -9.082   0.049 125.728  0.00  0.00    +0.166 A 
ATOM     22  C   LIG A   1      -9.129   1.112 126.646  0.00  0.00    +0.057 A 
BRANCH  19  23
ATOM     23  O   LIG A   1      -6.805  -2.208 127.513  0.00  0.00    -0.491 OA
ATOM     24  C   LIG A   1      -7.010  -2.814 128.778  0.00  0.00    +0.277 C 
ENDBRANCH  19  23
BRANCH  21  25
ATOM     25  O   LIG A   1      -9.754   0.164 124.522  0.00  0.00    -0.491 OA
ATOM     26  C   LIG A   1      -9.891   1.526 124.072  0.00  0.00    +0.277 C 
ENDBRANCH  21  25
BRANCH  20  27
ATOM     27  O   LIG A   1      -8.411  -2.176 125.150  0.00  0.00    -0.488 OA
ATOM     28  C   LIG A   1      -9.416  -3.165 125.406  0.00  0.00    +0.277 C 
ENDBRANCH  20  27
ENDBRANCH  16  17
ENDBRANCH   2  15
TORSDOF 9
ENDMDL
MODEL 6
REMARK VINA RESULT:      -6.2      5.530      7.783
REMARK  Name = NuBBE_1300
REMARK  14 active torsions:
REMARK  status: ('A' for Active; 'I' for Inactive)
REMARK    1  A    between atoms: C_2  and  C_3
REMARK    2  A    between atoms: C_2  and  C_17
REMARK    3  A    between atoms: C_4  and  C_5
REMARK    4  A    between atoms: C_7  and  O_8
REMARK    5  A    between atoms: O_8  and  C_9
REMARK    6  A    between atoms: C_10  and  O_15
REMARK    7  A    between atoms: C_11  and  O_12
REMARK    8  A    between atoms: O_12  and  C_13
REMARK    9  A    between atoms: O_15  and  C_16
REMARK   10  A    between atoms: C_18  and  O_27
REMARK   11  A    between atoms: C_20  and  O_25
REMARK   12  A    between atoms: C_22  and  O_23
REMARK   13  A    between atoms: O_23  and  C_24
REMARK   14  A    between atoms: O_25  and  C_26
REMARK                            x       y       z     vdW  Elec       q    Type
REMARK                         _______ _______ _______ _____ _____    ______ ____
ROOT
ATOM      1  O   LIG A   1      -6.755   4.978 129.026  0.00  0.00    -0.287 OA
ATOM      2  C   LIG A   1      -7.851   4.347 129.014  0.00  0.00    +0.193 C 
ENDROOT
BRANCH   2   3
ATOM      3  C   LIG A   1      -8.970   4.867 129.843  0.00  0.00    +0.105 A 
ATOM      4  C   LIG A   1      -9.832   5.840 129.280  0.00  0.00    +0.135 A 
ATOM      5  C   LIG A   1     -10.930   6.366 129.965  0.00  0.00    +0.092 A 
ATOM      6  C   LIG A   1     -11.143   6.016 131.290  0.00  0.00    +0.127 A 
ATOM      7  C   LIG A   1     -10.301   5.078 131.867  0.00  0.00    +0.092 A 
ATOM      8  C   LIG A   1      -9.241   4.457 131.167  0.00  0.00    +0.138 A 
BRANCH   8   9
ATOM      9  O   LIG A   1      -8.447   3.552 131.817  0.00  0.00    -0.494 OA
ATOM     10  C   LIG A   1      -9.121   2.351 132.227  0.00  0.00    +0.277 C 
ENDBRANCH   8   9
BRANCH   6  11
ATOM     11  O   LIG A   1     -12.182   6.602 131.962  0.00  0.00    -0.495 OA
ATOM     12  C   LIG A   1     -12.927   7.562 131.202  0.00  0.00    +0.277 C 
ENDBRANCH   6  11
BRANCH   4  13
ATOM     13  O   LIG A   1      -9.625   6.361 128.021  0.00  0.00    -0.506 OA
ATOM     14  H   LIG A   1      -9.764   5.640 127.371  0.00  0.00    +0.292 HD
ENDBRANCH   4  13
ENDBRANCH   2   3
BRANCH   2  15
ATOM     15  C   LIG A   1      -8.055   3.186 128.106  0.00  0.00    +0.052 C 
ATOM     16  C   LIG A   1      -8.031   1.893 128.591  0.00  0.00    +0.012 C 
BRANCH  16  17
ATOM     17  C   LIG A   1      -8.144   0.709 127.744  0.00  0.00    -0.018 A 
ATOM     18  C   LIG A   1      -8.857   0.746 126.547  0.00  0.00    +0.057 A 
ATOM     19  C   LIG A   1      -8.990  -0.392 125.723  0.00  0.00    +0.166 A 
ATOM     20  C   LIG A   1      -8.498  -1.647 126.153  0.00  0.00    +0.203 A 
ATOM     21  C   LIG A   1      -7.864  -1.704 127.420  0.00  0.00    +0.166 A 
ATOM     22  C   LIG A   1      -7.643  -0.522 128.148  0.00  0.00    +0.057 A 
BRANCH  19  23
ATOM     23  O   LIG A   1      -9.573  -0.313 124.486  0.00  0.00    -0.491 OA
ATOM     24  C   LIG A   1      -8.786   0.118 123.389  0.00  0.00    +0.277 C 
ENDBRANCH  19  23
BRANCH  21  25
ATOM     25  O   LIG A   1      -7.496  -2.920 127.973  0.00  0.00    -0.491 OA
ATOM     26  C   LIG A   1      -8.414  -3.390 128.979  0.00  0.00    +0.277 C 
ENDBRANCH  21  25
BRANCH  20  27
ATOM     27  O   LIG A   1      -8.567  -2.818 125.420  0.00  0.00    -0.488 OA
ATOM     28  C   LIG A   1      -7.445  -3.168 124.599  0.00  0.00    +0.277 C 
ENDBRANCH  20  27
ENDBRANCH  16  17
ENDBRANCH   2  15
TORSDOF 9
ENDMDL
MODEL 7
REMARK VINA RESULT:      -6.2      8.825     10.202
REMARK  Name = NuBBE_1300
REMARK  14 active torsions:
REMARK  status: ('A' for Active; 'I' for Inactive)
REMARK    1  A    between atoms: C_2  and  C_3
REMARK    2  A    between atoms: C_2  and  C_17
REMARK    3  A    between atoms: C_4  and  C_5
REMARK    4  A    between atoms: C_7  and  O_8
REMARK    5  A    between atoms: O_8  and  C_9
REMARK    6  A    between atoms: C_10  and  O_15
REMARK    7  A    between atoms: C_11  and  O_12
REMARK    8  A    between atoms: O_12  and  C_13
REMARK    9  A    between atoms: O_15  and  C_16
REMARK   10  A    between atoms: C_18  and  O_27
REMARK   11  A    between atoms: C_20  and  O_25
REMARK   12  A    between atoms: C_22  and  O_23
REMARK   13  A    between atoms: O_23  and  C_24
REMARK   14  A    between atoms: O_25  and  C_26
REMARK                            x       y       z     vdW  Elec       q    Type
REMARK                         _______ _______ _______ _____ _____    ______ ____
ROOT
ATOM      1  O   LIG A   1     -10.089  -2.875 125.463  0.00  0.00    -0.287 OA
ATOM      2  C   LIG A   1      -8.945  -2.423 125.754  0.00  0.00    +0.193 C 
ENDROOT
BRANCH   2   3
ATOM      3  C   LIG A   1      -8.419  -1.282 124.960  0.00  0.00    +0.105 A 
ATOM      4  C   LIG A   1      -9.070  -0.027 125.066  0.00  0.00    +0.135 A 
ATOM      5  C   LIG A   1      -8.633   1.112 124.387  0.00  0.00    +0.092 A 
ATOM      6  C   LIG A   1      -7.586   1.012 123.483  0.00  0.00    +0.127 A 
ATOM      7  C   LIG A   1      -6.944  -0.209 123.351  0.00  0.00    +0.092 A 
ATOM      8  C   LIG A   1      -7.303  -1.355 124.098  0.00  0.00    +0.138 A 
BRANCH   8   9
ATOM      9  O   LIG A   1      -6.628  -2.527 123.894  0.00  0.00    -0.494 OA
ATOM     10  C   LIG A   1      -5.318  -2.573 124.485  0.00  0.00    +0.277 C 
ENDBRANCH   8   9
BRANCH   6  11
ATOM     11  O   LIG A   1      -7.226   2.128 122.775  0.00  0.00    -0.495 OA
ATOM     12  C   LIG A   1      -6.452   3.085 123.510  0.00  0.00    +0.277 C 
ENDBRANCH   6  11
BRANCH   4  13
ATOM     13  O   LIG A   1     -10.207   0.145 125.826  0.00  0.00    -0.506 OA
ATOM     14  H   LIG A   1     -10.857  -0.537 125.555  0.00  0.00    +0.292 HD
ENDBRANCH   4  13
ENDBRANCH   2   3
BRANCH   2  15
ATOM     15  C   LIG A   1      -8.196  -2.937 126.931  0.00  0.00    +0.052 C 
ATOM     16  C   LIG A   1      -7.784  -2.086 127.939  0.00  0.00    +0.012 C 
BRANCH  16  17
ATOM     17  C   LIG A   1      -6.978  -2.512 129.079  0.00  0.00    -0.018 A 
ATOM     18  C   LIG A   1      -7.547  -2.687 130.339  0.00  0.00    +0.057 A 
ATOM     19  C   LIG A   1      -6.781  -3.083 131.456  0.00  0.00    +0.166 A 
ATOM     20  C   LIG A   1      -5.376  -3.201 131.352  0.00  0.00    +0.203 A 
ATOM     21  C   LIG A   1      -4.785  -2.922 130.093  0.00  0.00    +0.166 A 
ATOM     22  C   LIG A   1      -5.599  -2.653 128.980  0.00  0.00    +0.057 A 
BRANCH  19  23
ATOM     23  O   LIG A   1      -7.371  -3.385 132.654  0.00  0.00    -0.491 OA
ATOM     24  C   LIG A   1      -7.831  -2.324 133.473  0.00  0.00    +0.277 C 
ENDBRANCH  19  23
BRANCH  21  25
ATOM     25  O   LIG A   1      -3.407  -2.865 129.955  0.00  0.00    -0.491 OA
ATOM     26  C   LIG A   1      -2.891  -3.805 128.993  0.00  0.00    +0.277 C 
ENDBRANCH  21  25
BRANCH  20  27
ATOM     27  O   LIG A   1      -4.535  -3.592 132.378  0.00  0.00    -0.488 OA
ATOM     28  C   LIG A   1      -4.064  -2.587 133.286  0.00  0.00    +0.277 C 
ENDBRANCH  20  27
ENDBRANCH  16  17
ENDBRANCH   2  15
TORSDOF 9
ENDMDL
MODEL 8
REMARK VINA RESULT:      -6.1      5.883      9.724
REMARK  Name = NuBBE_1300
REMARK  14 active torsions:
REMARK  status: ('A' for Active; 'I' for Inactive)
REMARK    1  A    between atoms: C_2  and  C_3
REMARK    2  A    between atoms: C_2  and  C_17
REMARK    3  A    between atoms: C_4  and  C_5
REMARK    4  A    between atoms: C_7  and  O_8
REMARK    5  A    between atoms: O_8  and  C_9
REMARK    6  A    between atoms: C_10  and  O_15
REMARK    7  A    between atoms: C_11  and  O_12
REMARK    8  A    between atoms: O_12  and  C_13
REMARK    9  A    between atoms: O_15  and  C_16
REMARK   10  A    between atoms: C_18  and  O_27
REMARK   11  A    between atoms: C_20  and  O_25
REMARK   12  A    between atoms: C_22  and  O_23
REMARK   13  A    between atoms: O_23  and  C_24
REMARK   14  A    between atoms: O_25  and  C_26
REMARK                            x       y       z     vdW  Elec       q    Type
REMARK                         _______ _______ _______ _____ _____    ______ ____
ROOT
ATOM      1  O   LIG A   1      -1.670   3.368 126.800  0.00  0.00    -0.287 OA
ATOM      2  C   LIG A   1      -2.846   3.402 127.264  0.00  0.00    +0.193 C 
ENDROOT
BRANCH   2   3
ATOM      3  C   LIG A   1      -3.060   4.043 128.588  0.00  0.00    +0.105 A 
ATOM      4  C   LIG A   1      -2.686   5.401 128.749  0.00  0.00    +0.135 A 
ATOM      5  C   LIG A   1      -2.877   6.102 129.942  0.00  0.00    +0.092 A 
ATOM      6  C   LIG A   1      -3.350   5.433 131.062  0.00  0.00    +0.127 A 
ATOM      7  C   LIG A   1      -3.706   4.100 130.932  0.00  0.00    +0.092 A 
ATOM      8  C   LIG A   1      -3.615   3.392 129.711  0.00  0.00    +0.138 A 
BRANCH   8   9
ATOM      9  O   LIG A   1      -3.972   2.072 129.674  0.00  0.00    -0.494 OA
ATOM     10  C   LIG A   1      -5.330   1.809 130.065  0.00  0.00    +0.277 C 
ENDBRANCH   8   9
BRANCH   6  11
ATOM     11  O   LIG A   1      -3.457   6.126 132.239  0.00  0.00    -0.495 OA
ATOM     12  C   LIG A   1      -2.986   7.478 132.189  0.00  0.00    +0.277 C 
ENDBRANCH   6  11
BRANCH   4  13
ATOM     13  O   LIG A   1      -2.076   6.117 127.742  0.00  0.00    -0.506 OA
ATOM     14  H   LIG A   1      -2.768   6.377 127.097  0.00  0.00    +0.292 HD
ENDBRANCH   4  13
ENDBRANCH   2   3
BRANCH   2  15
ATOM     15  C   LIG A   1      -4.000   2.920 126.460  0.00  0.00    +0.052 C 
ATOM     16  C   LIG A   1      -4.694   3.778 125.628  0.00  0.00    +0.012 C 
BRANCH  16  17
ATOM     17  C   LIG A   1      -5.883   3.389 124.875  0.00  0.00    -0.018 A 
ATOM     18  C   LIG A   1      -5.992   3.661 123.512  0.00  0.00    +0.057 A 
ATOM     19  C   LIG A   1      -7.140   3.307 122.771  0.00  0.00    +0.166 A 
ATOM     20  C   LIG A   1      -8.272   2.766 123.423  0.00  0.00    +0.203 A 
ATOM     21  C   LIG A   1      -8.197   2.586 124.827  0.00  0.00    +0.166 A 
ATOM     22  C   LIG A   1      -6.991   2.836 125.503  0.00  0.00    +0.057 A 
BRANCH  19  23
ATOM     23  O   LIG A   1      -7.182   3.453 121.409  0.00  0.00    -0.491 OA
ATOM     24  C   LIG A   1      -5.967   3.653 120.708  0.00  0.00    +0.277 C 
ENDBRANCH  19  23
BRANCH  21  25
ATOM     25  O   LIG A   1      -9.316   2.208 125.553  0.00  0.00    -0.491 OA
ATOM     26  C   LIG A   1      -9.196   0.901 126.147  0.00  0.00    +0.277 C 
ENDBRANCH  21  25
BRANCH  20  27
ATOM     27  O   LIG A   1      -9.439   2.376 122.791  0.00  0.00    -0.488 OA
ATOM     28  C   LIG A   1      -9.601   0.988 122.468  0.00  0.00    +0.277 C 
ENDBRANCH  20  27
ENDBRANCH  16  17
ENDBRANCH   2  15
TORSDOF 9
ENDMDL
MODEL 9
REMARK VINA RESULT:      -6.0      5.079      7.208
REMARK  Name = NuBBE_1300
REMARK  14 active torsions:
REMARK  status: ('A' for Active; 'I' for Inactive)
REMARK    1  A    between atoms: C_2  and  C_3
REMARK    2  A    between atoms: C_2  and  C_17
REMARK    3  A    between atoms: C_4  and  C_5
REMARK    4  A    between atoms: C_7  and  O_8
REMARK    5  A    between atoms: O_8  and  C_9
REMARK    6  A    between atoms: C_10  and  O_15
REMARK    7  A    between atoms: C_11  and  O_12
REMARK    8  A    between atoms: O_12  and  C_13
REMARK    9  A    between atoms: O_15  and  C_16
REMARK   10  A    between atoms: C_18  and  O_27
REMARK   11  A    between atoms: C_20  and  O_25
REMARK   12  A    between atoms: C_22  and  O_23
REMARK   13  A    between atoms: O_23  and  C_24
REMARK   14  A    between atoms: O_25  and  C_26
REMARK                            x       y       z     vdW  Elec       q    Type
REMARK                         _______ _______ _______ _____ _____    ______ ____
ROOT
ATOM      1  O   LIG A   1      -8.233   3.051 131.606  0.00  0.00    -0.287 OA
ATOM      2  C   LIG A   1      -8.788   3.298 130.498  0.00  0.00    +0.193 C 
ENDROOT
BRANCH   2   3
ATOM      3  C   LIG A   1      -9.469   4.609 130.330  0.00  0.00    +0.105 A 
ATOM      4  C   LIG A   1     -10.886   4.637 130.313  0.00  0.00    +0.135 A 
ATOM      5  C   LIG A   1     -11.618   5.820 130.193  0.00  0.00    +0.092 A 
ATOM      6  C   LIG A   1     -10.955   7.018 129.973  0.00  0.00    +0.127 A 
ATOM      7  C   LIG A   1      -9.568   7.012 129.969  0.00  0.00    +0.092 A 
ATOM      8  C   LIG A   1      -8.800   5.844 130.185  0.00  0.00    +0.138 A 
BRANCH   8   9
ATOM      9  O   LIG A   1      -7.435   5.923 130.148  0.00  0.00    -0.494 OA
ATOM     10  C   LIG A   1      -6.864   6.835 131.101  0.00  0.00    +0.277 C 
ENDBRANCH   8   9
BRANCH   6  11
ATOM     11  O   LIG A   1     -11.699   8.152 129.785  0.00  0.00    -0.495 OA
ATOM     12  C   LIG A   1     -13.070   7.924 129.435  0.00  0.00    +0.277 C 
ENDBRANCH   6  11
BRANCH   4  13
ATOM     13  O   LIG A   1     -11.641   3.487 130.382  0.00  0.00    -0.506 OA
ATOM     14  H   LIG A   1     -11.992   3.411 131.294  0.00  0.00    +0.292 HD
ENDBRANCH   4  13
ENDBRANCH   2   3
BRANCH   2  15
ATOM     15  C   LIG A   1      -8.666   2.356 129.353  0.00  0.00    +0.052 C 
ATOM     16  C   LIG A   1      -8.220   2.790 128.120  0.00  0.00    +0.012 C 
BRANCH  16  17
ATOM     17  C   LIG A   1      -8.152   1.937 126.937  0.00  0.00    -0.018 A 
ATOM     18  C   LIG A   1      -7.883   2.470 125.679  0.00  0.00    +0.057 A 
ATOM     19  C   LIG A   1      -7.830   1.663 124.522  0.00  0.00    +0.166 A 
ATOM     20  C   LIG A   1      -8.169   0.292 124.592  0.00  0.00    +0.203 A 
ATOM     21  C   LIG A   1      -8.543  -0.228 125.857  0.00  0.00    +0.166 A 
ATOM     22  C   LIG A   1      -8.461   0.583 127.001  0.00  0.00    +0.057 A 
BRANCH  19  23
ATOM     23  O   LIG A   1      -7.430   2.173 123.315  0.00  0.00    -0.491 OA
ATOM     24  C   LIG A   1      -8.281   3.089 122.648  0.00  0.00    +0.277 C 
ENDBRANCH  19  23
BRANCH  21  25
ATOM     25  O   LIG A   1      -9.034  -1.518 125.974  0.00  0.00    -0.491 OA
ATOM     26  C   LIG A   1      -8.225  -2.364 126.814  0.00  0.00    +0.277 C 
ENDBRANCH  21  25
BRANCH  20  27
ATOM     27  O   LIG A   1      -8.138  -0.587 123.524  0.00  0.00    -0.488 OA
ATOM     28  C   LIG A   1      -6.905  -1.262 123.240  0.00  0.00    +0.277 C 
ENDBRANCH  20  27
ENDBRANCH  16  17
ENDBRANCH   2  15
TORSDOF 9
ENDMDL
