MODEL 1
REMARK VINA RESULT:      -8.4      0.000      0.000
REMARK  Name = NuBBE_1674
REMARK  6 active torsions:
REMARK  status: ('A' for Active; 'I' for Inactive)
REMARK    1  A    between atoms: C_1  and  O_3
REMARK    2  A    between atoms: C_1  and  C_5
REMARK    3  A    between atoms: O_3  and  C_4
REMARK    4  A    between atoms: C_14  and  C_16
REMARK    5  A    between atoms: C_16  and  C_18
REMARK    6  A    between atoms: C_16  and  O_19
REMARK                            x       y       z     vdW  Elec       q    Type
REMARK                         _______ _______ _______ _____ _____    ______ ____
ROOT
ATOM      1  C   LIG A   1      -6.992   1.600 124.679  0.00  0.00    +0.124 C 
ATOM      2  C   LIG A   1      -7.561   0.191 124.085  0.00  0.00    +0.085 C 
ATOM      3  N   LIG A   1      -8.692  -0.155 124.894  0.00  0.00    -0.297 NA
ATOM      4  C   LIG A   1      -8.138  -0.251 126.282  0.00  0.00    +0.088 C 
ATOM      5  C   LIG A   1      -6.511  -0.154 126.303  0.00  0.00    +0.005 C 
ATOM      6  C   LIG A   1      -5.891   1.134 125.590  0.00  0.00    +0.030 C 
ATOM      7  C   LIG A   1      -6.047  -1.327 125.440  0.00  0.00    +0.012 C 
ATOM      8  C   LIG A   1      -6.557  -1.019 124.023  0.00  0.00    +0.036 C 
ATOM      9  C   LIG A   1      -9.775   0.824 124.573  0.00  0.00    +0.089 C 
ATOM     10  C   LIG A   1      -9.694   1.892 123.341  0.00  0.00    +0.053 C 
ATOM     11  C   LIG A   1      -8.357   2.521 122.834  0.00  0.00    -0.017 A 
ATOM     12  C   LIG A   1      -7.101   2.373 123.428  0.00  0.00    +0.039 A 
ATOM     13  N   LIG A   1      -6.146   2.979 122.680  0.00  0.00    -0.357 N 
ATOM     14  H   LIG A   1      -5.158   3.030 122.889  0.00  0.00    +0.166 HD
ATOM     15  C   LIG A   1      -6.737   3.487 121.542  0.00  0.00    +0.047 A 
ATOM     16  C   LIG A   1      -8.115   3.237 121.622  0.00  0.00    +0.003 A 
ATOM     17  C   LIG A   1      -8.937   3.661 120.560  0.00  0.00    +0.010 A 
ATOM     18  C   LIG A   1      -8.362   4.299 119.455  0.00  0.00    +0.001 A 
ATOM     19  C   LIG A   1      -6.989   4.524 119.399  0.00  0.00    +0.002 A 
ATOM     20  C   LIG A   1      -6.151   4.131 120.446  0.00  0.00    +0.026 A 
ENDROOT
BRANCH   1  21
ATOM     21  C   LIG A   1      -7.683   2.698 125.675  0.00  0.00    +0.321 C 
ATOM     22  O   LIG A   1      -8.440   2.517 126.623  0.00  0.00    -0.250 OA
BRANCH  21  23
ATOM     23  O   LIG A   1      -7.213   3.965 125.382  0.00  0.00    -0.467 OA
ATOM     24  C   LIG A   1      -8.095   5.021 125.769  0.00  0.00    +0.280 C 
ENDBRANCH  21  23
ENDBRANCH   1  21
BRANCH   8  25
ATOM     25  C   LIG A   1      -7.161  -2.290 123.377  0.00  0.00    +0.116 C 
ATOM     26  C   LIG A   1      -7.465  -3.415 124.362  0.00  0.00    +0.038 C 
BRANCH  25  27
ATOM     27  O   LIG A   1      -8.390  -1.926 122.738  0.00  0.00    -0.392 OA
ATOM     28  H   LIG A   1      -8.604  -1.023 123.032  0.00  0.00    +0.210 HD
ENDBRANCH  25  27
ENDBRANCH   8  25
TORSDOF 4
ENDMDL
MODEL 2
REMARK VINA RESULT:      -7.6      3.116      7.272
REMARK  Name = NuBBE_1674
REMARK  6 active torsions:
REMARK  status: ('A' for Active; 'I' for Inactive)
REMARK    1  A    between atoms: C_1  and  O_3
REMARK    2  A    between atoms: C_1  and  C_5
REMARK    3  A    between atoms: O_3  and  C_4
REMARK    4  A    between atoms: C_14  and  C_16
REMARK    5  A    between atoms: C_16  and  C_18
REMARK    6  A    between atoms: C_16  and  O_19
REMARK                            x       y       z     vdW  Elec       q    Type
REMARK                         _______ _______ _______ _____ _____    ______ ____
ROOT
ATOM      1  C   LIG A   1      -6.781  -1.768 125.197  0.00  0.00    +0.124 C 
ATOM      2  C   LIG A   1      -8.215  -0.991 125.254  0.00  0.00    +0.085 C 
ATOM      3  N   LIG A   1      -9.103  -1.734 124.410  0.00  0.00    -0.297 NA
ATOM      4  C   LIG A   1      -8.443  -1.711 123.067  0.00  0.00    +0.088 C 
ATOM      5  C   LIG A   1      -7.155  -0.714 123.031  0.00  0.00    +0.005 C 
ATOM      6  C   LIG A   1      -6.043  -0.988 124.145  0.00  0.00    +0.030 C 
ATOM      7  C   LIG A   1      -7.724   0.658 123.390  0.00  0.00    +0.012 C 
ATOM      8  C   LIG A   1      -8.225   0.526 124.838  0.00  0.00    +0.036 C 
ATOM      9  C   LIG A   1      -9.379  -3.031 125.101  0.00  0.00    +0.089 C 
ATOM     10  C   LIG A   1      -8.924  -3.355 126.635  0.00  0.00    +0.053 C 
ATOM     11  C   LIG A   1      -7.638  -2.761 127.294  0.00  0.00    -0.017 A 
ATOM     12  C   LIG A   1      -6.655  -2.007 126.647  0.00  0.00    +0.039 A 
ATOM     13  N   LIG A   1      -5.724  -1.578 127.534  0.00  0.00    -0.357 N 
ATOM     14  H   LIG A   1      -4.903  -1.024 127.327  0.00  0.00    +0.166 HD
ATOM     15  C   LIG A   1      -6.101  -1.983 128.797  0.00  0.00    +0.047 A 
ATOM     16  C   LIG A   1      -7.275  -2.741 128.675  0.00  0.00    +0.003 A 
ATOM     17  C   LIG A   1      -7.862  -3.264 129.844  0.00  0.00    +0.010 A 
ATOM     18  C   LIG A   1      -7.275  -3.001 131.087  0.00  0.00    +0.001 A 
ATOM     19  C   LIG A   1      -6.114  -2.237 131.178  0.00  0.00    +0.002 A 
ATOM     20  C   LIG A   1      -5.500  -1.721 130.034  0.00  0.00    +0.026 A 
ENDROOT
BRANCH   1  21
ATOM     21  C   LIG A   1      -6.400  -3.277 124.694  0.00  0.00    +0.321 C 
ATOM     22  O   LIG A   1      -7.120  -4.128 124.183  0.00  0.00    -0.250 OA
BRANCH  21  23
ATOM     23  O   LIG A   1      -5.040  -3.489 124.820  0.00  0.00    -0.467 OA
ATOM     24  C   LIG A   1      -4.482  -4.335 123.811  0.00  0.00    +0.280 C 
ENDBRANCH  21  23
ENDBRANCH   1  21
BRANCH   8  25
ATOM     25  C   LIG A   1      -9.611   1.200 124.993  0.00  0.00    +0.116 C 
ATOM     26  C   LIG A   1     -10.322   1.492 123.676  0.00  0.00    +0.038 C 
BRANCH  25  27
ATOM     27  O   LIG A   1     -10.449   0.325 125.757  0.00  0.00    -0.392 OA
ATOM     28  H   LIG A   1     -11.123  -0.024 125.147  0.00  0.00    +0.210 HD
ENDBRANCH  25  27
ENDBRANCH   8  25
TORSDOF 4
ENDMDL
MODEL 3
REMARK VINA RESULT:      -7.4      2.254      5.537
REMARK  Name = NuBBE_1674
REMARK  6 active torsions:
REMARK  status: ('A' for Active; 'I' for Inactive)
REMARK    1  A    between atoms: C_1  and  O_3
REMARK    2  A    between atoms: C_1  and  C_5
REMARK    3  A    between atoms: O_3  and  C_4
REMARK    4  A    between atoms: C_14  and  C_16
REMARK    5  A    between atoms: C_16  and  C_18
REMARK    6  A    between atoms: C_16  and  O_19
REMARK                            x       y       z     vdW  Elec       q    Type
REMARK                         _______ _______ _______ _____ _____    ______ ____
ROOT
ATOM      1  C   LIG A   1      -6.895   2.253 124.936  0.00  0.00    +0.124 C 
ATOM      2  C   LIG A   1      -6.033   2.130 126.315  0.00  0.00    +0.085 C 
ATOM      3  N   LIG A   1      -6.638   3.038 127.244  0.00  0.00    -0.297 NA
ATOM      4  C   LIG A   1      -6.539   4.373 126.574  0.00  0.00    +0.088 C 
ATOM      5  C   LIG A   1      -5.630   4.317 125.222  0.00  0.00    +0.005 C 
ATOM      6  C   LIG A   1      -6.076   3.230 124.140  0.00  0.00    +0.030 C 
ATOM      7  C   LIG A   1      -4.261   3.837 125.702  0.00  0.00    +0.012 C 
ATOM      8  C   LIG A   1      -4.488   2.408 126.223  0.00  0.00    +0.036 C 
ATOM      9  C   LIG A   1      -7.969   2.467 127.610  0.00  0.00    +0.089 C 
ATOM     10  C   LIG A   1      -8.458   0.967 127.190  0.00  0.00    +0.053 C 
ATOM     11  C   LIG A   1      -8.012   0.255 125.873  0.00  0.00    -0.017 A 
ATOM     12  C   LIG A   1      -7.270   0.829 124.837  0.00  0.00    +0.039 A 
ATOM     13  N   LIG A   1      -6.985  -0.094 123.886  0.00  0.00    -0.357 N 
ATOM     14  H   LIG A   1      -6.471   0.062 123.029  0.00  0.00    +0.166 HD
ATOM     15  C   LIG A   1      -7.475  -1.315 124.300  0.00  0.00    +0.047 A 
ATOM     16  C   LIG A   1      -8.139  -1.124 125.520  0.00  0.00    +0.003 A 
ATOM     17  C   LIG A   1      -8.724  -2.240 126.150  0.00  0.00    +0.010 A 
ATOM     18  C   LIG A   1      -8.613  -3.502 125.555  0.00  0.00    +0.001 A 
ATOM     19  C   LIG A   1      -7.938  -3.664 124.348  0.00  0.00    +0.002 A 
ATOM     20  C   LIG A   1      -7.365  -2.571 123.692  0.00  0.00    +0.026 A 
ENDROOT
BRANCH   1  21
ATOM     21  C   LIG A   1      -8.375   2.888 124.652  0.00  0.00    +0.321 C 
ATOM     22  O   LIG A   1      -8.877   3.914 125.097  0.00  0.00    -0.250 OA
BRANCH  21  23
ATOM     23  O   LIG A   1      -9.036   2.140 123.695  0.00  0.00    -0.467 OA
ATOM     24  C   LIG A   1      -9.012   2.712 122.385  0.00  0.00    +0.280 C 
ENDBRANCH  21  23
ENDBRANCH   1  21
BRANCH   8  25
ATOM     25  C   LIG A   1      -3.740   2.196 127.562  0.00  0.00    +0.116 C 
ATOM     26  C   LIG A   1      -3.359   3.485 128.284  0.00  0.00    +0.038 C 
BRANCH  25  27
ATOM     27  O   LIG A   1      -4.591   1.443 128.433  0.00  0.00    -0.392 OA
ATOM     28  H   LIG A   1      -5.470   1.417 128.017  0.00  0.00    +0.210 HD
ENDBRANCH  25  27
ENDBRANCH   8  25
TORSDOF 4
ENDMDL
MODEL 4
REMARK VINA RESULT:      -6.9      2.612      4.555
REMARK  Name = NuBBE_1674
REMARK  6 active torsions:
REMARK  status: ('A' for Active; 'I' for Inactive)
REMARK    1  A    between atoms: C_1  and  O_3
REMARK    2  A    between atoms: C_1  and  C_5
REMARK    3  A    between atoms: O_3  and  C_4
REMARK    4  A    between atoms: C_14  and  C_16
REMARK    5  A    between atoms: C_16  and  C_18
REMARK    6  A    between atoms: C_16  and  O_19
REMARK                            x       y       z     vdW  Elec       q    Type
REMARK                         _______ _______ _______ _____ _____    ______ ____
ROOT
ATOM      1  C   LIG A   1      -7.350   0.160 126.319  0.00  0.00    +0.124 C 
ATOM      2  C   LIG A   1      -6.636  -0.427 124.974  0.00  0.00    +0.085 C 
ATOM      3  N   LIG A   1      -7.559  -0.201 123.902  0.00  0.00    -0.297 NA
ATOM      4  C   LIG A   1      -8.794  -0.940 124.316  0.00  0.00    +0.088 C 
ATOM      5  C   LIG A   1      -8.549  -1.853 125.644  0.00  0.00    +0.005 C 
ATOM      6  C   LIG A   1      -7.966  -1.077 126.912  0.00  0.00    +0.030 C 
ATOM      7  C   LIG A   1      -7.435  -2.819 125.243  0.00  0.00    +0.012 C 
ATOM      8  C   LIG A   1      -6.199  -1.938 124.996  0.00  0.00    +0.036 C 
ATOM      9  C   LIG A   1      -7.600   1.273 123.663  0.00  0.00    +0.089 C 
ATOM     10  C   LIG A   1      -6.568   2.332 124.357  0.00  0.00    +0.053 C 
ATOM     11  C   LIG A   1      -5.950   2.125 125.776  0.00  0.00    -0.017 A 
ATOM     12  C   LIG A   1      -6.284   1.113 126.680  0.00  0.00    +0.039 A 
ATOM     13  N   LIG A   1      -5.495   1.177 127.780  0.00  0.00    -0.357 N 
ATOM     14  H   LIG A   1      -5.535   0.569 128.588  0.00  0.00    +0.166 HD
ATOM     15  C   LIG A   1      -4.577   2.192 127.603  0.00  0.00    +0.047 A 
ATOM     16  C   LIG A   1      -4.852   2.814 126.377  0.00  0.00    +0.003 A 
ATOM     17  C   LIG A   1      -4.035   3.886 125.969  0.00  0.00    +0.010 A 
ATOM     18  C   LIG A   1      -2.969   4.288 126.783  0.00  0.00    +0.001 A 
ATOM     19  C   LIG A   1      -2.714   3.645 127.992  0.00  0.00    +0.002 A 
ATOM     20  C   LIG A   1      -3.520   2.590 128.430  0.00  0.00    +0.026 A 
ENDROOT
BRANCH   1  21
ATOM     21  C   LIG A   1      -8.620   1.174 126.499  0.00  0.00    +0.321 C 
ATOM     22  O   LIG A   1      -9.757   1.081 126.051  0.00  0.00    -0.250 OA
BRANCH  21  23
ATOM     23  O   LIG A   1      -8.289   2.197 127.369  0.00  0.00    -0.467 OA
ATOM     24  C   LIG A   1      -8.884   2.081 128.664  0.00  0.00    +0.280 C 
ENDBRANCH  21  23
ENDBRANCH   1  21
BRANCH   8  25
ATOM     25  C   LIG A   1      -5.464  -2.387 123.709  0.00  0.00    +0.116 C 
ATOM     26  C   LIG A   1      -4.808  -3.761 123.804  0.00  0.00    +0.038 C 
BRANCH  25  27
ATOM     27  O   LIG A   1      -6.419  -2.433 122.642  0.00  0.00    -0.392 OA
ATOM     28  H   LIG A   1      -6.146  -1.764 121.990  0.00  0.00    +0.210 HD
ENDBRANCH  25  27
ENDBRANCH   8  25
TORSDOF 4
ENDMDL
MODEL 5
REMARK VINA RESULT:      -6.9      4.338      6.433
REMARK  Name = NuBBE_1674
REMARK  6 active torsions:
REMARK  status: ('A' for Active; 'I' for Inactive)
REMARK    1  A    between atoms: C_1  and  O_3
REMARK    2  A    between atoms: C_1  and  C_5
REMARK    3  A    between atoms: O_3  and  C_4
REMARK    4  A    between atoms: C_14  and  C_16
REMARK    5  A    between atoms: C_16  and  C_18
REMARK    6  A    between atoms: C_16  and  O_19
REMARK                            x       y       z     vdW  Elec       q    Type
REMARK                         _______ _______ _______ _____ _____    ______ ____
ROOT
ATOM      1  C   LIG A   1      -6.467  -0.728 128.829  0.00  0.00    +0.124 C 
ATOM      2  C   LIG A   1      -5.813  -2.161 129.254  0.00  0.00    +0.085 C 
ATOM      3  N   LIG A   1      -6.396  -2.506 130.517  0.00  0.00    -0.297 NA
ATOM      4  C   LIG A   1      -6.026  -1.368 131.418  0.00  0.00    +0.088 C 
ATOM      5  C   LIG A   1      -4.970  -0.345 130.715  0.00  0.00    +0.005 C 
ATOM      6  C   LIG A   1      -5.424   0.245 129.302  0.00  0.00    +0.030 C 
ATOM      7  C   LIG A   1      -3.754  -1.213 130.392  0.00  0.00    +0.012 C 
ATOM      8  C   LIG A   1      -4.245  -2.233 129.351  0.00  0.00    +0.036 C 
ATOM      9  C   LIG A   1      -7.831  -2.837 130.260  0.00  0.00    +0.089 C 
ATOM     10  C   LIG A   1      -8.469  -3.001 128.767  0.00  0.00    +0.053 C 
ATOM     11  C   LIG A   1      -7.965  -2.201 127.524  0.00  0.00    -0.017 A 
ATOM     12  C   LIG A   1      -7.024  -1.168 127.536  0.00  0.00    +0.039 A 
ATOM     13  N   LIG A   1      -6.755  -0.754 126.273  0.00  0.00    -0.357 N 
ATOM     14  H   LIG A   1      -6.119  -0.015 126.003  0.00  0.00    +0.166 HD
ATOM     15  C   LIG A   1      -7.460  -1.546 125.392  0.00  0.00    +0.047 A 
ATOM     16  C   LIG A   1      -8.240  -2.439 126.142  0.00  0.00    +0.003 A 
ATOM     17  C   LIG A   1      -9.051  -3.363 125.455  0.00  0.00    +0.010 A 
ATOM     18  C   LIG A   1      -9.045  -3.378 124.056  0.00  0.00    +0.001 A 
ATOM     19  C   LIG A   1      -8.253  -2.486 123.338  0.00  0.00    +0.002 A 
ATOM     20  C   LIG A   1      -7.452  -1.546 123.992  0.00  0.00    +0.026 A 
ENDROOT
BRANCH   1  21
ATOM     21  C   LIG A   1      -7.795   0.049 129.385  0.00  0.00    +0.321 C 
ATOM     22  O   LIG A   1      -8.295   0.026 130.504  0.00  0.00    -0.250 OA
BRANCH  21  23
ATOM     23  O   LIG A   1      -8.294   0.891 128.409  0.00  0.00    -0.467 OA
ATOM     24  C   LIG A   1      -8.639   2.196 128.881  0.00  0.00    +0.280 C 
ENDBRANCH  21  23
ENDBRANCH   1  21
BRANCH   8  25
ATOM     25  C   LIG A   1      -3.710  -3.647 129.686  0.00  0.00    +0.116 C 
ATOM     26  C   LIG A   1      -2.559  -4.113 128.800  0.00  0.00    +0.038 C 
BRANCH  25  27
ATOM     27  O   LIG A   1      -3.242  -3.638 131.040  0.00  0.00    -0.392 OA
ATOM     28  H   LIG A   1      -2.355  -3.238 131.029  0.00  0.00    +0.210 HD
ENDBRANCH  25  27
ENDBRANCH   8  25
TORSDOF 4
ENDMDL
MODEL 6
REMARK VINA RESULT:      -6.8      3.094      6.698
REMARK  Name = NuBBE_1674
REMARK  6 active torsions:
REMARK  status: ('A' for Active; 'I' for Inactive)
REMARK    1  A    between atoms: C_1  and  O_3
REMARK    2  A    between atoms: C_1  and  C_5
REMARK    3  A    between atoms: O_3  and  C_4
REMARK    4  A    between atoms: C_14  and  C_16
REMARK    5  A    between atoms: C_16  and  C_18
REMARK    6  A    between atoms: C_16  and  O_19
REMARK                            x       y       z     vdW  Elec       q    Type
REMARK                         _______ _______ _______ _____ _____    ______ ____
ROOT
ATOM      1  C   LIG A   1      -6.930   2.298 125.809  0.00  0.00    +0.124 C 
ATOM      2  C   LIG A   1      -5.793   2.952 126.780  0.00  0.00    +0.085 C 
ATOM      3  N   LIG A   1      -6.272   4.256 127.131  0.00  0.00    -0.297 NA
ATOM      4  C   LIG A   1      -6.436   4.956 125.817  0.00  0.00    +0.088 C 
ATOM      5  C   LIG A   1      -5.826   4.090 124.579  0.00  0.00    +0.005 C 
ATOM      6  C   LIG A   1      -6.385   2.601 124.441  0.00  0.00    +0.030 C 
ATOM      7  C   LIG A   1      -4.349   3.912 124.929  0.00  0.00    +0.012 C 
ATOM      8  C   LIG A   1      -4.332   3.055 126.206  0.00  0.00    +0.036 C 
ATOM      9  C   LIG A   1      -7.442   4.062 128.041  0.00  0.00    +0.089 C 
ATOM     10  C   LIG A   1      -7.869   2.618 128.671  0.00  0.00    +0.053 C 
ATOM     11  C   LIG A   1      -7.643   1.258 127.936  0.00  0.00    -0.017 A 
ATOM     12  C   LIG A   1      -7.186   1.097 126.625  0.00  0.00    +0.039 A 
ATOM     13  N   LIG A   1      -7.022  -0.217 126.336  0.00  0.00    -0.357 N 
ATOM     14  H   LIG A   1      -6.712  -0.607 125.456  0.00  0.00    +0.166 HD
ATOM     15  C   LIG A   1      -7.303  -0.954 127.468  0.00  0.00    +0.047 A 
ATOM     16  C   LIG A   1      -7.715  -0.064 128.471  0.00  0.00    +0.003 A 
ATOM     17  C   LIG A   1      -8.053  -0.587 129.735  0.00  0.00    +0.010 A 
ATOM     18  C   LIG A   1      -7.953  -1.964 129.960  0.00  0.00    +0.001 A 
ATOM     19  C   LIG A   1      -7.532  -2.822 128.947  0.00  0.00    +0.002 A 
ATOM     20  C   LIG A   1      -7.207  -2.334 127.678  0.00  0.00    +0.026 A 
ENDROOT
BRANCH   1  21
ATOM     21  C   LIG A   1      -8.488   2.723 125.549  0.00  0.00    +0.321 C 
ATOM     22  O   LIG A   1      -8.961   3.827 125.304  0.00  0.00    -0.250 OA
BRANCH  21  23
ATOM     23  O   LIG A   1      -9.289   1.596 125.534  0.00  0.00    -0.467 OA
ATOM     24  C   LIG A   1     -10.053   1.436 124.336  0.00  0.00    +0.280 C 
ENDBRANCH  21  23
ENDBRANCH   1  21
BRANCH   8  25
ATOM     25  C   LIG A   1      -3.307   3.617 127.221  0.00  0.00    +0.116 C 
ATOM     26  C   LIG A   1      -1.863   3.202 126.956  0.00  0.00    +0.038 C 
BRANCH  25  27
ATOM     27  O   LIG A   1      -3.367   5.047 127.169  0.00  0.00    -0.392 OA
ATOM     28  H   LIG A   1      -2.598   5.343 126.651  0.00  0.00    +0.210 HD
ENDBRANCH  25  27
ENDBRANCH   8  25
TORSDOF 4
ENDMDL
MODEL 7
REMARK VINA RESULT:      -6.7      1.969      6.471
REMARK  Name = NuBBE_1674
REMARK  6 active torsions:
REMARK  status: ('A' for Active; 'I' for Inactive)
REMARK    1  A    between atoms: C_1  and  O_3
REMARK    2  A    between atoms: C_1  and  C_5
REMARK    3  A    between atoms: O_3  and  C_4
REMARK    4  A    between atoms: C_14  and  C_16
REMARK    5  A    between atoms: C_16  and  C_18
REMARK    6  A    between atoms: C_16  and  O_19
REMARK                            x       y       z     vdW  Elec       q    Type
REMARK                         _______ _______ _______ _____ _____    ______ ____
ROOT
ATOM      1  C   LIG A   1      -7.394   0.380 124.045  0.00  0.00    +0.124 C 
ATOM      2  C   LIG A   1      -7.708   1.765 124.849  0.00  0.00    +0.085 C 
ATOM      3  N   LIG A   1      -9.040   2.144 124.482  0.00  0.00    -0.297 NA
ATOM      4  C   LIG A   1      -8.986   2.295 122.994  0.00  0.00    +0.088 C 
ATOM      5  C   LIG A   1      -7.464   2.196 122.421  0.00  0.00    +0.005 C 
ATOM      6  C   LIG A   1      -6.659   0.880 122.834  0.00  0.00    +0.030 C 
ATOM      7  C   LIG A   1      -6.719   3.333 123.118  0.00  0.00    +0.012 C 
ATOM      8  C   LIG A   1      -6.724   2.970 124.612  0.00  0.00    +0.036 C 
ATOM      9  C   LIG A   1      -9.966   1.155 125.114  0.00  0.00    +0.089 C 
ATOM     10  C   LIG A   1      -9.490   0.039 126.206  0.00  0.00    +0.053 C 
ATOM     11  C   LIG A   1      -8.070  -0.612 126.208  0.00  0.00    -0.017 A 
ATOM     12  C   LIG A   1      -7.086  -0.442 125.230  0.00  0.00    +0.039 A 
ATOM     13  N   LIG A   1      -5.944  -1.079 125.588  0.00  0.00    -0.357 N 
ATOM     14  H   LIG A   1      -5.085  -1.123 125.056  0.00  0.00    +0.166 HD
ATOM     15  C   LIG A   1      -6.123  -1.631 126.840  0.00  0.00    +0.047 A 
ATOM     16  C   LIG A   1      -7.443  -1.376 127.240  0.00  0.00    +0.003 A 
ATOM     17  C   LIG A   1      -7.865  -1.841 128.500  0.00  0.00    +0.010 A 
ATOM     18  C   LIG A   1      -6.960  -2.522 129.322  0.00  0.00    +0.001 A 
ATOM     19  C   LIG A   1      -5.652  -2.752 128.902  0.00  0.00    +0.002 A 
ATOM     20  C   LIG A   1      -5.211  -2.318 127.649  0.00  0.00    +0.026 A 
ENDROOT
BRANCH   1  21
ATOM     21  C   LIG A   1      -8.398  -0.677 123.302  0.00  0.00    +0.321 C 
ATOM     22  O   LIG A   1      -9.432  -0.458 122.682  0.00  0.00    -0.250 OA
BRANCH  21  23
ATOM     23  O   LIG A   1      -7.868  -1.953 123.360  0.00  0.00    -0.467 OA
ATOM     24  C   LIG A   1      -8.848  -2.994 123.373  0.00  0.00    +0.280 C 
ENDBRANCH  21  23
ENDBRANCH   1  21
BRANCH   8  25
ATOM     25  C   LIG A   1      -7.055   4.215 125.471  0.00  0.00    +0.116 C 
ATOM     26  C   LIG A   1      -5.979   5.296 125.456  0.00  0.00    +0.038 C 
BRANCH  25  27
ATOM     27  O   LIG A   1      -8.264   4.796 124.967  0.00  0.00    -0.392 OA
ATOM     28  H   LIG A   1      -8.989   4.194 125.208  0.00  0.00    +0.210 HD
ENDBRANCH  25  27
ENDBRANCH   8  25
TORSDOF 4
ENDMDL
MODEL 8
REMARK VINA RESULT:      -6.6      2.759      6.864
REMARK  Name = NuBBE_1674
REMARK  6 active torsions:
REMARK  status: ('A' for Active; 'I' for Inactive)
REMARK    1  A    between atoms: C_1  and  O_3
REMARK    2  A    between atoms: C_1  and  C_5
REMARK    3  A    between atoms: O_3  and  C_4
REMARK    4  A    between atoms: C_14  and  C_16
REMARK    5  A    between atoms: C_16  and  C_18
REMARK    6  A    between atoms: C_16  and  O_19
REMARK                            x       y       z     vdW  Elec       q    Type
REMARK                         _______ _______ _______ _____ _____    ______ ____
ROOT
ATOM      1  C   LIG A   1      -6.544   1.081 125.723  0.00  0.00    +0.124 C 
ATOM      2  C   LIG A   1      -7.597   1.914 126.650  0.00  0.00    +0.085 C 
ATOM      3  N   LIG A   1      -8.738   2.172 125.822  0.00  0.00    -0.297 NA
ATOM      4  C   LIG A   1      -8.188   2.948 124.666  0.00  0.00    +0.088 C 
ATOM      5  C   LIG A   1      -6.631   3.372 124.894  0.00  0.00    +0.005 C 
ATOM      6  C   LIG A   1      -5.634   2.170 125.227  0.00  0.00    +0.030 C 
ATOM      7  C   LIG A   1      -6.648   4.217 126.168  0.00  0.00    +0.012 C 
ATOM      8  C   LIG A   1      -7.084   3.258 127.288  0.00  0.00    +0.036 C 
ATOM      9  C   LIG A   1      -9.424   0.862 125.602  0.00  0.00    +0.089 C 
ATOM     10  C   LIG A   1      -9.033  -0.509 126.397  0.00  0.00    +0.053 C 
ATOM     11  C   LIG A   1      -7.585  -0.837 126.885  0.00  0.00    -0.017 A 
ATOM     12  C   LIG A   1      -6.434  -0.098 126.602  0.00  0.00    +0.039 A 
ATOM     13  N   LIG A   1      -5.364  -0.615 127.254  0.00  0.00    -0.357 N 
ATOM     14  H   LIG A   1      -4.411  -0.276 127.214  0.00  0.00    +0.166 HD
ATOM     15  C   LIG A   1      -5.792  -1.668 128.035  0.00  0.00    +0.047 A 
ATOM     16  C   LIG A   1      -7.165  -1.844 127.807  0.00  0.00    +0.003 A 
ATOM     17  C   LIG A   1      -7.836  -2.867 128.505  0.00  0.00    +0.010 A 
ATOM     18  C   LIG A   1      -7.127  -3.662 129.412  0.00  0.00    +0.001 A 
ATOM     19  C   LIG A   1      -5.766  -3.457 129.625  0.00  0.00    +0.002 A 
ATOM     20  C   LIG A   1      -5.070  -2.462 128.933  0.00  0.00    +0.026 A 
ENDROOT
BRANCH   1  21
ATOM     21  C   LIG A   1      -6.760   0.283 124.312  0.00  0.00    +0.321 C 
ATOM     22  O   LIG A   1      -7.297   0.666 123.278  0.00  0.00    -0.250 OA
BRANCH  21  23
ATOM     23  O   LIG A   1      -6.134  -0.949 124.365  0.00  0.00    -0.467 OA
ATOM     24  C   LIG A   1      -6.391  -1.786 123.234  0.00  0.00    +0.280 C 
ENDBRANCH  21  23
ENDBRANCH   1  21
BRANCH   8  25
ATOM     25  C   LIG A   1      -8.124   3.940 128.210  0.00  0.00    +0.116 C 
ATOM     26  C   LIG A   1      -7.567   4.408 129.552  0.00  0.00    +0.038 C 
BRANCH  25  27
ATOM     27  O   LIG A   1      -8.640   5.089 127.528  0.00  0.00    -0.392 OA
ATOM     28  H   LIG A   1      -8.505   4.936 126.576  0.00  0.00    +0.210 HD
ENDBRANCH  25  27
ENDBRANCH   8  25
TORSDOF 4
ENDMDL
MODEL 9
REMARK VINA RESULT:      -6.6      2.885      5.474
REMARK  Name = NuBBE_1674
REMARK  6 active torsions:
REMARK  status: ('A' for Active; 'I' for Inactive)
REMARK    1  A    between atoms: C_1  and  O_3
REMARK    2  A    between atoms: C_1  and  C_5
REMARK    3  A    between atoms: O_3  and  C_4
REMARK    4  A    between atoms: C_14  and  C_16
REMARK    5  A    between atoms: C_16  and  C_18
REMARK    6  A    between atoms: C_16  and  O_19
REMARK                            x       y       z     vdW  Elec       q    Type
REMARK                         _______ _______ _______ _____ _____    ______ ____
ROOT
ATOM      1  C   LIG A   1      -6.280   0.236 126.078  0.00  0.00    +0.124 C 
ATOM      2  C   LIG A   1      -7.340   1.237 125.345  0.00  0.00    +0.085 C 
ATOM      3  N   LIG A   1      -8.628   0.919 125.887  0.00  0.00    -0.297 NA
ATOM      4  C   LIG A   1      -8.820  -0.529 125.559  0.00  0.00    +0.088 C 
ATOM      5  C   LIG A   1      -7.657  -1.095 124.569  0.00  0.00    +0.005 C 
ATOM      6  C   LIG A   1      -6.158  -0.879 125.077  0.00  0.00    +0.030 C 
ATOM      7  C   LIG A   1      -7.764  -0.226 123.317  0.00  0.00    +0.012 C 
ATOM      8  C   LIG A   1      -7.396   1.195 123.773  0.00  0.00    +0.036 C 
ATOM      9  C   LIG A   1      -8.631   1.385 127.308  0.00  0.00    +0.089 C 
ATOM     10  C   LIG A   1      -7.449   2.300 127.963  0.00  0.00    +0.053 C 
ATOM     11  C   LIG A   1      -5.952   2.217 127.522  0.00  0.00    -0.017 A 
ATOM     12  C   LIG A   1      -5.406   1.286 126.634  0.00  0.00    +0.039 A 
ATOM     13  N   LIG A   1      -4.097   1.555 126.408  0.00  0.00    -0.357 N 
ATOM     14  H   LIG A   1      -3.467   1.030 125.815  0.00  0.00    +0.166 HD
ATOM     15  C   LIG A   1      -3.761   2.706 127.088  0.00  0.00    +0.047 A 
ATOM     16  C   LIG A   1      -4.889   3.127 127.809  0.00  0.00    +0.003 A 
ATOM     17  C   LIG A   1      -4.792   4.299 128.584  0.00  0.00    +0.010 A 
ATOM     18  C   LIG A   1      -3.591   5.016 128.602  0.00  0.00    +0.001 A 
ATOM     19  C   LIG A   1      -2.490   4.580 127.868  0.00  0.00    +0.002 A 
ATOM     20  C   LIG A   1      -2.552   3.411 127.105  0.00  0.00    +0.026 A 
ENDROOT
BRANCH   1  21
ATOM     21  C   LIG A   1      -6.425  -0.668 127.433  0.00  0.00    +0.321 C 
ATOM     22  O   LIG A   1      -7.414  -1.232 127.887  0.00  0.00    -0.250 OA
BRANCH  21  23
ATOM     23  O   LIG A   1      -5.186  -0.836 128.025  0.00  0.00    -0.467 OA
ATOM     24  C   LIG A   1      -4.982  -2.128 128.602  0.00  0.00    +0.280 C 
ENDBRANCH  21  23
ENDBRANCH   1  21
BRANCH   8  25
ATOM     25  C   LIG A   1      -8.374   2.229 123.162  0.00  0.00    +0.116 C 
ATOM     26  C   LIG A   1      -9.681   1.634 122.646  0.00  0.00    +0.038 C 
BRANCH  25  27
ATOM     27  O   LIG A   1      -8.702   3.187 124.176  0.00  0.00    -0.392 OA
ATOM     28  H   LIG A   1      -8.718   4.059 123.745  0.00  0.00    +0.210 HD
ENDBRANCH  25  27
ENDBRANCH   8  25
TORSDOF 4
ENDMDL
