MODEL 1
REMARK VINA RESULT:      -8.0      0.000      0.000
REMARK  Name = NuBBE_951
REMARK  14 active torsions:
REMARK  status: ('A' for Active; 'I' for Inactive)
REMARK    1  A    between atoms: C_5  and  O_6
REMARK    2  A    between atoms: O_6  and  C_7
REMARK    3  A    between atoms: C_8  and  O_9
REMARK    4  A    between atoms: C_10  and  C_11
REMARK    5  A    between atoms: C_11  and  C_12
REMARK    6  A    between atoms: C_13  and  C_14
REMARK    7  A    between atoms: C_13  and  C_15
REMARK    8  A    between atoms: C_16  and  O_17
REMARK    9  A    between atoms: N_18  and  C_19
REMARK   10  A    between atoms: C_21  and  O_22
REMARK   11  A    between atoms: C_25  and  C_26
REMARK   12  A    between atoms: C_26  and  C_27
REMARK   13  A    between atoms: C_28  and  C_29
REMARK   14  A    between atoms: C_28  and  C_30
REMARK                            x       y       z     vdW  Elec       q    Type
REMARK                         _______ _______ _______ _____ _____    ______ ____
ROOT
ATOM      1  O   LIG A   1      -5.221  -0.292 127.282  0.00  0.00    -0.286 OA
ATOM      2  C   LIG A   1      -6.058  -0.055 126.428  0.00  0.00    +0.201 A 
ATOM      3  C   LIG A   1      -5.959   1.241 125.723  0.00  0.00    +0.091 A 
ATOM      4  C   LIG A   1      -6.951   1.595 124.797  0.00  0.00    +0.102 A 
ATOM      5  C   LIG A   1      -6.846   2.886 124.230  0.00  0.00    +0.186 A 
ATOM      6  C   LIG A   1      -5.918   3.823 124.727  0.00  0.00    +0.168 A 
ATOM      7  C   LIG A   1      -4.946   3.468 125.661  0.00  0.00    +0.044 A 
ATOM      8  C   LIG A   1      -4.937   2.143 126.099  0.00  0.00    +0.137 A 
ATOM      9  N   LIG A   1      -7.993   0.665 124.494  0.00  0.00    -0.337 N 
ATOM     10  C   LIG A   1      -9.315   1.314 124.318  0.00  0.00    +0.149 C 
ATOM     11  C   LIG A   1      -8.059  -0.629 125.099  0.00  0.00    +0.095 A 
ATOM     12  C   LIG A   1      -9.016  -1.589 124.707  0.00  0.00    +0.141 A 
ATOM     13  C   LIG A   1      -9.210  -2.771 125.408  0.00  0.00    +0.048 A 
ATOM     14  C   LIG A   1      -8.370  -3.079 126.471  0.00  0.00    +0.008 A 
ATOM     15  C   LIG A   1      -7.304  -2.229 126.823  0.00  0.00    -0.031 A 
ATOM     16  C   LIG A   1      -7.157  -1.003 126.118  0.00  0.00    +0.053 A 
ENDROOT
BRANCH   5  17
ATOM     17  O   LIG A   1      -7.712   3.292 123.239  0.00  0.00    -0.489 OA
ATOM     18  C   LIG A   1      -7.110   3.168 121.944  0.00  0.00    +0.277 C 
ENDBRANCH   5  17
BRANCH   6  19
ATOM     19  O   LIG A   1      -6.007   5.133 124.330  0.00  0.00    -0.503 OA
ATOM     20  H   LIG A   1      -5.280   5.604 124.777  0.00  0.00    +0.292 HD
ENDBRANCH   6  19
BRANCH   8  21
ATOM     21  O   LIG A   1      -3.917   1.779 126.945  0.00  0.00    -0.506 OA
ATOM     22  H   LIG A   1      -4.149   0.912 127.346  0.00  0.00    +0.292 HD
ENDBRANCH   8  21
BRANCH  12  23
ATOM     23  O   LIG A   1      -9.769  -1.430 123.572  0.00  0.00    -0.505 OA
ATOM     24  H   LIG A   1      -9.710  -2.281 123.099  0.00  0.00    +0.292 HD
ENDBRANCH  12  23
BRANCH   7  25
ATOM     25  C   LIG A   1      -4.030   4.494 126.298  0.00  0.00    +0.069 C 
BRANCH  25  26
ATOM     26  C   LIG A   1      -4.562   4.972 127.633  0.00  0.00    -0.023 C 
ATOM     27  C   LIG A   1      -3.914   5.711 128.557  0.00  0.00    -0.079 C 
ATOM     28  C   LIG A   1      -2.515   6.238 128.408  0.00  0.00    +0.038 C 
ATOM     29  C   LIG A   1      -4.580   6.084 129.856  0.00  0.00    +0.038 C 
ENDBRANCH  25  26
ENDBRANCH   7  25
BRANCH  15  30
ATOM     30  C   LIG A   1      -6.365  -2.729 127.911  0.00  0.00    +0.063 C 
BRANCH  30  31
ATOM     31  C   LIG A   1      -6.971  -2.599 129.287  0.00  0.00    -0.024 C 
ATOM     32  C   LIG A   1      -6.732  -3.342 130.387  0.00  0.00    -0.079 C 
ATOM     33  C   LIG A   1      -5.803  -4.521 130.460  0.00  0.00    +0.038 C 
ATOM     34  C   LIG A   1      -7.393  -2.994 131.697  0.00  0.00    +0.038 C 
ENDBRANCH  30  31
ENDBRANCH  15  30
TORSDOF 8
ENDMDL
MODEL 2
REMARK VINA RESULT:      -7.8      5.138      8.833
REMARK  Name = NuBBE_951
REMARK  14 active torsions:
REMARK  status: ('A' for Active; 'I' for Inactive)
REMARK    1  A    between atoms: C_5  and  O_6
REMARK    2  A    between atoms: O_6  and  C_7
REMARK    3  A    between atoms: C_8  and  O_9
REMARK    4  A    between atoms: C_10  and  C_11
REMARK    5  A    between atoms: C_11  and  C_12
REMARK    6  A    between atoms: C_13  and  C_14
REMARK    7  A    between atoms: C_13  and  C_15
REMARK    8  A    between atoms: C_16  and  O_17
REMARK    9  A    between atoms: N_18  and  C_19
REMARK   10  A    between atoms: C_21  and  O_22
REMARK   11  A    between atoms: C_25  and  C_26
REMARK   12  A    between atoms: C_26  and  C_27
REMARK   13  A    between atoms: C_28  and  C_29
REMARK   14  A    between atoms: C_28  and  C_30
REMARK                            x       y       z     vdW  Elec       q    Type
REMARK                         _______ _______ _______ _____ _____    ______ ____
ROOT
ATOM      1  O   LIG A   1      -8.282   4.268 127.997  0.00  0.00    -0.286 OA
ATOM      2  C   LIG A   1      -7.486   4.493 128.893  0.00  0.00    +0.201 A 
ATOM      3  C   LIG A   1      -8.038   4.841 130.219  0.00  0.00    +0.091 A 
ATOM      4  C   LIG A   1      -7.161   5.194 131.256  0.00  0.00    +0.102 A 
ATOM      5  C   LIG A   1      -7.760   5.606 132.469  0.00  0.00    +0.186 A 
ATOM      6  C   LIG A   1      -9.147   5.840 132.551  0.00  0.00    +0.168 A 
ATOM      7  C   LIG A   1     -10.010   5.503 131.508  0.00  0.00    +0.044 A 
ATOM      8  C   LIG A   1      -9.441   4.933 130.369  0.00  0.00    +0.137 A 
ATOM      9  N   LIG A   1      -5.751   5.133 131.034  0.00  0.00    -0.337 N 
ATOM     10  C   LIG A   1      -5.016   6.251 131.676  0.00  0.00    +0.149 C 
ATOM     11  C   LIG A   1      -5.193   4.715 129.785  0.00  0.00    +0.095 A 
ATOM     12  C   LIG A   1      -3.805   4.539 129.609  0.00  0.00    +0.141 A 
ATOM     13  C   LIG A   1      -3.239   4.315 128.361  0.00  0.00    +0.048 A 
ATOM     14  C   LIG A   1      -4.065   4.154 127.256  0.00  0.00    +0.008 A 
ATOM     15  C   LIG A   1      -5.466   4.177 127.390  0.00  0.00    -0.031 A 
ATOM     16  C   LIG A   1      -6.019   4.454 128.670  0.00  0.00    +0.053 A 
ENDROOT
BRANCH   5  17
ATOM     17  O   LIG A   1      -6.988   5.878 133.577  0.00  0.00    -0.489 OA
ATOM     18  C   LIG A   1      -6.889   4.731 134.432  0.00  0.00    +0.277 C 
ENDBRANCH   5  17
BRANCH   6  19
ATOM     19  O   LIG A   1      -9.659   6.470 133.656  0.00  0.00    -0.503 OA
ATOM     20  H   LIG A   1      -9.636   5.816 134.379  0.00  0.00    +0.292 HD
ENDBRANCH   6  19
BRANCH   8  21
ATOM     21  O   LIG A   1     -10.309   4.516 129.388  0.00  0.00    -0.506 OA
ATOM     22  H   LIG A   1     -10.180   3.549 129.259  0.00  0.00    +0.292 HD
ENDBRANCH   8  21
BRANCH  12  23
ATOM     23  O   LIG A   1      -2.942   4.521 130.674  0.00  0.00    -0.505 OA
ATOM     24  H   LIG A   1      -2.067   4.742 130.305  0.00  0.00    +0.292 HD
ENDBRANCH  12  23
BRANCH   7  25
ATOM     25  C   LIG A   1     -11.481   5.868 131.533  0.00  0.00    +0.069 C 
BRANCH  25  26
ATOM     26  C   LIG A   1     -11.725   7.254 130.973  0.00  0.00    -0.023 C 
ATOM     27  C   LIG A   1     -12.379   7.577 129.838  0.00  0.00    -0.079 C 
ATOM     28  C   LIG A   1     -13.033   6.590 128.913  0.00  0.00    +0.038 C 
ATOM     29  C   LIG A   1     -12.514   9.013 129.403  0.00  0.00    +0.038 C 
ENDBRANCH  25  26
ENDBRANCH   7  25
BRANCH  15  30
ATOM     30  C   LIG A   1      -6.275   3.854 126.142  0.00  0.00    +0.063 C 
BRANCH  30  31
ATOM     31  C   LIG A   1      -5.545   4.234 124.877  0.00  0.00    -0.024 C 
ATOM     32  C   LIG A   1      -5.827   3.889 123.604  0.00  0.00    -0.079 C 
ATOM     33  C   LIG A   1      -6.951   2.991 123.172  0.00  0.00    +0.038 C 
ATOM     34  C   LIG A   1      -5.007   4.445 122.468  0.00  0.00    +0.038 C 
ENDBRANCH  30  31
ENDBRANCH  15  30
TORSDOF 8
ENDMDL
MODEL 3
REMARK VINA RESULT:      -7.8      4.145      8.141
REMARK  Name = NuBBE_951
REMARK  14 active torsions:
REMARK  status: ('A' for Active; 'I' for Inactive)
REMARK    1  A    between atoms: C_5  and  O_6
REMARK    2  A    between atoms: O_6  and  C_7
REMARK    3  A    between atoms: C_8  and  O_9
REMARK    4  A    between atoms: C_10  and  C_11
REMARK    5  A    between atoms: C_11  and  C_12
REMARK    6  A    between atoms: C_13  and  C_14
REMARK    7  A    between atoms: C_13  and  C_15
REMARK    8  A    between atoms: C_16  and  O_17
REMARK    9  A    between atoms: N_18  and  C_19
REMARK   10  A    between atoms: C_21  and  O_22
REMARK   11  A    between atoms: C_25  and  C_26
REMARK   12  A    between atoms: C_26  and  C_27
REMARK   13  A    between atoms: C_28  and  C_29
REMARK   14  A    between atoms: C_28  and  C_30
REMARK                            x       y       z     vdW  Elec       q    Type
REMARK                         _______ _______ _______ _____ _____    ______ ____
ROOT
ATOM      1  O   LIG A   1      -9.517   3.064 129.006  0.00  0.00    -0.286 OA
ATOM      2  C   LIG A   1      -8.360   3.448 129.056  0.00  0.00    +0.201 A 
ATOM      3  C   LIG A   1      -7.383   2.773 128.175  0.00  0.00    +0.091 A 
ATOM      4  C   LIG A   1      -6.027   3.120 128.263  0.00  0.00    +0.102 A 
ATOM      5  C   LIG A   1      -5.137   2.370 127.460  0.00  0.00    +0.186 A 
ATOM      6  C   LIG A   1      -5.570   1.217 126.777  0.00  0.00    +0.168 A 
ATOM      7  C   LIG A   1      -6.919   0.869 126.709  0.00  0.00    +0.044 A 
ATOM      8  C   LIG A   1      -7.827   1.706 127.360  0.00  0.00    +0.137 A 
ATOM      9  N   LIG A   1      -5.627   4.172 129.143  0.00  0.00    -0.337 N 
ATOM     10  C   LIG A   1      -4.344   3.892 129.833  0.00  0.00    +0.149 C 
ATOM     11  C   LIG A   1      -6.567   4.897 129.941  0.00  0.00    +0.095 A 
ATOM     12  C   LIG A   1      -6.185   6.013 130.714  0.00  0.00    +0.141 A 
ATOM     13  C   LIG A   1      -7.042   6.608 131.630  0.00  0.00    +0.048 A 
ATOM     14  C   LIG A   1      -8.355   6.165 131.723  0.00  0.00    +0.008 A 
ATOM     15  C   LIG A   1      -8.839   5.148 130.877  0.00  0.00    -0.031 A 
ATOM     16  C   LIG A   1      -7.928   4.525 129.981  0.00  0.00    +0.053 A 
ENDROOT
BRANCH   5  17
ATOM     17  O   LIG A   1      -3.800   2.697 127.400  0.00  0.00    -0.489 OA
ATOM     18  C   LIG A   1      -3.534   3.590 126.310  0.00  0.00    +0.277 C 
ENDBRANCH   5  17
BRANCH   6  19
ATOM     19  O   LIG A   1      -4.643   0.380 126.214  0.00  0.00    -0.503 OA
ATOM     20  H   LIG A   1      -5.127  -0.421 125.939  0.00  0.00    +0.292 HD
ENDBRANCH   6  19
BRANCH   8  21
ATOM     21  O   LIG A   1      -9.160   1.409 127.206  0.00  0.00    -0.506 OA
ATOM     22  H   LIG A   1      -9.624   1.656 128.038  0.00  0.00    +0.292 HD
ENDBRANCH   8  21
BRANCH  12  23
ATOM     23  O   LIG A   1      -4.961   6.610 130.559  0.00  0.00    -0.505 OA
ATOM     24  H   LIG A   1      -4.310   5.885 130.604  0.00  0.00    +0.292 HD
ENDBRANCH  12  23
BRANCH   7  25
ATOM     25  C   LIG A   1      -7.383  -0.434 126.090  0.00  0.00    +0.069 C 
BRANCH  25  26
ATOM     26  C   LIG A   1      -7.588  -1.512 127.135  0.00  0.00    -0.023 C 
ATOM     27  C   LIG A   1      -8.455  -2.544 127.091  0.00  0.00    -0.079 C 
ATOM     28  C   LIG A   1      -9.380  -2.840 125.943  0.00  0.00    +0.038 C 
ATOM     29  C   LIG A   1      -8.556  -3.521 128.233  0.00  0.00    +0.038 C 
ENDBRANCH  25  26
ENDBRANCH   7  25
BRANCH  15  30
ATOM     30  C   LIG A   1     -10.325   4.835 130.969  0.00  0.00    +0.063 C 
BRANCH  30  31
ATOM     31  C   LIG A   1     -11.131   6.030 131.413  0.00  0.00    -0.024 C 
ATOM     32  C   LIG A   1     -12.097   6.692 130.744  0.00  0.00    -0.079 C 
ATOM     33  C   LIG A   1     -12.563   6.381 129.349  0.00  0.00    +0.038 C 
ATOM     34  C   LIG A   1     -12.840   7.825 131.406  0.00  0.00    +0.038 C 
ENDBRANCH  30  31
ENDBRANCH  15  30
TORSDOF 8
ENDMDL
MODEL 4
REMARK VINA RESULT:      -7.8      5.281      8.984
REMARK  Name = NuBBE_951
REMARK  14 active torsions:
REMARK  status: ('A' for Active; 'I' for Inactive)
REMARK    1  A    between atoms: C_5  and  O_6
REMARK    2  A    between atoms: O_6  and  C_7
REMARK    3  A    between atoms: C_8  and  O_9
REMARK    4  A    between atoms: C_10  and  C_11
REMARK    5  A    between atoms: C_11  and  C_12
REMARK    6  A    between atoms: C_13  and  C_14
REMARK    7  A    between atoms: C_13  and  C_15
REMARK    8  A    between atoms: C_16  and  O_17
REMARK    9  A    between atoms: N_18  and  C_19
REMARK   10  A    between atoms: C_21  and  O_22
REMARK   11  A    between atoms: C_25  and  C_26
REMARK   12  A    between atoms: C_26  and  C_27
REMARK   13  A    between atoms: C_28  and  C_29
REMARK   14  A    between atoms: C_28  and  C_30
REMARK                            x       y       z     vdW  Elec       q    Type
REMARK                         _______ _______ _______ _____ _____    ______ ____
ROOT
ATOM      1  O   LIG A   1      -8.739   4.974 127.829  0.00  0.00    -0.286 OA
ATOM      2  C   LIG A   1      -8.787   4.442 128.926  0.00  0.00    +0.201 A 
ATOM      3  C   LIG A   1      -8.158   3.111 129.061  0.00  0.00    +0.091 A 
ATOM      4  C   LIG A   1      -8.266   2.423 130.279  0.00  0.00    +0.102 A 
ATOM      5  C   LIG A   1      -7.723   1.117 130.309  0.00  0.00    +0.186 A 
ATOM      6  C   LIG A   1      -7.291   0.483 129.128  0.00  0.00    +0.168 A 
ATOM      7  C   LIG A   1      -7.204   1.169 127.918  0.00  0.00    +0.044 A 
ATOM      8  C   LIG A   1      -7.577   2.514 127.918  0.00  0.00    +0.137 A 
ATOM      9  N   LIG A   1      -8.911   3.053 131.387  0.00  0.00    -0.337 N 
ATOM     10  C   LIG A   1      -9.740   2.116 132.184  0.00  0.00    +0.149 C 
ATOM     11  C   LIG A   1      -9.450   4.375 131.304  0.00  0.00    +0.095 A 
ATOM     12  C   LIG A   1      -9.975   5.040 132.432  0.00  0.00    +0.141 A 
ATOM     13  C   LIG A   1     -10.664   6.241 132.330  0.00  0.00    +0.048 A 
ATOM     14  C   LIG A   1     -10.757   6.871 131.096  0.00  0.00    +0.008 A 
ATOM     15  C   LIG A   1     -10.132   6.330 129.956  0.00  0.00    -0.031 A 
ATOM     16  C   LIG A   1      -9.472   5.077 130.079  0.00  0.00    +0.053 A 
ENDROOT
BRANCH   5  17
ATOM     17  O   LIG A   1      -7.691   0.397 131.484  0.00  0.00    -0.489 OA
ATOM     18  C   LIG A   1      -6.431   0.554 132.151  0.00  0.00    +0.277 C 
ENDBRANCH   5  17
BRANCH   6  19
ATOM     19  O   LIG A   1      -7.004  -0.858 129.151  0.00  0.00    -0.503 OA
ATOM     20  H   LIG A   1      -6.764  -1.102 128.238  0.00  0.00    +0.292 HD
ENDBRANCH   6  19
BRANCH   8  21
ATOM     21  O   LIG A   1      -7.396   3.206 126.745  0.00  0.00    -0.506 OA
ATOM     22  H   LIG A   1      -7.741   2.651 126.009  0.00  0.00    +0.292 HD
ENDBRANCH   8  21
BRANCH  12  23
ATOM     23  O   LIG A   1      -9.779   4.563 133.702  0.00  0.00    -0.505 OA
ATOM     24  H   LIG A   1      -9.672   3.599 133.605  0.00  0.00    +0.292 HD
ENDBRANCH  12  23
BRANCH   7  25
ATOM     25  C   LIG A   1      -6.865   0.466 126.618  0.00  0.00    +0.069 C 
BRANCH  25  26
ATOM     26  C   LIG A   1      -8.004  -0.410 126.139  0.00  0.00    -0.023 C 
ATOM     27  C   LIG A   1      -7.945  -1.709 125.781  0.00  0.00    -0.079 C 
ATOM     28  C   LIG A   1      -6.705  -2.557 125.827  0.00  0.00    +0.038 C 
ATOM     29  C   LIG A   1      -9.172  -2.437 125.298  0.00  0.00    +0.038 C 
ENDBRANCH  25  26
ENDBRANCH   7  25
BRANCH  15  30
ATOM     30  C   LIG A   1     -10.181   7.170 128.689  0.00  0.00    +0.063 C 
BRANCH  30  31
ATOM     31  C   LIG A   1     -11.184   8.293 128.790  0.00  0.00    -0.024 C 
ATOM     32  C   LIG A   1     -12.491   8.289 128.460  0.00  0.00    -0.079 C 
ATOM     33  C   LIG A   1     -13.239   7.127 127.869  0.00  0.00    +0.038 C 
ATOM     34  C   LIG A   1     -13.343   9.507 128.714  0.00  0.00    +0.038 C 
ENDBRANCH  30  31
ENDBRANCH  15  30
TORSDOF 8
ENDMDL
MODEL 5
REMARK VINA RESULT:      -7.7      5.328      7.256
REMARK  Name = NuBBE_951
REMARK  14 active torsions:
REMARK  status: ('A' for Active; 'I' for Inactive)
REMARK    1  A    between atoms: C_5  and  O_6
REMARK    2  A    between atoms: O_6  and  C_7
REMARK    3  A    between atoms: C_8  and  O_9
REMARK    4  A    between atoms: C_10  and  C_11
REMARK    5  A    between atoms: C_11  and  C_12
REMARK    6  A    between atoms: C_13  and  C_14
REMARK    7  A    between atoms: C_13  and  C_15
REMARK    8  A    between atoms: C_16  and  O_17
REMARK    9  A    between atoms: N_18  and  C_19
REMARK   10  A    between atoms: C_21  and  O_22
REMARK   11  A    between atoms: C_25  and  C_26
REMARK   12  A    between atoms: C_26  and  C_27
REMARK   13  A    between atoms: C_28  and  C_29
REMARK   14  A    between atoms: C_28  and  C_30
REMARK                            x       y       z     vdW  Elec       q    Type
REMARK                         _______ _______ _______ _____ _____    ______ ____
ROOT
ATOM      1  O   LIG A   1      -8.640   2.724 128.208  0.00  0.00    -0.286 OA
ATOM      2  C   LIG A   1      -8.620   2.363 129.373  0.00  0.00    +0.201 A 
ATOM      3  C   LIG A   1      -9.015   3.352 130.397  0.00  0.00    +0.091 A 
ATOM      4  C   LIG A   1      -8.922   3.009 131.754  0.00  0.00    +0.102 A 
ATOM      5  C   LIG A   1      -9.226   4.034 132.680  0.00  0.00    +0.186 A 
ATOM      6  C   LIG A   1      -9.408   5.365 132.257  0.00  0.00    +0.168 A 
ATOM      7  C   LIG A   1      -9.481   5.701 130.905  0.00  0.00    +0.044 A 
ATOM      8  C   LIG A   1      -9.353   4.662 129.982  0.00  0.00    +0.137 A 
ATOM      9  N   LIG A   1      -8.524   1.687 132.118  0.00  0.00    -0.337 N 
ATOM     10  C   LIG A   1      -7.634   1.656 133.305  0.00  0.00    +0.149 C 
ATOM     11  C   LIG A   1      -8.221   0.686 131.142  0.00  0.00    +0.095 A 
ATOM     12  C   LIG A   1      -7.948  -0.650 131.502  0.00  0.00    +0.141 A 
ATOM     13  C   LIG A   1      -7.474  -1.582 130.588  0.00  0.00    +0.048 A 
ATOM     14  C   LIG A   1      -7.359  -1.228 129.251  0.00  0.00    +0.008 A 
ATOM     15  C   LIG A   1      -7.750   0.048 128.802  0.00  0.00    -0.031 A 
ATOM     16  C   LIG A   1      -8.188   0.998 129.765  0.00  0.00    +0.053 A 
ENDROOT
BRANCH   5  17
ATOM     17  O   LIG A   1      -9.259   3.771 134.032  0.00  0.00    -0.489 OA
ATOM     18  C   LIG A   1      -8.174   4.416 134.711  0.00  0.00    +0.277 C 
ENDBRANCH   5  17
BRANCH   6  19
ATOM     19  O   LIG A   1      -9.454   6.368 133.190  0.00  0.00    -0.503 OA
ATOM     20  H   LIG A   1     -10.037   6.051 133.904  0.00  0.00    +0.292 HD
ENDBRANCH   6  19
BRANCH   8  21
ATOM     21  O   LIG A   1      -9.524   4.987 128.658  0.00  0.00    -0.506 OA
ATOM     22  H   LIG A   1      -8.884   5.701 128.436  0.00  0.00    +0.292 HD
ENDBRANCH   8  21
BRANCH  12  23
ATOM     23  O   LIG A   1      -8.194  -1.118 132.767  0.00  0.00    -0.505 OA
ATOM     24  H   LIG A   1      -9.122  -0.887 132.954  0.00  0.00    +0.292 HD
ENDBRANCH  12  23
BRANCH   7  25
ATOM     25  C   LIG A   1      -9.546   7.141 130.437  0.00  0.00    +0.069 C 
BRANCH  25  26
ATOM     26  C   LIG A   1     -10.972   7.584 130.179  0.00  0.00    -0.023 C 
ATOM     27  C   LIG A   1     -11.469   8.131 129.050  0.00  0.00    -0.079 C 
ATOM     28  C   LIG A   1     -10.681   8.374 127.794  0.00  0.00    +0.038 C 
ATOM     29  C   LIG A   1     -12.915   8.545 128.962  0.00  0.00    +0.038 C 
ENDBRANCH  25  26
ENDBRANCH   7  25
BRANCH  15  30
ATOM     30  C   LIG A   1      -7.711   0.284 127.299  0.00  0.00    +0.063 C 
BRANCH  30  31
ATOM     31  C   LIG A   1      -8.538  -0.727 126.544  0.00  0.00    -0.024 C 
ATOM     32  C   LIG A   1      -8.121  -1.773 125.802  0.00  0.00    -0.079 C 
ATOM     33  C   LIG A   1      -6.688  -2.139 125.537  0.00  0.00    +0.038 C 
ATOM     34  C   LIG A   1      -9.124  -2.716 125.187  0.00  0.00    +0.038 C 
ENDBRANCH  30  31
ENDBRANCH  15  30
TORSDOF 8
ENDMDL
MODEL 6
REMARK VINA RESULT:      -7.7      2.597      3.034
REMARK  Name = NuBBE_951
REMARK  14 active torsions:
REMARK  status: ('A' for Active; 'I' for Inactive)
REMARK    1  A    between atoms: C_5  and  O_6
REMARK    2  A    between atoms: O_6  and  C_7
REMARK    3  A    between atoms: C_8  and  O_9
REMARK    4  A    between atoms: C_10  and  C_11
REMARK    5  A    between atoms: C_11  and  C_12
REMARK    6  A    between atoms: C_13  and  C_14
REMARK    7  A    between atoms: C_13  and  C_15
REMARK    8  A    between atoms: C_16  and  O_17
REMARK    9  A    between atoms: N_18  and  C_19
REMARK   10  A    between atoms: C_21  and  O_22
REMARK   11  A    between atoms: C_25  and  C_26
REMARK   12  A    between atoms: C_26  and  C_27
REMARK   13  A    between atoms: C_28  and  C_29
REMARK   14  A    between atoms: C_28  and  C_30
REMARK                            x       y       z     vdW  Elec       q    Type
REMARK                         _______ _______ _______ _____ _____    ______ ____
ROOT
ATOM      1  O   LIG A   1      -7.825  -0.440 129.158  0.00  0.00    -0.286 OA
ATOM      2  C   LIG A   1      -7.851  -0.256 127.952  0.00  0.00    +0.201 A 
ATOM      3  C   LIG A   1      -7.636   1.126 127.473  0.00  0.00    +0.091 A 
ATOM      4  C   LIG A   1      -7.746   1.400 126.102  0.00  0.00    +0.102 A 
ATOM      5  C   LIG A   1      -7.622   2.757 125.724  0.00  0.00    +0.186 A 
ATOM      6  C   LIG A   1      -7.596   3.781 126.691  0.00  0.00    +0.168 A 
ATOM      7  C   LIG A   1      -7.505   3.499 128.054  0.00  0.00    +0.044 A 
ATOM      8  C   LIG A   1      -7.453   2.155 128.425  0.00  0.00    +0.137 A 
ATOM      9  N   LIG A   1      -7.985   0.328 125.188  0.00  0.00    -0.337 N 
ATOM     10  C   LIG A   1      -8.917   0.697 124.094  0.00  0.00    +0.149 C 
ATOM     11  C   LIG A   1      -8.110  -1.029 125.621  0.00  0.00    +0.095 A 
ATOM     12  C   LIG A   1      -8.222  -2.097 124.707  0.00  0.00    +0.141 A 
ATOM     13  C   LIG A   1      -8.528  -3.390 125.112  0.00  0.00    +0.048 A 
ATOM     14  C   LIG A   1      -8.626  -3.675 126.467  0.00  0.00    +0.008 A 
ATOM     15  C   LIG A   1      -8.384  -2.682 127.436  0.00  0.00    -0.031 A 
ATOM     16  C   LIG A   1      -8.119  -1.357 126.994  0.00  0.00    +0.053 A 
ENDROOT
BRANCH   5  17
ATOM     17  O   LIG A   1      -7.617   3.119 124.395  0.00  0.00    -0.489 OA
ATOM     18  C   LIG A   1      -6.277   3.237 123.897  0.00  0.00    +0.277 C 
ENDBRANCH   5  17
BRANCH   6  19
ATOM     19  O   LIG A   1      -7.724   5.087 126.293  0.00  0.00    -0.503 OA
ATOM     20  H   LIG A   1      -6.947   5.281 125.738  0.00  0.00    +0.292 HD
ENDBRANCH   6  19
BRANCH   8  21
ATOM     21  O   LIG A   1      -7.266   1.890 129.761  0.00  0.00    -0.506 OA
ATOM     22  H   LIG A   1      -7.623   2.649 130.274  0.00  0.00    +0.292 HD
ENDBRANCH   8  21
BRANCH  12  23
ATOM     23  O   LIG A   1      -7.976  -1.927 123.369  0.00  0.00    -0.505 OA
ATOM     24  H   LIG A   1      -8.655  -1.300 123.057  0.00  0.00    +0.292 HD
ENDBRANCH  12  23
BRANCH   7  25
ATOM     25  C   LIG A   1      -7.606   4.584 129.108  0.00  0.00    +0.069 C 
BRANCH  25  26
ATOM     26  C   LIG A   1      -9.043   4.839 129.516  0.00  0.00    -0.023 C 
ATOM     27  C   LIG A   1      -9.513   5.849 130.275  0.00  0.00    -0.079 C 
ATOM     28  C   LIG A   1      -8.675   6.960 130.843  0.00  0.00    +0.038 C 
ATOM     29  C   LIG A   1     -10.978   5.947 130.615  0.00  0.00    +0.038 C 
ENDBRANCH  25  26
ENDBRANCH   7  25
BRANCH  15  30
ATOM     30  C   LIG A   1      -8.384  -3.134 128.889  0.00  0.00    +0.063 C 
BRANCH  30  31
ATOM     31  C   LIG A   1      -7.084  -3.793 129.280  0.00  0.00    -0.024 C 
ATOM     32  C   LIG A   1      -6.469  -3.798 130.479  0.00  0.00    -0.079 C 
ATOM     33  C   LIG A   1      -6.955  -3.093 131.714  0.00  0.00    +0.038 C 
ATOM     34  C   LIG A   1      -5.201  -4.590 130.679  0.00  0.00    +0.038 C 
ENDBRANCH  30  31
ENDBRANCH  15  30
TORSDOF 8
ENDMDL
MODEL 7
REMARK VINA RESULT:      -7.7      3.385      6.554
REMARK  Name = NuBBE_951
REMARK  14 active torsions:
REMARK  status: ('A' for Active; 'I' for Inactive)
REMARK    1  A    between atoms: C_5  and  O_6
REMARK    2  A    between atoms: O_6  and  C_7
REMARK    3  A    between atoms: C_8  and  O_9
REMARK    4  A    between atoms: C_10  and  C_11
REMARK    5  A    between atoms: C_11  and  C_12
REMARK    6  A    between atoms: C_13  and  C_14
REMARK    7  A    between atoms: C_13  and  C_15
REMARK    8  A    between atoms: C_16  and  O_17
REMARK    9  A    between atoms: N_18  and  C_19
REMARK   10  A    between atoms: C_21  and  O_22
REMARK   11  A    between atoms: C_25  and  C_26
REMARK   12  A    between atoms: C_26  and  C_27
REMARK   13  A    between atoms: C_28  and  C_29
REMARK   14  A    between atoms: C_28  and  C_30
REMARK                            x       y       z     vdW  Elec       q    Type
REMARK                         _______ _______ _______ _____ _____    ______ ____
ROOT
ATOM      1  O   LIG A   1      -8.351   3.811 125.735  0.00  0.00    -0.286 OA
ATOM      2  C   LIG A   1      -7.902   2.807 126.262  0.00  0.00    +0.201 A 
ATOM      3  C   LIG A   1      -7.750   2.824 127.732  0.00  0.00    +0.091 A 
ATOM      4  C   LIG A   1      -7.156   1.726 128.372  0.00  0.00    +0.102 A 
ATOM      5  C   LIG A   1      -6.956   1.849 129.767  0.00  0.00    +0.186 A 
ATOM      6  C   LIG A   1      -7.155   3.079 130.424  0.00  0.00    +0.168 A 
ATOM      7  C   LIG A   1      -7.730   4.171 129.775  0.00  0.00    +0.044 A 
ATOM      8  C   LIG A   1      -8.090   4.002 128.438  0.00  0.00    +0.137 A 
ATOM      9  N   LIG A   1      -6.783   0.582 127.602  0.00  0.00    -0.337 N 
ATOM     10  C   LIG A   1      -5.500  -0.019 128.043  0.00  0.00    +0.149 C 
ATOM     11  C   LIG A   1      -7.000   0.509 126.191  0.00  0.00    +0.095 A 
ATOM     12  C   LIG A   1      -6.744  -0.667 125.455  0.00  0.00    +0.141 A 
ATOM     13  C   LIG A   1      -6.775  -0.695 124.067  0.00  0.00    +0.048 A 
ATOM     14  C   LIG A   1      -7.171   0.440 123.371  0.00  0.00    +0.008 A 
ATOM     15  C   LIG A   1      -7.576   1.604 124.052  0.00  0.00    -0.031 A 
ATOM     16  C   LIG A   1      -7.492   1.621 125.472  0.00  0.00    +0.053 A 
ENDROOT
BRANCH   5  17
ATOM     17  O   LIG A   1      -6.471   0.790 130.502  0.00  0.00    -0.489 OA
ATOM     18  C   LIG A   1      -7.541   0.025 131.074  0.00  0.00    +0.277 C 
ENDBRANCH   5  17
BRANCH   6  19
ATOM     19  O   LIG A   1      -6.721   3.230 131.715  0.00  0.00    -0.503 OA
ATOM     20  H   LIG A   1      -6.185   4.045 131.730  0.00  0.00    +0.292 HD
ENDBRANCH   6  19
BRANCH   8  21
ATOM     21  O   LIG A   1      -8.744   5.050 127.836  0.00  0.00    -0.506 OA
ATOM     22  H   LIG A   1      -8.407   5.886 128.232  0.00  0.00    +0.292 HD
ENDBRANCH   8  21
BRANCH  12  23
ATOM     23  O   LIG A   1      -6.508  -1.866 126.077  0.00  0.00    -0.505 OA
ATOM     24  H   LIG A   1      -7.317  -2.059 126.586  0.00  0.00    +0.292 HD
ENDBRANCH  12  23
BRANCH   7  25
ATOM     25  C   LIG A   1      -7.830   5.534 130.431  0.00  0.00    +0.069 C 
BRANCH  25  26
ATOM     26  C   LIG A   1      -9.115   5.686 131.219  0.00  0.00    -0.023 C 
ATOM     27  C   LIG A   1     -10.144   6.519 130.959  0.00  0.00    -0.079 C 
ATOM     28  C   LIG A   1     -10.217   7.452 129.783  0.00  0.00    +0.038 C 
ATOM     29  C   LIG A   1     -11.348   6.569 131.863  0.00  0.00    +0.038 C 
ENDBRANCH  25  26
ENDBRANCH   7  25
BRANCH  15  30
ATOM     30  C   LIG A   1      -8.120   2.739 123.197  0.00  0.00    +0.063 C 
BRANCH  30  31
ATOM     31  C   LIG A   1      -7.132   3.182 122.146  0.00  0.00    -0.024 C 
ATOM     32  C   LIG A   1      -5.983   3.869 122.305  0.00  0.00    -0.079 C 
ATOM     33  C   LIG A   1      -5.447   4.384 123.611  0.00  0.00    +0.038 C 
ATOM     34  C   LIG A   1      -5.094   4.146 121.119  0.00  0.00    +0.038 C 
ENDBRANCH  30  31
ENDBRANCH  15  30
TORSDOF 8
ENDMDL
MODEL 8
REMARK VINA RESULT:      -7.7      4.606      8.457
REMARK  Name = NuBBE_951
REMARK  14 active torsions:
REMARK  status: ('A' for Active; 'I' for Inactive)
REMARK    1  A    between atoms: C_5  and  O_6
REMARK    2  A    between atoms: O_6  and  C_7
REMARK    3  A    between atoms: C_8  and  O_9
REMARK    4  A    between atoms: C_10  and  C_11
REMARK    5  A    between atoms: C_11  and  C_12
REMARK    6  A    between atoms: C_13  and  C_14
REMARK    7  A    between atoms: C_13  and  C_15
REMARK    8  A    between atoms: C_16  and  O_17
REMARK    9  A    between atoms: N_18  and  C_19
REMARK   10  A    between atoms: C_21  and  O_22
REMARK   11  A    between atoms: C_25  and  C_26
REMARK   12  A    between atoms: C_26  and  C_27
REMARK   13  A    between atoms: C_28  and  C_29
REMARK   14  A    between atoms: C_28  and  C_30
REMARK                            x       y       z     vdW  Elec       q    Type
REMARK                         _______ _______ _______ _____ _____    ______ ____
ROOT
ATOM      1  O   LIG A   1      -9.029   3.369 128.580  0.00  0.00    -0.286 OA
ATOM      2  C   LIG A   1      -8.627   2.557 129.396  0.00  0.00    +0.201 A 
ATOM      3  C   LIG A   1      -8.207   1.234 128.886  0.00  0.00    +0.091 A 
ATOM      4  C   LIG A   1      -7.822   0.240 129.797  0.00  0.00    +0.102 A 
ATOM      5  C   LIG A   1      -7.523  -1.029 129.248  0.00  0.00    +0.186 A 
ATOM      6  C   LIG A   1      -7.798  -1.319 127.897  0.00  0.00    +0.168 A 
ATOM      7  C   LIG A   1      -8.199  -0.327 127.002  0.00  0.00    +0.044 A 
ATOM      8  C   LIG A   1      -8.330   0.968 127.503  0.00  0.00    +0.137 A 
ATOM      9  N   LIG A   1      -7.766   0.547 131.191  0.00  0.00    -0.337 N 
ATOM     10  C   LIG A   1      -8.243  -0.565 132.049  0.00  0.00    +0.149 C 
ATOM     11  C   LIG A   1      -8.084   1.846 131.698  0.00  0.00    +0.095 A 
ATOM     12  C   LIG A   1      -7.910   2.180 133.057  0.00  0.00    +0.141 A 
ATOM     13  C   LIG A   1      -8.385   3.369 133.595  0.00  0.00    +0.048 A 
ATOM     14  C   LIG A   1      -8.961   4.315 132.757  0.00  0.00    +0.008 A 
ATOM     15  C   LIG A   1      -9.035   4.101 131.367  0.00  0.00    -0.031 A 
ATOM     16  C   LIG A   1      -8.584   2.857 130.849  0.00  0.00    +0.053 A 
ENDROOT
BRANCH   5  17
ATOM     17  O   LIG A   1      -7.041  -2.044 130.046  0.00  0.00    -0.489 OA
ATOM     18  C   LIG A   1      -5.608  -2.089 130.015  0.00  0.00    +0.277 C 
ENDBRANCH   5  17
BRANCH   6  19
ATOM     19  O   LIG A   1      -7.731  -2.617 127.460  0.00  0.00    -0.503 OA
ATOM     20  H   LIG A   1      -7.788  -3.177 128.256  0.00  0.00    +0.292 HD
ENDBRANCH   6  19
BRANCH   8  21
ATOM     21  O   LIG A   1      -8.630   1.954 126.594  0.00  0.00    -0.506 OA
ATOM     22  H   LIG A   1      -9.362   2.497 126.964  0.00  0.00    +0.292 HD
ENDBRANCH   8  21
BRANCH  12  23
ATOM     23  O   LIG A   1      -7.206   1.371 133.912  0.00  0.00    -0.505 OA
ATOM     24  H   LIG A   1      -7.854   1.061 134.571  0.00  0.00    +0.292 HD
ENDBRANCH  12  23
BRANCH   7  25
ATOM     25  C   LIG A   1      -8.621  -0.649 125.583  0.00  0.00    +0.069 C 
BRANCH  25  26
ATOM     26  C   LIG A   1      -7.431  -0.956 124.697  0.00  0.00    -0.023 C 
ATOM     27  C   LIG A   1      -7.180  -2.100 124.028  0.00  0.00    -0.079 C 
ATOM     28  C   LIG A   1      -8.083  -3.302 124.011  0.00  0.00    +0.038 C 
ATOM     29  C   LIG A   1      -5.928  -2.258 123.205  0.00  0.00    +0.038 C 
ENDBRANCH  25  26
ENDBRANCH   7  25
BRANCH  15  30
ATOM     30  C   LIG A   1      -9.559   5.258 130.527  0.00  0.00    +0.063 C 
BRANCH  30  31
ATOM     31  C   LIG A   1     -10.810   5.865 131.114  0.00  0.00    -0.024 C 
ATOM     32  C   LIG A   1     -11.499   6.945 130.694  0.00  0.00    -0.079 C 
ATOM     33  C   LIG A   1     -11.128   7.820 129.530  0.00  0.00    +0.038 C 
ATOM     34  C   LIG A   1     -12.780   7.343 131.383  0.00  0.00    +0.038 C 
ENDBRANCH  30  31
ENDBRANCH  15  30
TORSDOF 8
ENDMDL
MODEL 9
REMARK VINA RESULT:      -7.5      4.378      7.784
REMARK  Name = NuBBE_951
REMARK  14 active torsions:
REMARK  status: ('A' for Active; 'I' for Inactive)
REMARK    1  A    between atoms: C_5  and  O_6
REMARK    2  A    between atoms: O_6  and  C_7
REMARK    3  A    between atoms: C_8  and  O_9
REMARK    4  A    between atoms: C_10  and  C_11
REMARK    5  A    between atoms: C_11  and  C_12
REMARK    6  A    between atoms: C_13  and  C_14
REMARK    7  A    between atoms: C_13  and  C_15
REMARK    8  A    between atoms: C_16  and  O_17
REMARK    9  A    between atoms: N_18  and  C_19
REMARK   10  A    between atoms: C_21  and  O_22
REMARK   11  A    between atoms: C_25  and  C_26
REMARK   12  A    between atoms: C_26  and  C_27
REMARK   13  A    between atoms: C_28  and  C_29
REMARK   14  A    between atoms: C_28  and  C_30
REMARK                            x       y       z     vdW  Elec       q    Type
REMARK                         _______ _______ _______ _____ _____    ______ ____
ROOT
ATOM      1  O   LIG A   1      -7.414   5.487 129.319  0.00  0.00    -0.286 OA
ATOM      2  C   LIG A   1      -7.255   4.407 129.863  0.00  0.00    +0.201 A 
ATOM      3  C   LIG A   1      -6.455   3.396 129.140  0.00  0.00    +0.091 A 
ATOM      4  C   LIG A   1      -6.320   2.111 129.686  0.00  0.00    +0.102 A 
ATOM      5  C   LIG A   1      -5.622   1.167 128.898  0.00  0.00    +0.186 A 
ATOM      6  C   LIG A   1      -5.270   1.452 127.565  0.00  0.00    +0.168 A 
ATOM      7  C   LIG A   1      -5.424   2.729 127.024  0.00  0.00    +0.044 A 
ATOM      8  C   LIG A   1      -5.957   3.714 127.855  0.00  0.00    +0.137 A 
ATOM      9  N   LIG A   1      -6.890   1.829 130.966  0.00  0.00    -0.337 N 
ATOM     10  C   LIG A   1      -7.489   0.473 131.046  0.00  0.00    +0.149 C 
ATOM     11  C   LIG A   1      -7.594   2.817 131.722  0.00  0.00    +0.095 A 
ATOM     12  C   LIG A   1      -8.047   2.571 133.034  0.00  0.00    +0.141 A 
ATOM     13  C   LIG A   1      -8.887   3.450 133.706  0.00  0.00    +0.048 A 
ATOM     14  C   LIG A   1      -9.214   4.664 133.117  0.00  0.00    +0.008 A 
ATOM     15  C   LIG A   1      -8.678   5.032 131.868  0.00  0.00    -0.031 A 
ATOM     16  C   LIG A   1      -7.859   4.094 131.182  0.00  0.00    +0.053 A 
ENDROOT
BRANCH   5  17
ATOM     17  O   LIG A   1      -5.351  -0.092 129.387  0.00  0.00    -0.489 OA
ATOM     18  C   LIG A   1      -4.109  -0.112 130.104  0.00  0.00    +0.277 C 
ENDBRANCH   5  17
BRANCH   6  19
ATOM     19  O   LIG A   1      -4.820   0.441 126.756  0.00  0.00    -0.503 OA
ATOM     20  H   LIG A   1      -4.241   0.859 126.092  0.00  0.00    +0.292 HD
ENDBRANCH   6  19
BRANCH   8  21
ATOM     21  O   LIG A   1      -6.014   4.988 127.345  0.00  0.00    -0.506 OA
ATOM     22  H   LIG A   1      -6.961   5.242 127.267  0.00  0.00    +0.292 HD
ENDBRANCH   8  21
BRANCH  12  23
ATOM     23  O   LIG A   1      -7.634   1.472 133.743  0.00  0.00    -0.505 OA
ATOM     24  H   LIG A   1      -8.302   1.346 134.442  0.00  0.00    +0.292 HD
ENDBRANCH  12  23
BRANCH   7  25
ATOM     25  C   LIG A   1      -5.171   3.015 125.557  0.00  0.00    +0.069 C 
BRANCH  25  26
ATOM     26  C   LIG A   1      -6.416   2.804 124.720  0.00  0.00    -0.023 C 
ATOM     27  C   LIG A   1      -6.660   3.274 123.479  0.00  0.00    -0.079 C 
ATOM     28  C   LIG A   1      -5.696   4.091 122.665  0.00  0.00    +0.038 C 
ATOM     29  C   LIG A   1      -7.969   2.995 122.788  0.00  0.00    +0.038 C 
ENDBRANCH  25  26
ENDBRANCH   7  25
BRANCH  15  30
ATOM     30  C   LIG A   1      -8.993   6.438 131.379  0.00  0.00    +0.063 C 
BRANCH  30  31
ATOM     31  C   LIG A   1     -10.469   6.640 131.140  0.00  0.00    -0.024 C 
ATOM     32  C   LIG A   1     -11.079   7.264 130.112  0.00  0.00    -0.079 C 
ATOM     33  C   LIG A   1     -10.384   7.942 128.965  0.00  0.00    +0.038 C 
ATOM     34  C   LIG A   1     -12.584   7.288 130.024  0.00  0.00    +0.038 C 
ENDBRANCH  30  31
ENDBRANCH  15  30
TORSDOF 8
ENDMDL
