MODEL 1
REMARK VINA RESULT:      -8.6      0.000      0.000
REMARK  Name = NuBBE_1071
REMARK  12 active torsions:
REMARK  status: ('A' for Active; 'I' for Inactive)
REMARK    1  A    between atoms: C_1  and  C_2
REMARK    2  A    between atoms: C_8  and  C_9
REMARK    3  A    between atoms: C_13  and  C_14
REMARK    4  A    between atoms: C_13  and  C_15
REMARK    5  A    between atoms: C_21  and  C_36
REMARK    6  A    between atoms: C_22  and  C_23
REMARK    7  A    between atoms: C_23  and  C_25
REMARK    8  A    between atoms: C_23  and  C_27
REMARK    9  A    between atoms: C_27  and  C_28
REMARK   10  A    between atoms: C_28  and  C_29
REMARK   11  A    between atoms: C_30  and  C_31
REMARK   12  A    between atoms: C_30  and  C_32
REMARK                            x       y       z     vdW  Elec       q    Type
REMARK                         _______ _______ _______ _____ _____    ______ ____
ROOT
ATOM      1  C   LIG A   1      -5.397   1.157 127.642  0.00  0.00    +0.016 C 
ATOM      2  C   LIG A   1      -6.808   0.532 127.719  0.00  0.00    -0.005 C 
ATOM      3  C   LIG A   1      -7.569   1.316 128.823  0.00  0.00    -0.063 C 
ATOM      4  C   LIG A   1      -8.360   2.381 128.579  0.00  0.00    -0.026 C 
ATOM      5  C   LIG A   1      -8.820   3.354 129.629  0.00  0.00    +0.032 C 
ATOM      6  C   LIG A   1      -7.929   3.276 130.884  0.00  0.00    +0.012 C 
ATOM      7  C   LIG A   1      -7.894   1.795 131.398  0.00  0.00    -0.021 C 
ATOM      8  C   LIG A   1      -9.296   1.250 131.757  0.00  0.00    +0.012 C 
ATOM      9  C   LIG A   1      -6.983   1.731 132.653  0.00  0.00    +0.015 C 
ATOM     10  C   LIG A   1      -7.368   2.723 133.736  0.00  0.00    +0.075 C 
ATOM     11  C   LIG A   1      -7.357   4.132 133.194  0.00  0.00    +0.139 C 
ATOM     12  C   LIG A   1      -8.186   4.413 131.931  0.00  0.00    +0.027 C 
ATOM     13  C   LIG A   1      -9.647   4.609 132.365  0.00  0.00    +0.019 C 
ATOM     14  C   LIG A   1      -7.708   5.761 131.331  0.00  0.00    +0.019 C 
ATOM     15  O   LIG A   1      -6.782   5.027 133.818  0.00  0.00    -0.297 OA
ATOM     16  C   LIG A   1      -7.225   0.914 130.257  0.00  0.00    +0.021 C 
ATOM     17  C   LIG A   1      -7.486  -0.593 130.408  0.00  0.00    +0.009 C 
ATOM     18  C   LIG A   1      -6.629  -1.403 129.437  0.00  0.00    +0.008 C 
ATOM     19  C   LIG A   1      -6.814  -1.038 127.941  0.00  0.00    -0.019 C 
ATOM     20  C   LIG A   1      -8.223  -1.483 127.357  0.00  0.00    +0.006 C 
ATOM     21  C   LIG A   1      -8.603  -0.368 126.351  0.00  0.00    +0.005 C 
ATOM     22  C   LIG A   1      -7.452   0.624 126.323  0.00  0.00    +0.012 C 
ATOM     23  C   LIG A   1      -5.649  -1.732 127.183  0.00  0.00    +0.012 C 
ENDROOT
BRANCH  20  24
ATOM     24  C   LIG A   1      -8.345  -2.900 126.709  0.00  0.00    +0.056 C 
BRANCH  24  25
ATOM     25  C   LIG A   1      -8.705  -3.941 127.751  0.00  0.00    +0.227 C 
ATOM     26  O   LIG A   1      -9.056  -3.647 128.899  0.00  0.00    -0.301 OA
ENDBRANCH  24  25
BRANCH  24  27
ATOM     27  C   LIG A   1      -9.420  -2.972 125.594  0.00  0.00    +0.015 C 
BRANCH  27  28
ATOM     28  C   LIG A   1      -8.821  -3.275 124.210  0.00  0.00    +0.028 C 
BRANCH  28  29
ATOM     29  C   LIG A   1      -7.369  -3.658 124.299  0.00  0.00    -0.028 C 
ATOM     30  C   LIG A   1      -6.320  -2.990 123.781  0.00  0.00    -0.080 C 
ATOM     31  C   LIG A   1      -6.419  -1.731 122.964  0.00  0.00    +0.038 C 
ATOM     32  C   LIG A   1      -4.910  -3.474 124.005  0.00  0.00    +0.038 C 
ENDBRANCH  28  29
ENDBRANCH  27  28
ENDBRANCH  24  27
ENDBRANCH  20  24
TORSDOF 5
ENDMDL
MODEL 2
REMARK VINA RESULT:      -8.6      3.685      6.342
REMARK  Name = NuBBE_1071
REMARK  12 active torsions:
REMARK  status: ('A' for Active; 'I' for Inactive)
REMARK    1  A    between atoms: C_1  and  C_2
REMARK    2  A    between atoms: C_8  and  C_9
REMARK    3  A    between atoms: C_13  and  C_14
REMARK    4  A    between atoms: C_13  and  C_15
REMARK    5  A    between atoms: C_21  and  C_36
REMARK    6  A    between atoms: C_22  and  C_23
REMARK    7  A    between atoms: C_23  and  C_25
REMARK    8  A    between atoms: C_23  and  C_27
REMARK    9  A    between atoms: C_27  and  C_28
REMARK   10  A    between atoms: C_28  and  C_29
REMARK   11  A    between atoms: C_30  and  C_31
REMARK   12  A    between atoms: C_30  and  C_32
REMARK                            x       y       z     vdW  Elec       q    Type
REMARK                         _______ _______ _______ _____ _____    ______ ____
ROOT
ATOM      1  C   LIG A   1      -9.152  -2.217 126.095  0.00  0.00    +0.016 C 
ATOM      2  C   LIG A   1      -8.007  -1.199 125.902  0.00  0.00    -0.005 C 
ATOM      3  C   LIG A   1      -7.054  -1.385 127.116  0.00  0.00    -0.063 C 
ATOM      4  C   LIG A   1      -5.968  -2.185 127.102  0.00  0.00    -0.026 C 
ATOM      5  C   LIG A   1      -5.243  -2.649 128.334  0.00  0.00    +0.032 C 
ATOM      6  C   LIG A   1      -6.129  -2.506 129.586  0.00  0.00    +0.012 C 
ATOM      7  C   LIG A   1      -6.629  -1.024 129.695  0.00  0.00    -0.021 C 
ATOM      8  C   LIG A   1      -5.470  -0.005 129.795  0.00  0.00    +0.012 C 
ATOM      9  C   LIG A   1      -7.531  -0.899 130.952  0.00  0.00    +0.015 C 
ATOM     10  C   LIG A   1      -6.871  -1.395 132.226  0.00  0.00    +0.075 C 
ATOM     11  C   LIG A   1      -6.436  -2.833 132.075  0.00  0.00    +0.139 C 
ATOM     12  C   LIG A   1      -5.545  -3.182 130.874  0.00  0.00    +0.027 C 
ATOM     13  C   LIG A   1      -4.101  -2.802 131.235  0.00  0.00    +0.019 C 
ATOM     14  C   LIG A   1      -5.573  -4.722 130.684  0.00  0.00    +0.019 C 
ATOM     15  O   LIG A   1      -6.714  -3.654 132.952  0.00  0.00    -0.297 OA
ATOM     16  C   LIG A   1      -7.524  -0.732 128.414  0.00  0.00    +0.021 C 
ATOM     17  C   LIG A   1      -7.746   0.765 128.145  0.00  0.00    +0.009 C 
ATOM     18  C   LIG A   1      -8.800   0.983 127.061  0.00  0.00    +0.008 C 
ATOM     19  C   LIG A   1      -8.492   0.298 125.704  0.00  0.00    -0.019 C 
ATOM     20  C   LIG A   1      -7.283   0.971 124.922  0.00  0.00    +0.006 C 
ATOM     21  C   LIG A   1      -6.563  -0.207 124.219  0.00  0.00    +0.005 C 
ATOM     22  C   LIG A   1      -7.348  -1.468 124.536  0.00  0.00    +0.012 C 
ATOM     23  C   LIG A   1      -9.805   0.374 124.878  0.00  0.00    +0.012 C 
ENDROOT
BRANCH  20  24
ATOM     24  C   LIG A   1      -7.599   2.126 123.918  0.00  0.00    +0.056 C 
BRANCH  24  25
ATOM     25  C   LIG A   1      -7.591   3.470 124.622  0.00  0.00    +0.227 C 
ATOM     26  O   LIG A   1      -8.605   3.974 125.115  0.00  0.00    -0.301 OA
ENDBRANCH  24  25
BRANCH  24  27
ATOM     27  C   LIG A   1      -6.586   2.213 122.747  0.00  0.00    +0.015 C 
BRANCH  27  28
ATOM     28  C   LIG A   1      -6.442   3.640 122.193  0.00  0.00    +0.028 C 
BRANCH  28  29
ATOM     29  C   LIG A   1      -7.113   3.793 120.855  0.00  0.00    -0.028 C 
ATOM     30  C   LIG A   1      -6.647   4.467 119.785  0.00  0.00    -0.080 C 
ATOM     31  C   LIG A   1      -5.359   5.243 119.750  0.00  0.00    +0.038 C 
ATOM     32  C   LIG A   1      -7.415   4.481 118.488  0.00  0.00    +0.038 C 
ENDBRANCH  28  29
ENDBRANCH  27  28
ENDBRANCH  24  27
ENDBRANCH  20  24
TORSDOF 5
ENDMDL
MODEL 3
REMARK VINA RESULT:      -8.2      3.237      7.823
REMARK  Name = NuBBE_1071
REMARK  12 active torsions:
REMARK  status: ('A' for Active; 'I' for Inactive)
REMARK    1  A    between atoms: C_1  and  C_2
REMARK    2  A    between atoms: C_8  and  C_9
REMARK    3  A    between atoms: C_13  and  C_14
REMARK    4  A    between atoms: C_13  and  C_15
REMARK    5  A    between atoms: C_21  and  C_36
REMARK    6  A    between atoms: C_22  and  C_23
REMARK    7  A    between atoms: C_23  and  C_25
REMARK    8  A    between atoms: C_23  and  C_27
REMARK    9  A    between atoms: C_27  and  C_28
REMARK   10  A    between atoms: C_28  and  C_29
REMARK   11  A    between atoms: C_30  and  C_31
REMARK   12  A    between atoms: C_30  and  C_32
REMARK                            x       y       z     vdW  Elec       q    Type
REMARK                         _______ _______ _______ _____ _____    ______ ____
ROOT
ATOM      1  C   LIG A   1      -7.807   0.211 129.533  0.00  0.00    +0.016 C 
ATOM      2  C   LIG A   1      -6.749  -0.906 129.392  0.00  0.00    -0.005 C 
ATOM      3  C   LIG A   1      -6.679  -1.246 127.878  0.00  0.00    -0.063 C 
ATOM      4  C   LIG A   1      -5.796  -0.690 127.023  0.00  0.00    -0.026 C 
ATOM      5  C   LIG A   1      -5.924  -0.731 125.526  0.00  0.00    +0.032 C 
ATOM      6  C   LIG A   1      -7.371  -1.052 125.103  0.00  0.00    +0.012 C 
ATOM      7  C   LIG A   1      -7.823  -2.386 125.791  0.00  0.00    -0.021 C 
ATOM      8  C   LIG A   1      -6.925  -3.589 125.419  0.00  0.00    +0.012 C 
ATOM      9  C   LIG A   1      -9.284  -2.689 125.366  0.00  0.00    +0.015 C 
ATOM     10  C   LIG A   1      -9.491  -2.700 123.862  0.00  0.00    +0.075 C 
ATOM     11  C   LIG A   1      -9.067  -1.384 123.257  0.00  0.00    +0.139 C 
ATOM     12  C   LIG A   1      -7.649  -0.883 123.570  0.00  0.00    +0.027 C 
ATOM     13  C   LIG A   1      -6.677  -1.609 122.627  0.00  0.00    +0.019 C 
ATOM     14  C   LIG A   1      -7.580   0.625 123.215  0.00  0.00    +0.019 C 
ATOM     15  O   LIG A   1      -9.811  -0.804 122.463  0.00  0.00    -0.297 OA
ATOM     16  C   LIG A   1      -7.806  -2.138 127.361  0.00  0.00    +0.021 C 
ATOM     17  C   LIG A   1      -7.813  -3.432 128.191  0.00  0.00    +0.009 C 
ATOM     18  C   LIG A   1      -8.041  -3.139 129.672  0.00  0.00    +0.008 C 
ATOM     19  C   LIG A   1      -7.011  -2.171 130.312  0.00  0.00    -0.019 C 
ATOM     20  C   LIG A   1      -5.565  -2.810 130.471  0.00  0.00    +0.006 C 
ATOM     21  C   LIG A   1      -4.585  -1.637 130.219  0.00  0.00    +0.005 C 
ATOM     22  C   LIG A   1      -5.424  -0.393 129.986  0.00  0.00    +0.012 C 
ATOM     23  C   LIG A   1      -7.601  -1.769 131.691  0.00  0.00    +0.012 C 
ENDROOT
BRANCH  20  24
ATOM     24  C   LIG A   1      -5.227  -3.559 131.801  0.00  0.00    +0.056 C 
BRANCH  24  25
ATOM     25  C   LIG A   1      -5.352  -5.060 131.622  0.00  0.00    +0.227 C 
ATOM     26  O   LIG A   1      -5.711  -5.581 130.560  0.00  0.00    -0.301 OA
ENDBRANCH  24  25
BRANCH  24  27
ATOM     27  C   LIG A   1      -3.792  -3.275 132.315  0.00  0.00    +0.015 C 
BRANCH  27  28
ATOM     28  C   LIG A   1      -3.774  -2.735 133.755  0.00  0.00    +0.028 C 
BRANCH  28  29
ATOM     29  C   LIG A   1      -4.798  -1.652 133.962  0.00  0.00    -0.028 C 
ATOM     30  C   LIG A   1      -4.653  -0.338 133.702  0.00  0.00    -0.080 C 
ATOM     31  C   LIG A   1      -3.395   0.305 133.184  0.00  0.00    +0.038 C 
ATOM     32  C   LIG A   1      -5.798   0.619 133.910  0.00  0.00    +0.038 C 
ENDBRANCH  28  29
ENDBRANCH  27  28
ENDBRANCH  24  27
ENDBRANCH  20  24
TORSDOF 5
ENDMDL
MODEL 4
REMARK VINA RESULT:      -8.2      2.131      8.453
REMARK  Name = NuBBE_1071
REMARK  12 active torsions:
REMARK  status: ('A' for Active; 'I' for Inactive)
REMARK    1  A    between atoms: C_1  and  C_2
REMARK    2  A    between atoms: C_8  and  C_9
REMARK    3  A    between atoms: C_13  and  C_14
REMARK    4  A    between atoms: C_13  and  C_15
REMARK    5  A    between atoms: C_21  and  C_36
REMARK    6  A    between atoms: C_22  and  C_23
REMARK    7  A    between atoms: C_23  and  C_25
REMARK    8  A    between atoms: C_23  and  C_27
REMARK    9  A    between atoms: C_27  and  C_28
REMARK   10  A    between atoms: C_28  and  C_29
REMARK   11  A    between atoms: C_30  and  C_31
REMARK   12  A    between atoms: C_30  and  C_32
REMARK                            x       y       z     vdW  Elec       q    Type
REMARK                         _______ _______ _______ _____ _____    ______ ____
ROOT
ATOM      1  C   LIG A   1      -5.200   0.309 129.202  0.00  0.00    +0.016 C 
ATOM      2  C   LIG A   1      -6.736   0.447 129.303  0.00  0.00    -0.005 C 
ATOM      3  C   LIG A   1      -7.316  -0.240 128.036  0.00  0.00    -0.063 C 
ATOM      4  C   LIG A   1      -7.715  -1.527 127.996  0.00  0.00    -0.026 C 
ATOM      5  C   LIG A   1      -7.948  -2.304 126.730  0.00  0.00    +0.032 C 
ATOM      6  C   LIG A   1      -7.242  -1.636 125.533  0.00  0.00    +0.012 C 
ATOM      7  C   LIG A   1      -7.711  -0.144 125.428  0.00  0.00    -0.021 C 
ATOM      8  C   LIG A   1      -9.240  -0.007 125.236  0.00  0.00    +0.012 C 
ATOM      9  C   LIG A   1      -6.983   0.518 124.228  0.00  0.00    +0.015 C 
ATOM     10  C   LIG A   1      -7.141  -0.244 122.925  0.00  0.00    +0.075 C 
ATOM     11  C   LIG A   1      -6.648  -1.663 123.075  0.00  0.00    +0.139 C 
ATOM     12  C   LIG A   1      -7.232  -2.498 124.225  0.00  0.00    +0.027 C 
ATOM     13  C   LIG A   1      -8.595  -3.039 123.766  0.00  0.00    +0.019 C 
ATOM     14  C   LIG A   1      -6.310  -3.726 124.445  0.00  0.00    +0.019 C 
ATOM     15  O   LIG A   1      -5.885  -2.141 122.233  0.00  0.00    -0.297 OA
ATOM     16  C   LIG A   1      -7.245   0.594 126.757  0.00  0.00    +0.021 C 
ATOM     17  C   LIG A   1      -7.969   1.925 127.011  0.00  0.00    +0.009 C 
ATOM     18  C   LIG A   1      -7.318   2.700 128.155  0.00  0.00    +0.008 C 
ATOM     19  C   LIG A   1      -7.244   1.936 129.503  0.00  0.00    -0.019 C 
ATOM     20  C   LIG A   1      -8.663   1.745 130.194  0.00  0.00    +0.006 C 
ATOM     21  C   LIG A   1      -8.587   0.355 130.873  0.00  0.00    +0.005 C 
ATOM     22  C   LIG A   1      -7.190  -0.189 130.630  0.00  0.00    +0.012 C 
ATOM     23  C   LIG A   1      -6.286   2.756 130.408  0.00  0.00    +0.012 C 
ENDROOT
BRANCH  20  24
ATOM     24  C   LIG A   1      -9.155   2.841 131.194  0.00  0.00    +0.056 C 
BRANCH  24  25
ATOM     25  C   LIG A   1     -10.488   3.414 130.753  0.00  0.00    +0.227 C 
ATOM     26  O   LIG A   1     -10.590   4.265 129.864  0.00  0.00    -0.301 OA
ENDBRANCH  24  25
BRANCH  24  27
ATOM     27  C   LIG A   1      -9.336   2.312 132.640  0.00  0.00    +0.015 C 
BRANCH  27  28
ATOM     28  C   LIG A   1      -9.234   3.426 133.696  0.00  0.00    +0.028 C 
BRANCH  28  29
ATOM     29  C   LIG A   1      -7.828   3.945 133.831  0.00  0.00    -0.028 C 
ATOM     30  C   LIG A   1      -7.331   5.084 133.312  0.00  0.00    -0.080 C 
ATOM     31  C   LIG A   1      -8.099   6.045 132.447  0.00  0.00    +0.038 C 
ATOM     32  C   LIG A   1      -5.907   5.498 133.586  0.00  0.00    +0.038 C 
ENDBRANCH  28  29
ENDBRANCH  27  28
ENDBRANCH  24  27
ENDBRANCH  20  24
TORSDOF 5
ENDMDL
MODEL 5
REMARK VINA RESULT:      -8.1      2.728      8.629
REMARK  Name = NuBBE_1071
REMARK  12 active torsions:
REMARK  status: ('A' for Active; 'I' for Inactive)
REMARK    1  A    between atoms: C_1  and  C_2
REMARK    2  A    between atoms: C_8  and  C_9
REMARK    3  A    between atoms: C_13  and  C_14
REMARK    4  A    between atoms: C_13  and  C_15
REMARK    5  A    between atoms: C_21  and  C_36
REMARK    6  A    between atoms: C_22  and  C_23
REMARK    7  A    between atoms: C_23  and  C_25
REMARK    8  A    between atoms: C_23  and  C_27
REMARK    9  A    between atoms: C_27  and  C_28
REMARK   10  A    between atoms: C_28  and  C_29
REMARK   11  A    between atoms: C_30  and  C_31
REMARK   12  A    between atoms: C_30  and  C_32
REMARK                            x       y       z     vdW  Elec       q    Type
REMARK                         _______ _______ _______ _____ _____    ______ ____
ROOT
ATOM      1  C   LIG A   1      -6.124   2.531 133.615  0.00  0.00    +0.016 C 
ATOM      2  C   LIG A   1      -7.372   2.871 132.771  0.00  0.00    -0.005 C 
ATOM      3  C   LIG A   1      -7.590   1.664 131.817  0.00  0.00    -0.063 C 
ATOM      4  C   LIG A   1      -8.406   0.627 132.093  0.00  0.00    -0.026 C 
ATOM      5  C   LIG A   1      -8.374  -0.692 131.371  0.00  0.00    +0.032 C 
ATOM      6  C   LIG A   1      -7.036  -0.886 130.631  0.00  0.00    +0.012 C 
ATOM      7  C   LIG A   1      -6.793   0.337 129.680  0.00  0.00    -0.021 C 
ATOM      8  C   LIG A   1      -7.914   0.512 128.629  0.00  0.00    +0.012 C 
ATOM      9  C   LIG A   1      -5.438   0.133 128.953  0.00  0.00    +0.015 C 
ATOM     10  C   LIG A   1      -5.324  -1.201 128.240  0.00  0.00    +0.075 C 
ATOM     11  C   LIG A   1      -5.537  -2.341 129.207  0.00  0.00    +0.139 C 
ATOM     12  C   LIG A   1      -6.821  -2.325 130.050  0.00  0.00    +0.027 C 
ATOM     13  C   LIG A   1      -7.961  -2.874 129.178  0.00  0.00    +0.019 C 
ATOM     14  C   LIG A   1      -6.636  -3.316 131.229  0.00  0.00    +0.019 C 
ATOM     15  O   LIG A   1      -4.747  -3.288 129.225  0.00  0.00    -0.297 OA
ATOM     16  C   LIG A   1      -6.674   1.632 130.594  0.00  0.00    +0.021 C 
ATOM     17  C   LIG A   1      -6.854   2.950 129.824  0.00  0.00    +0.009 C 
ATOM     18  C   LIG A   1      -6.491   4.152 130.693  0.00  0.00    +0.008 C 
ATOM     19  C   LIG A   1      -7.290   4.264 132.018  0.00  0.00    -0.019 C 
ATOM     20  C   LIG A   1      -8.817   4.649 131.799  0.00  0.00    +0.006 C 
ATOM     21  C   LIG A   1      -9.581   3.874 132.901  0.00  0.00    +0.005 C 
ATOM     22  C   LIG A   1      -8.546   3.136 133.732  0.00  0.00    +0.012 C 
ATOM     23  C   LIG A   1      -6.559   5.338 132.870  0.00  0.00    +0.012 C 
ENDROOT
BRANCH  20  24
ATOM     24  C   LIG A   1      -9.207   6.163 131.793  0.00  0.00    +0.056 C 
BRANCH  24  25
ATOM     25  C   LIG A   1      -8.789   6.823 130.493  0.00  0.00    +0.227 C 
ATOM     26  O   LIG A   1      -7.812   7.573 130.407  0.00  0.00    -0.301 OA
ENDBRANCH  24  25
BRANCH  24  27
ATOM     27  C   LIG A   1     -10.730   6.402 131.962  0.00  0.00    +0.015 C 
BRANCH  27  28
ATOM     28  C   LIG A   1     -11.483   6.398 130.620  0.00  0.00    +0.028 C 
BRANCH  28  29
ATOM     29  C   LIG A   1     -12.290   7.654 130.426  0.00  0.00    -0.028 C 
ATOM     30  C   LIG A   1     -12.163   8.554 129.432  0.00  0.00    -0.080 C 
ATOM     31  C   LIG A   1     -11.138   8.487 128.334  0.00  0.00    +0.038 C 
ATOM     32  C   LIG A   1     -13.091   9.739 129.343  0.00  0.00    +0.038 C 
ENDBRANCH  28  29
ENDBRANCH  27  28
ENDBRANCH  24  27
ENDBRANCH  20  24
TORSDOF 5
ENDMDL
MODEL 6
REMARK VINA RESULT:      -8.0      3.095      7.703
REMARK  Name = NuBBE_1071
REMARK  12 active torsions:
REMARK  status: ('A' for Active; 'I' for Inactive)
REMARK    1  A    between atoms: C_1  and  C_2
REMARK    2  A    between atoms: C_8  and  C_9
REMARK    3  A    between atoms: C_13  and  C_14
REMARK    4  A    between atoms: C_13  and  C_15
REMARK    5  A    between atoms: C_21  and  C_36
REMARK    6  A    between atoms: C_22  and  C_23
REMARK    7  A    between atoms: C_23  and  C_25
REMARK    8  A    between atoms: C_23  and  C_27
REMARK    9  A    between atoms: C_27  and  C_28
REMARK   10  A    between atoms: C_28  and  C_29
REMARK   11  A    between atoms: C_30  and  C_31
REMARK   12  A    between atoms: C_30  and  C_32
REMARK                            x       y       z     vdW  Elec       q    Type
REMARK                         _______ _______ _______ _____ _____    ______ ____
ROOT
ATOM      1  C   LIG A   1      -8.492  -3.239 129.244  0.00  0.00    +0.016 C 
ATOM      2  C   LIG A   1      -7.489  -2.095 129.515  0.00  0.00    -0.005 C 
ATOM      3  C   LIG A   1      -7.253  -1.394 128.149  0.00  0.00    -0.063 C 
ATOM      4  C   LIG A   1      -7.942  -0.313 127.730  0.00  0.00    -0.026 C 
ATOM      5  C   LIG A   1      -7.984   0.167 126.307  0.00  0.00    +0.032 C 
ATOM      6  C   LIG A   1      -7.557  -0.950 125.333  0.00  0.00    +0.012 C 
ATOM      7  C   LIG A   1      -6.145  -1.487 125.755  0.00  0.00    -0.021 C 
ATOM      8  C   LIG A   1      -5.057  -0.387 125.749  0.00  0.00    +0.012 C 
ATOM      9  C   LIG A   1      -5.735  -2.618 124.775  0.00  0.00    +0.015 C 
ATOM     10  C   LIG A   1      -5.800  -2.211 123.315  0.00  0.00    +0.075 C 
ATOM     11  C   LIG A   1      -7.185  -1.730 122.957  0.00  0.00    +0.139 C 
ATOM     12  C   LIG A   1      -7.795  -0.616 123.821  0.00  0.00    +0.027 C 
ATOM     13  C   LIG A   1      -7.224   0.723 123.330  0.00  0.00    +0.019 C 
ATOM     14  C   LIG A   1      -9.323  -0.580 123.554  0.00  0.00    +0.019 C 
ATOM     15  O   LIG A   1      -7.742  -2.159 121.943  0.00  0.00    -0.297 OA
ATOM     16  C   LIG A   1      -6.294  -2.120 127.206  0.00  0.00    +0.021 C 
ATOM     17  C   LIG A   1      -4.956  -2.311 127.937  0.00  0.00    +0.009 C 
ATOM     18  C   LIG A   1      -5.132  -3.137 129.209  0.00  0.00    +0.008 C 
ATOM     19  C   LIG A   1      -6.149  -2.558 130.227  0.00  0.00    -0.019 C 
ATOM     20  C   LIG A   1      -5.639  -1.231 130.938  0.00  0.00    +0.006 C 
ATOM     21  C   LIG A   1      -6.912  -0.368 131.124  0.00  0.00    +0.005 C 
ATOM     22  C   LIG A   1      -8.085  -1.179 130.600  0.00  0.00    +0.012 C 
ATOM     23  C   LIG A   1      -6.407  -3.686 131.264  0.00  0.00    +0.012 C 
ENDROOT
BRANCH  20  24
ATOM     24  C   LIG A   1      -4.842  -1.366 132.276  0.00  0.00    +0.056 C 
BRANCH  24  25
ATOM     25  C   LIG A   1      -3.395  -1.731 132.008  0.00  0.00    +0.227 C 
ATOM     26  O   LIG A   1      -2.996  -2.900 131.966  0.00  0.00    -0.301 OA
ENDBRANCH  24  25
BRANCH  24  27
ATOM     27  C   LIG A   1      -4.840  -0.065 133.120  0.00  0.00    +0.015 C 
BRANCH  27  28
ATOM     28  C   LIG A   1      -3.733   0.915 132.696  0.00  0.00    +0.028 C 
BRANCH  28  29
ATOM     29  C   LIG A   1      -4.296   2.169 132.083  0.00  0.00    -0.028 C 
ATOM     30  C   LIG A   1      -4.446   2.434 130.770  0.00  0.00    -0.080 C 
ATOM     31  C   LIG A   1      -4.026   1.518 129.653  0.00  0.00    +0.038 C 
ATOM     32  C   LIG A   1      -5.084   3.720 130.312  0.00  0.00    +0.038 C 
ENDBRANCH  28  29
ENDBRANCH  27  28
ENDBRANCH  24  27
ENDBRANCH  20  24
TORSDOF 5
ENDMDL
MODEL 7
REMARK VINA RESULT:      -7.9      2.797      8.311
REMARK  Name = NuBBE_1071
REMARK  12 active torsions:
REMARK  status: ('A' for Active; 'I' for Inactive)
REMARK    1  A    between atoms: C_1  and  C_2
REMARK    2  A    between atoms: C_8  and  C_9
REMARK    3  A    between atoms: C_13  and  C_14
REMARK    4  A    between atoms: C_13  and  C_15
REMARK    5  A    between atoms: C_21  and  C_36
REMARK    6  A    between atoms: C_22  and  C_23
REMARK    7  A    between atoms: C_23  and  C_25
REMARK    8  A    between atoms: C_23  and  C_27
REMARK    9  A    between atoms: C_27  and  C_28
REMARK   10  A    between atoms: C_28  and  C_29
REMARK   11  A    between atoms: C_30  and  C_31
REMARK   12  A    between atoms: C_30  and  C_32
REMARK                            x       y       z     vdW  Elec       q    Type
REMARK                         _______ _______ _______ _____ _____    ______ ____
ROOT
ATOM      1  C   LIG A   1      -9.892   1.573 132.208  0.00  0.00    +0.016 C 
ATOM      2  C   LIG A   1      -9.047   2.501 131.307  0.00  0.00    -0.005 C 
ATOM      3  C   LIG A   1      -7.984   1.593 130.628  0.00  0.00    -0.063 C 
ATOM      4  C   LIG A   1      -8.144   1.027 129.415  0.00  0.00    -0.026 C 
ATOM      5  C   LIG A   1      -7.310  -0.109 128.893  0.00  0.00    +0.032 C 
ATOM      6  C   LIG A   1      -6.593  -0.843 130.043  0.00  0.00    +0.012 C 
ATOM      7  C   LIG A   1      -5.761   0.193 130.874  0.00  0.00    -0.021 C 
ATOM      8  C   LIG A   1      -4.699   0.931 130.026  0.00  0.00    +0.012 C 
ATOM      9  C   LIG A   1      -5.056  -0.558 132.035  0.00  0.00    +0.015 C 
ATOM     10  C   LIG A   1      -4.231  -1.747 131.578  0.00  0.00    +0.075 C 
ATOM     11  C   LIG A   1      -5.086  -2.725 130.810  0.00  0.00    +0.139 C 
ATOM     12  C   LIG A   1      -5.892  -2.180 129.621  0.00  0.00    +0.027 C 
ATOM     13  C   LIG A   1      -4.944  -2.089 128.415  0.00  0.00    +0.019 C 
ATOM     14  C   LIG A   1      -6.983  -3.222 129.259  0.00  0.00    +0.019 C 
ATOM     15  O   LIG A   1      -5.042  -3.927 131.082  0.00  0.00    -0.297 OA
ATOM     16  C   LIG A   1      -6.789   1.227 131.508  0.00  0.00    +0.021 C 
ATOM     17  C   LIG A   1      -6.135   2.529 131.995  0.00  0.00    +0.009 C 
ATOM     18  C   LIG A   1      -7.117   3.373 132.805  0.00  0.00    +0.008 C 
ATOM     19  C   LIG A   1      -8.424   3.749 132.060  0.00  0.00    -0.019 C 
ATOM     20  C   LIG A   1      -8.198   4.802 130.891  0.00  0.00    +0.006 C 
ATOM     21  C   LIG A   1      -9.205   4.390 129.788  0.00  0.00    +0.005 C 
ATOM     22  C   LIG A   1      -9.996   3.208 130.320  0.00  0.00    +0.012 C 
ATOM     23  C   LIG A   1      -9.388   4.311 133.141  0.00  0.00    +0.012 C 
ENDROOT
BRANCH  20  24
ATOM     24  C   LIG A   1      -8.315   6.324 131.229  0.00  0.00    +0.056 C 
BRANCH  24  25
ATOM     25  C   LIG A   1      -6.992   7.030 131.008  0.00  0.00    +0.227 C 
ATOM     26  O   LIG A   1      -6.089   6.558 130.309  0.00  0.00    -0.301 OA
ENDBRANCH  24  25
BRANCH  24  27
ATOM     27  C   LIG A   1      -9.379   7.060 130.374  0.00  0.00    +0.015 C 
BRANCH  27  28
ATOM     28  C   LIG A   1     -10.773   7.051 131.025  0.00  0.00    +0.028 C 
BRANCH  28  29
ATOM     29  C   LIG A   1     -11.846   6.656 130.047  0.00  0.00    -0.028 C 
ATOM     30  C   LIG A   1     -12.578   7.478 129.270  0.00  0.00    -0.080 C 
ATOM     31  C   LIG A   1     -12.481   8.979 129.271  0.00  0.00    +0.038 C 
ATOM     32  C   LIG A   1     -13.583   6.923 128.293  0.00  0.00    +0.038 C 
ENDBRANCH  28  29
ENDBRANCH  27  28
ENDBRANCH  24  27
ENDBRANCH  20  24
TORSDOF 5
ENDMDL
MODEL 8
REMARK VINA RESULT:      -7.9      3.457      8.040
REMARK  Name = NuBBE_1071
REMARK  12 active torsions:
REMARK  status: ('A' for Active; 'I' for Inactive)
REMARK    1  A    between atoms: C_1  and  C_2
REMARK    2  A    between atoms: C_8  and  C_9
REMARK    3  A    between atoms: C_13  and  C_14
REMARK    4  A    between atoms: C_13  and  C_15
REMARK    5  A    between atoms: C_21  and  C_36
REMARK    6  A    between atoms: C_22  and  C_23
REMARK    7  A    between atoms: C_23  and  C_25
REMARK    8  A    between atoms: C_23  and  C_27
REMARK    9  A    between atoms: C_27  and  C_28
REMARK   10  A    between atoms: C_28  and  C_29
REMARK   11  A    between atoms: C_30  and  C_31
REMARK   12  A    between atoms: C_30  and  C_32
REMARK                            x       y       z     vdW  Elec       q    Type
REMARK                         _______ _______ _______ _____ _____    ______ ____
ROOT
ATOM      1  C   LIG A   1      -8.500  -3.402 129.153  0.00  0.00    +0.016 C 
ATOM      2  C   LIG A   1      -7.528  -2.247 129.482  0.00  0.00    -0.005 C 
ATOM      3  C   LIG A   1      -7.279  -1.498 128.143  0.00  0.00    -0.063 C 
ATOM      4  C   LIG A   1      -7.982  -0.419 127.744  0.00  0.00    -0.026 C 
ATOM      5  C   LIG A   1      -8.005   0.105 126.336  0.00  0.00    +0.032 C 
ATOM      6  C   LIG A   1      -7.534  -0.970 125.337  0.00  0.00    +0.012 C 
ATOM      7  C   LIG A   1      -6.121  -1.491 125.772  0.00  0.00    -0.021 C 
ATOM      8  C   LIG A   1      -5.056  -0.370 125.823  0.00  0.00    +0.012 C 
ATOM      9  C   LIG A   1      -5.666  -2.582 124.766  0.00  0.00    +0.015 C 
ATOM     10  C   LIG A   1      -5.709  -2.130 123.318  0.00  0.00    +0.075 C 
ATOM     11  C   LIG A   1      -7.097  -1.667 122.946  0.00  0.00    +0.139 C 
ATOM     12  C   LIG A   1      -7.748  -0.594 123.831  0.00  0.00    +0.027 C 
ATOM     13  C   LIG A   1      -7.195   0.772 123.395  0.00  0.00    +0.019 C 
ATOM     14  C   LIG A   1      -9.271  -0.581 123.533  0.00  0.00    +0.019 C 
ATOM     15  O   LIG A   1      -7.624  -2.074 121.907  0.00  0.00    -0.297 OA
ATOM     16  C   LIG A   1      -6.286  -2.173 127.198  0.00  0.00    +0.021 C 
ATOM     17  C   LIG A   1      -4.958  -2.360 127.951  0.00  0.00    +0.009 C 
ATOM     18  C   LIG A   1      -5.144  -3.229 129.192  0.00  0.00    +0.008 C 
ATOM     19  C   LIG A   1      -6.194  -2.705 130.206  0.00  0.00    -0.019 C 
ATOM     20  C   LIG A   1      -5.727  -1.391 130.970  0.00  0.00    +0.006 C 
ATOM     21  C   LIG A   1      -7.021  -0.561 131.155  0.00  0.00    +0.005 C 
ATOM     22  C   LIG A   1      -8.166  -1.378 130.581  0.00  0.00    +0.012 C 
ATOM     23  C   LIG A   1      -6.449  -3.870 131.201  0.00  0.00    +0.012 C 
ENDROOT
BRANCH  20  24
ATOM     24  C   LIG A   1      -4.955  -1.552 132.320  0.00  0.00    +0.056 C 
BRANCH  24  25
ATOM     25  C   LIG A   1      -3.480  -1.252 132.137  0.00  0.00    +0.227 C 
ATOM     26  O   LIG A   1      -2.688  -2.060 131.639  0.00  0.00    -0.301 OA
ENDBRANCH  24  25
BRANCH  24  27
ATOM     27  C   LIG A   1      -5.480  -0.616 133.439  0.00  0.00    +0.015 C 
BRANCH  27  28
ATOM     28  C   LIG A   1      -5.560  -1.315 134.807  0.00  0.00    +0.028 C 
BRANCH  28  29
ATOM     29  C   LIG A   1      -5.565  -2.814 134.673  0.00  0.00    -0.028 C 
ATOM     30  C   LIG A   1      -6.640  -3.627 134.693  0.00  0.00    -0.080 C 
ATOM     31  C   LIG A   1      -8.059  -3.175 134.902  0.00  0.00    +0.038 C 
ATOM     32  C   LIG A   1      -6.486  -5.112 134.487  0.00  0.00    +0.038 C 
ENDBRANCH  28  29
ENDBRANCH  27  28
ENDBRANCH  24  27
ENDBRANCH  20  24
TORSDOF 5
ENDMDL
MODEL 9
REMARK VINA RESULT:      -7.9      3.251      6.254
REMARK  Name = NuBBE_1071
REMARK  12 active torsions:
REMARK  status: ('A' for Active; 'I' for Inactive)
REMARK    1  A    between atoms: C_1  and  C_2
REMARK    2  A    between atoms: C_8  and  C_9
REMARK    3  A    between atoms: C_13  and  C_14
REMARK    4  A    between atoms: C_13  and  C_15
REMARK    5  A    between atoms: C_21  and  C_36
REMARK    6  A    between atoms: C_22  and  C_23
REMARK    7  A    between atoms: C_23  and  C_25
REMARK    8  A    between atoms: C_23  and  C_27
REMARK    9  A    between atoms: C_27  and  C_28
REMARK   10  A    between atoms: C_28  and  C_29
REMARK   11  A    between atoms: C_30  and  C_31
REMARK   12  A    between atoms: C_30  and  C_32
REMARK                            x       y       z     vdW  Elec       q    Type
REMARK                         _______ _______ _______ _____ _____    ______ ____
ROOT
ATOM      1  C   LIG A   1      -8.885  -1.890 126.194  0.00  0.00    +0.016 C 
ATOM      2  C   LIG A   1      -7.793  -0.796 126.216  0.00  0.00    -0.005 C 
ATOM      3  C   LIG A   1      -6.903  -1.100 127.453  0.00  0.00    -0.063 C 
ATOM      4  C   LIG A   1      -5.772  -1.833 127.403  0.00  0.00    -0.026 C 
ATOM      5  C   LIG A   1      -5.093  -2.425 128.606  0.00  0.00    +0.032 C 
ATOM      6  C   LIG A   1      -6.058  -2.502 129.805  0.00  0.00    +0.012 C 
ATOM      7  C   LIG A   1      -6.651  -1.077 130.080  0.00  0.00    -0.021 C 
ATOM      8  C   LIG A   1      -5.564  -0.023 130.393  0.00  0.00    +0.012 C 
ATOM      9  C   LIG A   1      -7.630  -1.174 131.280  0.00  0.00    +0.015 C 
ATOM     10  C   LIG A   1      -7.017  -1.806 132.516  0.00  0.00    +0.075 C 
ATOM     11  C   LIG A   1      -6.489  -3.185 132.202  0.00  0.00    +0.139 C 
ATOM     12  C   LIG A   1      -5.510  -3.319 131.026  0.00  0.00    +0.027 C 
ATOM     13  C   LIG A   1      -4.115  -2.918 131.529  0.00  0.00    +0.019 C 
ATOM     14  C   LIG A   1      -5.434  -4.816 130.629  0.00  0.00    +0.019 C 
ATOM     15  O   LIG A   1      -6.766  -4.133 132.940  0.00  0.00    -0.297 OA
ATOM     16  C   LIG A   1      -7.487  -0.657 128.794  0.00  0.00    +0.021 C 
ATOM     17  C   LIG A   1      -7.782   0.850 128.715  0.00  0.00    +0.009 C 
ATOM     18  C   LIG A   1      -8.782   1.160 127.604  0.00  0.00    +0.008 C 
ATOM     19  C   LIG A   1      -8.355   0.686 126.190  0.00  0.00    -0.019 C 
ATOM     20  C   LIG A   1      -7.145   1.522 125.587  0.00  0.00    +0.006 C 
ATOM     21  C   LIG A   1      -6.316   0.492 124.780  0.00  0.00    +0.005 C 
ATOM     22  C   LIG A   1      -7.041  -0.840 124.872  0.00  0.00    +0.012 C 
ATOM     23  C   LIG A   1      -9.620   0.808 125.296  0.00  0.00    +0.012 C 
ENDROOT
BRANCH  20  24
ATOM     24  C   LIG A   1      -7.472   2.788 124.729  0.00  0.00    +0.056 C 
BRANCH  24  25
ATOM     25  C   LIG A   1      -7.876   3.950 125.615  0.00  0.00    +0.227 C 
ATOM     26  O   LIG A   1      -8.956   4.539 125.496  0.00  0.00    -0.301 OA
ENDBRANCH  24  25
BRANCH  24  27
ATOM     27  C   LIG A   1      -6.277   3.263 123.862  0.00  0.00    +0.015 C 
BRANCH  27  28
ATOM     28  C   LIG A   1      -5.450   4.365 124.545  0.00  0.00    +0.028 C 
BRANCH  28  29
ATOM     29  C   LIG A   1      -4.195   3.819 125.171  0.00  0.00    -0.028 C 
ATOM     30  C   LIG A   1      -3.941   3.674 126.486  0.00  0.00    -0.080 C 
ATOM     31  C   LIG A   1      -4.874   4.082 127.594  0.00  0.00    +0.038 C 
ATOM     32  C   LIG A   1      -2.651   3.055 126.958  0.00  0.00    +0.038 C 
ENDBRANCH  28  29
ENDBRANCH  27  28
ENDBRANCH  24  27
ENDBRANCH  20  24
TORSDOF 5
ENDMDL
