MODEL 1
REMARK VINA RESULT:      -6.0      0.000      0.000
REMARK  Name = NuBBE_213
REMARK  13 active torsions:
REMARK  status: ('A' for Active; 'I' for Inactive)
REMARK    1  A    between atoms: C_1  and  O_2
REMARK    2  A    between atoms: O_2  and  C_3
REMARK    3  A    between atoms: C_4  and  O_16
REMARK    4  A    between atoms: C_5  and  O_6
REMARK    5  A    between atoms: O_6  and  C_7
REMARK    6  A    between atoms: C_9  and  C_10
REMARK    7  A    between atoms: C_11  and  C_12
REMARK    8  A    between atoms: O_16  and  C_17
REMARK    9  A    between atoms: C_20  and  C_28
REMARK   10  A    between atoms: C_22  and  O_27
REMARK   11  A    between atoms: C_24  and  O_26
REMARK   12  A    between atoms: C_28  and  O_29
REMARK   13  A    between atoms: C_30  and  O_32
REMARK                            x       y       z     vdW  Elec       q    Type
REMARK                         _______ _______ _______ _____ _____    ______ ____
ROOT
ATOM      1  O   LIG A   1      -6.785   0.518 126.534  0.00  0.00    -0.454 OA
ENDROOT
BRANCH   1   3
ATOM      2  C   LIG A   1      -7.070   0.755 124.056  0.00  0.00    +0.166 A 
ATOM      3  C   LIG A   1      -6.681   1.211 125.336  0.00  0.00    +0.207 A 
ATOM      4  C   LIG A   1      -6.139   2.534 125.413  0.00  0.00    +0.166 A 
ATOM      5  C   LIG A   1      -6.060   3.348 124.258  0.00  0.00    +0.057 A 
ATOM      6  C   LIG A   1      -6.483   2.886 123.022  0.00  0.00    -0.018 A 
ATOM      7  C   LIG A   1      -6.984   1.598 122.933  0.00  0.00    +0.057 A 
BRANCH   2   9
ATOM      8  C   LIG A   1      -6.890  -1.382 123.021  0.00  0.00    +0.277 C 
ATOM      9  O   LIG A   1      -7.592  -0.497 123.885  0.00  0.00    -0.491 OA
ENDBRANCH   2   9
BRANCH   4  10
ATOM     10  O   LIG A   1      -5.677   2.987 126.636  0.00  0.00    -0.491 OA
ATOM     11  C   LIG A   1      -4.266   3.225 126.738  0.00  0.00    +0.277 C 
ENDBRANCH   4  10
BRANCH   6  12
ATOM     12  C   LIG A   1      -6.395   3.710 121.815  0.00  0.00    +0.011 C 
ATOM     13  C   LIG A   1      -5.220   4.121 121.322  0.00  0.00    +0.043 C 
BRANCH  13  14
ATOM     14  C   LIG A   1      -5.191   5.020 120.148  0.00  0.00    +0.251 C 
ATOM     15  O   LIG A   1      -4.808   6.168 120.233  0.00  0.00    -0.296 OA
ENDBRANCH  13  14
ENDBRANCH   6  12
ENDBRANCH   1   3
BRANCH   1  16
ATOM     16  C   LIG A   1      -5.817  -0.460 126.976  0.00  0.00    +0.340 C 
ATOM     17  O   LIG A   1      -6.122  -1.809 126.561  0.00  0.00    -0.331 OA
ATOM     18  C   LIG A   1      -7.099  -2.528 127.311  0.00  0.00    +0.179 C 
ATOM     19  C   LIG A   1      -6.887  -2.458 128.837  0.00  0.00    +0.177 C 
ATOM     20  C   LIG A   1      -6.657  -1.022 129.318  0.00  0.00    +0.180 C 
ATOM     21  C   LIG A   1      -5.541  -0.362 128.495  0.00  0.00    +0.214 C 
BRANCH  20  22
ATOM     22  O   LIG A   1      -7.879  -0.294 129.265  0.00  0.00    -0.386 OA
ATOM     23  H   LIG A   1      -8.148  -0.103 130.181  0.00  0.00    +0.210 HD
ENDBRANCH  20  22
BRANCH  19  24
ATOM     24  O   LIG A   1      -5.722  -3.234 129.200  0.00  0.00    -0.387 OA
ATOM     25  H   LIG A   1      -4.995  -2.923 128.628  0.00  0.00    +0.210 HD
ENDBRANCH  19  24
BRANCH  21  26
ATOM     26  O   LIG A   1      -4.279  -0.991 128.822  0.00  0.00    -0.383 OA
ATOM     27  H   LIG A   1      -4.490  -1.765 129.393  0.00  0.00    +0.210 HD
ENDBRANCH  21  26
BRANCH  18  28
ATOM     28  C   LIG A   1      -8.505  -2.157 126.844  0.00  0.00    +0.190 C 
BRANCH  28  29
ATOM     29  O   LIG A   1      -8.781  -2.724 125.568  0.00  0.00    -0.392 OA
ATOM     30  H   LIG A   1      -9.398  -2.111 125.133  0.00  0.00    +0.209 HD
ENDBRANCH  28  29
ENDBRANCH  18  28
ENDBRANCH   1  16
TORSDOF 11
ENDMDL
MODEL 2
REMARK VINA RESULT:      -5.9      2.260      5.100
REMARK  Name = NuBBE_213
REMARK  13 active torsions:
REMARK  status: ('A' for Active; 'I' for Inactive)
REMARK    1  A    between atoms: C_1  and  O_2
REMARK    2  A    between atoms: O_2  and  C_3
REMARK    3  A    between atoms: C_4  and  O_16
REMARK    4  A    between atoms: C_5  and  O_6
REMARK    5  A    between atoms: O_6  and  C_7
REMARK    6  A    between atoms: C_9  and  C_10
REMARK    7  A    between atoms: C_11  and  C_12
REMARK    8  A    between atoms: O_16  and  C_17
REMARK    9  A    between atoms: C_20  and  C_28
REMARK   10  A    between atoms: C_22  and  O_27
REMARK   11  A    between atoms: C_24  and  O_26
REMARK   12  A    between atoms: C_28  and  O_29
REMARK   13  A    between atoms: C_30  and  O_32
REMARK                            x       y       z     vdW  Elec       q    Type
REMARK                         _______ _______ _______ _____ _____    ______ ____
ROOT
ATOM      1  O   LIG A   1      -6.871   0.146 124.472  0.00  0.00    -0.454 OA
ENDROOT
BRANCH   1   3
ATOM      2  C   LIG A   1      -6.084   1.443 126.467  0.00  0.00    +0.166 A 
ATOM      3  C   LIG A   1      -6.431   1.302 125.104  0.00  0.00    +0.207 A 
ATOM      4  C   LIG A   1      -6.301   2.465 124.280  0.00  0.00    +0.166 A 
ATOM      5  C   LIG A   1      -5.793   3.673 124.815  0.00  0.00    +0.057 A 
ATOM      6  C   LIG A   1      -5.425   3.771 126.147  0.00  0.00    -0.018 A 
ATOM      7  C   LIG A   1      -5.573   2.658 126.958  0.00  0.00    +0.057 A 
BRANCH   2   9
ATOM      8  C   LIG A   1      -6.697   0.656 128.628  0.00  0.00    +0.277 C 
ATOM      9  O   LIG A   1      -6.182   0.388 127.330  0.00  0.00    -0.491 OA
ENDBRANCH   2   9
BRANCH   4  10
ATOM     10  O   LIG A   1      -6.704   2.387 122.959  0.00  0.00    -0.491 OA
ATOM     11  C   LIG A   1      -7.922   3.065 122.620  0.00  0.00    +0.277 C 
ENDBRANCH   4  10
BRANCH   6  12
ATOM     12  C   LIG A   1      -4.909   5.016 126.720  0.00  0.00    +0.011 C 
ATOM     13  C   LIG A   1      -3.741   5.065 127.372  0.00  0.00    +0.043 C 
BRANCH  13  14
ATOM     14  C   LIG A   1      -3.305   6.330 128.003  0.00  0.00    +0.251 C 
ATOM     15  O   LIG A   1      -4.103   7.161 128.382  0.00  0.00    -0.296 OA
ENDBRANCH  13  14
ENDBRANCH   6  12
ENDBRANCH   1   3
BRANCH   1  16
ATOM     16  C   LIG A   1      -8.252  -0.278 124.456  0.00  0.00    +0.340 C 
ATOM     17  O   LIG A   1      -8.544  -1.347 125.382  0.00  0.00    -0.331 OA
ATOM     18  C   LIG A   1      -8.196  -2.674 124.992  0.00  0.00    +0.179 C 
ATOM     19  C   LIG A   1      -8.653  -3.043 123.566  0.00  0.00    +0.177 C 
ATOM     20  C   LIG A   1      -8.270  -1.967 122.546  0.00  0.00    +0.180 C 
ATOM     21  C   LIG A   1      -8.750  -0.590 123.025  0.00  0.00    +0.214 C 
BRANCH  20  22
ATOM     22  O   LIG A   1      -6.868  -2.005 122.308  0.00  0.00    -0.386 OA
ATOM     23  H   LIG A   1      -6.733  -2.251 121.376  0.00  0.00    +0.210 HD
ENDBRANCH  20  22
BRANCH  19  24
ATOM     24  O   LIG A   1     -10.092  -3.180 123.539  0.00  0.00    -0.387 OA
ATOM     25  H   LIG A   1     -10.285  -4.111 123.759  0.00  0.00    +0.210 HD
ENDBRANCH  19  24
BRANCH  21  26
ATOM     26  O   LIG A   1     -10.196  -0.548 122.971  0.00  0.00    -0.383 OA
ATOM     27  H   LIG A   1     -10.435   0.249 122.445  0.00  0.00    +0.210 HD
ENDBRANCH  21  26
BRANCH  18  28
ATOM     28  C   LIG A   1      -6.720  -2.942 125.278  0.00  0.00    +0.190 C 
BRANCH  28  29
ATOM     29  O   LIG A   1      -6.288  -2.221 126.427  0.00  0.00    -0.392 OA
ATOM     30  H   LIG A   1      -6.734  -1.357 126.382  0.00  0.00    +0.209 HD
ENDBRANCH  28  29
ENDBRANCH  18  28
ENDBRANCH   1  16
TORSDOF 11
ENDMDL
MODEL 3
REMARK VINA RESULT:      -5.9      2.219      4.958
REMARK  Name = NuBBE_213
REMARK  13 active torsions:
REMARK  status: ('A' for Active; 'I' for Inactive)
REMARK    1  A    between atoms: C_1  and  O_2
REMARK    2  A    between atoms: O_2  and  C_3
REMARK    3  A    between atoms: C_4  and  O_16
REMARK    4  A    between atoms: C_5  and  O_6
REMARK    5  A    between atoms: O_6  and  C_7
REMARK    6  A    between atoms: C_9  and  C_10
REMARK    7  A    between atoms: C_11  and  C_12
REMARK    8  A    between atoms: O_16  and  C_17
REMARK    9  A    between atoms: C_20  and  C_28
REMARK   10  A    between atoms: C_22  and  O_27
REMARK   11  A    between atoms: C_24  and  O_26
REMARK   12  A    between atoms: C_28  and  O_29
REMARK   13  A    between atoms: C_30  and  O_32
REMARK                            x       y       z     vdW  Elec       q    Type
REMARK                         _______ _______ _______ _____ _____    ______ ____
ROOT
ATOM      1  O   LIG A   1      -6.741   0.198 124.357  0.00  0.00    -0.454 OA
ENDROOT
BRANCH   1   3
ATOM      2  C   LIG A   1      -6.480   2.690 124.351  0.00  0.00    +0.166 A 
ATOM      3  C   LIG A   1      -6.275   1.395 124.881  0.00  0.00    +0.207 A 
ATOM      4  C   LIG A   1      -5.523   1.306 126.096  0.00  0.00    +0.166 A 
ATOM      5  C   LIG A   1      -5.067   2.476 126.748  0.00  0.00    +0.057 A 
ATOM      6  C   LIG A   1      -5.315   3.735 126.224  0.00  0.00    -0.018 A 
ATOM      7  C   LIG A   1      -6.018   3.829 125.034  0.00  0.00    +0.057 A 
BRANCH   2   9
ATOM      8  C   LIG A   1      -6.428   3.094 122.006  0.00  0.00    +0.277 C 
ATOM      9  O   LIG A   1      -7.180   2.871 123.192  0.00  0.00    -0.491 OA
ENDBRANCH   2   9
BRANCH   4  10
ATOM     10  O   LIG A   1      -5.237   0.052 126.604  0.00  0.00    -0.491 OA
ATOM     11  C   LIG A   1      -5.872  -0.298 127.842  0.00  0.00    +0.277 C 
ENDBRANCH   4  10
BRANCH   6  12
ATOM     12  C   LIG A   1      -4.838   4.955 126.878  0.00  0.00    +0.011 C 
ATOM     13  C   LIG A   1      -3.614   5.039 127.413  0.00  0.00    +0.043 C 
BRANCH  13  14
ATOM     14  C   LIG A   1      -3.211   6.266 128.135  0.00  0.00    +0.251 C 
ATOM     15  O   LIG A   1      -3.971   7.201 128.276  0.00  0.00    -0.296 OA
ENDBRANCH  13  14
ENDBRANCH   6  12
ENDBRANCH   1   3
BRANCH   1  16
ATOM     16  C   LIG A   1      -8.122  -0.223 124.435  0.00  0.00    +0.340 C 
ATOM     17  O   LIG A   1      -8.354  -1.286 125.385  0.00  0.00    -0.331 OA
ATOM     18  C   LIG A   1      -8.035  -2.616 124.981  0.00  0.00    +0.179 C 
ATOM     19  C   LIG A   1      -8.585  -2.993 123.590  0.00  0.00    +0.177 C 
ATOM     20  C   LIG A   1      -8.268  -1.925 122.540  0.00  0.00    +0.180 C 
ATOM     21  C   LIG A   1      -8.713  -0.543 123.041  0.00  0.00    +0.214 C 
BRANCH  20  22
ATOM     22  O   LIG A   1      -6.885  -1.968 122.211  0.00  0.00    -0.386 OA
ATOM     23  H   LIG A   1      -6.394  -1.558 122.944  0.00  0.00    +0.210 HD
ENDBRANCH  20  22
BRANCH  19  24
ATOM     24  O   LIG A   1     -10.024  -3.127 123.660  0.00  0.00    -0.387 OA
ATOM     25  H   LIG A   1     -10.304  -3.532 122.817  0.00  0.00    +0.210 HD
ENDBRANCH  19  24
BRANCH  21  26
ATOM     26  O   LIG A   1     -10.160  -0.499 123.082  0.00  0.00    -0.383 OA
ATOM     27  H   LIG A   1     -10.465  -1.425 123.217  0.00  0.00    +0.210 HD
ENDBRANCH  21  26
BRANCH  18  28
ATOM     28  C   LIG A   1      -6.544  -2.886 125.171  0.00  0.00    +0.190 C 
BRANCH  28  29
ATOM     29  O   LIG A   1      -6.079  -3.849 124.232  0.00  0.00    -0.392 OA
ATOM     30  H   LIG A   1      -5.117  -3.908 124.364  0.00  0.00    +0.209 HD
ENDBRANCH  28  29
ENDBRANCH  18  28
ENDBRANCH   1  16
TORSDOF 11
ENDMDL
MODEL 4
REMARK VINA RESULT:      -5.8      3.303      8.063
REMARK  Name = NuBBE_213
REMARK  13 active torsions:
REMARK  status: ('A' for Active; 'I' for Inactive)
REMARK    1  A    between atoms: C_1  and  O_2
REMARK    2  A    between atoms: O_2  and  C_3
REMARK    3  A    between atoms: C_4  and  O_16
REMARK    4  A    between atoms: C_5  and  O_6
REMARK    5  A    between atoms: O_6  and  C_7
REMARK    6  A    between atoms: C_9  and  C_10
REMARK    7  A    between atoms: C_11  and  C_12
REMARK    8  A    between atoms: O_16  and  C_17
REMARK    9  A    between atoms: C_20  and  C_28
REMARK   10  A    between atoms: C_22  and  O_27
REMARK   11  A    between atoms: C_24  and  O_26
REMARK   12  A    between atoms: C_28  and  O_29
REMARK   13  A    between atoms: C_30  and  O_32
REMARK                            x       y       z     vdW  Elec       q    Type
REMARK                         _______ _______ _______ _____ _____    ______ ____
ROOT
ATOM      1  O   LIG A   1      -7.874  -1.120 126.466  0.00  0.00    -0.454 OA
ENDROOT
BRANCH   1   3
ATOM      2  C   LIG A   1      -7.438  -0.049 128.689  0.00  0.00    +0.166 A 
ATOM      3  C   LIG A   1      -7.731  -1.146 127.847  0.00  0.00    +0.207 A 
ATOM      4  C   LIG A   1      -7.919  -2.415 128.481  0.00  0.00    +0.166 A 
ATOM      5  C   LIG A   1      -7.866  -2.531 129.890  0.00  0.00    +0.057 A 
ATOM      6  C   LIG A   1      -7.613  -1.431 130.694  0.00  0.00    -0.018 A 
ATOM      7  C   LIG A   1      -7.403  -0.203 130.087  0.00  0.00    +0.057 A 
BRANCH   2   9
ATOM      8  C   LIG A   1      -8.335   2.104 128.209  0.00  0.00    +0.277 C 
ATOM      9  O   LIG A   1      -7.237   1.200 128.173  0.00  0.00    -0.491 OA
ENDBRANCH   2   9
BRANCH   4  10
ATOM     10  O   LIG A   1      -8.132  -3.526 127.683  0.00  0.00    -0.491 OA
ATOM     11  C   LIG A   1      -9.305  -4.301 127.966  0.00  0.00    +0.277 C 
ENDBRANCH   4  10
BRANCH   6  12
ATOM     12  C   LIG A   1      -7.542  -1.536 132.152  0.00  0.00    +0.011 C 
ATOM     13  C   LIG A   1      -7.390  -2.714 132.770  0.00  0.00    +0.043 C 
BRANCH  13  14
ATOM     14  C   LIG A   1      -7.407  -2.774 134.249  0.00  0.00    +0.251 C 
ATOM     15  O   LIG A   1      -8.446  -2.810 134.873  0.00  0.00    -0.296 OA
ENDBRANCH  13  14
ENDBRANCH   6  12
ENDBRANCH   1   3
BRANCH   1  16
ATOM     16  C   LIG A   1      -9.129  -0.859 125.799  0.00  0.00    +0.340 C 
ATOM     17  O   LIG A   1      -9.620  -1.974 125.024  0.00  0.00    -0.331 OA
ATOM     18  C   LIG A   1      -9.049  -2.186 123.734  0.00  0.00    +0.179 C 
ATOM     19  C   LIG A   1      -8.971  -0.910 122.871  0.00  0.00    +0.177 C 
ATOM     20  C   LIG A   1      -8.363   0.265 123.642  0.00  0.00    +0.180 C 
ATOM     21  C   LIG A   1      -9.092   0.453 124.980  0.00  0.00    +0.214 C 
BRANCH  20  22
ATOM     22  O   LIG A   1      -6.964   0.064 123.804  0.00  0.00    -0.386 OA
ATOM     23  H   LIG A   1      -6.833  -0.838 124.144  0.00  0.00    +0.210 HD
ENDBRANCH  20  22
BRANCH  19  24
ATOM     24  O   LIG A   1     -10.301  -0.524 122.458  0.00  0.00    -0.387 OA
ATOM     25  H   LIG A   1     -10.266  -0.406 121.489  0.00  0.00    +0.210 HD
ENDBRANCH  19  24
BRANCH  21  26
ATOM     26  O   LIG A   1     -10.436   0.929 124.723  0.00  0.00    -0.383 OA
ATOM     27  H   LIG A   1     -10.469   1.861 125.039  0.00  0.00    +0.210 HD
ENDBRANCH  21  26
BRANCH  18  28
ATOM     28  C   LIG A   1      -7.736  -2.957 123.855  0.00  0.00    +0.190 C 
BRANCH  28  29
ATOM     29  O   LIG A   1      -7.825  -3.953 124.868  0.00  0.00    -0.392 OA
ATOM     30  H   LIG A   1      -6.908  -4.207 125.073  0.00  0.00    +0.209 HD
ENDBRANCH  28  29
ENDBRANCH  18  28
ENDBRANCH   1  16
TORSDOF 11
ENDMDL
MODEL 5
REMARK VINA RESULT:      -5.8      2.341      7.662
REMARK  Name = NuBBE_213
REMARK  13 active torsions:
REMARK  status: ('A' for Active; 'I' for Inactive)
REMARK    1  A    between atoms: C_1  and  O_2
REMARK    2  A    between atoms: O_2  and  C_3
REMARK    3  A    between atoms: C_4  and  O_16
REMARK    4  A    between atoms: C_5  and  O_6
REMARK    5  A    between atoms: O_6  and  C_7
REMARK    6  A    between atoms: C_9  and  C_10
REMARK    7  A    between atoms: C_11  and  C_12
REMARK    8  A    between atoms: O_16  and  C_17
REMARK    9  A    between atoms: C_20  and  C_28
REMARK   10  A    between atoms: C_22  and  O_27
REMARK   11  A    between atoms: C_24  and  O_26
REMARK   12  A    between atoms: C_28  and  O_29
REMARK   13  A    between atoms: C_30  and  O_32
REMARK                            x       y       z     vdW  Elec       q    Type
REMARK                         _______ _______ _______ _____ _____    ______ ____
ROOT
ATOM      1  O   LIG A   1      -8.879   0.515 125.947  0.00  0.00    -0.454 OA
ENDROOT
BRANCH   1   3
ATOM      2  C   LIG A   1      -7.936  -0.166 128.166  0.00  0.00    +0.166 A 
ATOM      3  C   LIG A   1      -8.369  -0.414 126.843  0.00  0.00    +0.207 A 
ATOM      4  C   LIG A   1      -8.292  -1.766 126.381  0.00  0.00    +0.166 A 
ATOM      5  C   LIG A   1      -7.855  -2.798 127.244  0.00  0.00    +0.057 A 
ATOM      6  C   LIG A   1      -7.471  -2.531 128.549  0.00  0.00    -0.018 A 
ATOM      7  C   LIG A   1      -7.516  -1.221 128.996  0.00  0.00    +0.057 A 
BRANCH   2   9
ATOM      8  C   LIG A   1      -8.326   1.221 130.062  0.00  0.00    +0.277 C 
ATOM      9  O   LIG A   1      -7.967   1.095 128.691  0.00  0.00    -0.491 OA
ENDBRANCH   2   9
BRANCH   4  10
ATOM     10  O   LIG A   1      -8.635  -2.035 125.068  0.00  0.00    -0.491 OA
ATOM     11  C   LIG A   1      -8.552  -3.405 124.652  0.00  0.00    +0.277 C 
ENDBRANCH   4  10
BRANCH   6  12
ATOM     12  C   LIG A   1      -7.003  -3.585 129.450  0.00  0.00    +0.011 C 
ATOM     13  C   LIG A   1      -6.116  -3.342 130.424  0.00  0.00    +0.043 C 
BRANCH  13  14
ATOM     14  C   LIG A   1      -5.613  -4.458 131.255  0.00  0.00    +0.251 C 
ATOM     15  O   LIG A   1      -5.599  -5.600 130.846  0.00  0.00    -0.296 OA
ENDBRANCH  13  14
ENDBRANCH   6  12
ENDBRANCH   1   3
BRANCH   1  16
ATOM     16  C   LIG A   1      -8.279   1.809 125.711  0.00  0.00    +0.340 C 
ATOM     17  O   LIG A   1      -9.107   2.702 124.935  0.00  0.00    -0.331 OA
ATOM     18  C   LIG A   1      -9.128   2.523 123.520  0.00  0.00    +0.179 C 
ATOM     19  C   LIG A   1      -7.728   2.385 122.889  0.00  0.00    +0.177 C 
ATOM     20  C   LIG A   1      -6.860   1.369 123.638  0.00  0.00    +0.180 C 
ATOM     21  C   LIG A   1      -6.846   1.691 125.139  0.00  0.00    +0.214 C 
BRANCH  20  22
ATOM     22  O   LIG A   1      -7.318   0.050 123.366  0.00  0.00    -0.386 OA
ATOM     23  H   LIG A   1      -7.601   0.022 122.435  0.00  0.00    +0.210 HD
ENDBRANCH  20  22
BRANCH  19  24
ATOM     24  O   LIG A   1      -7.048   3.660 122.935  0.00  0.00    -0.387 OA
ATOM     25  H   LIG A   1      -7.637   4.269 123.421  0.00  0.00    +0.210 HD
ENDBRANCH  19  24
BRANCH  21  26
ATOM     26  O   LIG A   1      -6.113   2.922 125.351  0.00  0.00    -0.383 OA
ATOM     27  H   LIG A   1      -6.021   3.030 126.326  0.00  0.00    +0.210 HD
ENDBRANCH  21  26
BRANCH  18  28
ATOM     28  C   LIG A   1     -10.111   1.417 123.140  0.00  0.00    +0.190 C 
BRANCH  28  29
ATOM     29  O   LIG A   1     -11.195   1.365 124.061  0.00  0.00    -0.392 OA
ATOM     30  H   LIG A   1     -11.036   2.081 124.700  0.00  0.00    +0.209 HD
ENDBRANCH  28  29
ENDBRANCH  18  28
ENDBRANCH   1  16
TORSDOF 11
ENDMDL
MODEL 6
REMARK VINA RESULT:      -5.8      0.787      2.592
REMARK  Name = NuBBE_213
REMARK  13 active torsions:
REMARK  status: ('A' for Active; 'I' for Inactive)
REMARK    1  A    between atoms: C_1  and  O_2
REMARK    2  A    between atoms: O_2  and  C_3
REMARK    3  A    between atoms: C_4  and  O_16
REMARK    4  A    between atoms: C_5  and  O_6
REMARK    5  A    between atoms: O_6  and  C_7
REMARK    6  A    between atoms: C_9  and  C_10
REMARK    7  A    between atoms: C_11  and  C_12
REMARK    8  A    between atoms: O_16  and  C_17
REMARK    9  A    between atoms: C_20  and  C_28
REMARK   10  A    between atoms: C_22  and  O_27
REMARK   11  A    between atoms: C_24  and  O_26
REMARK   12  A    between atoms: C_28  and  O_29
REMARK   13  A    between atoms: C_30  and  O_32
REMARK                            x       y       z     vdW  Elec       q    Type
REMARK                         _______ _______ _______ _____ _____    ______ ____
ROOT
ATOM      1  O   LIG A   1      -6.661   0.646 126.567  0.00  0.00    -0.454 OA
ENDROOT
BRANCH   1   3
ATOM      2  C   LIG A   1      -6.084   2.784 125.395  0.00  0.00    +0.166 A 
ATOM      3  C   LIG A   1      -6.604   1.470 125.452  0.00  0.00    +0.207 A 
ATOM      4  C   LIG A   1      -7.109   0.922 124.230  0.00  0.00    +0.166 A 
ATOM      5  C   LIG A   1      -7.029   1.656 123.024  0.00  0.00    +0.057 A 
ATOM      6  C   LIG A   1      -6.480   2.929 122.991  0.00  0.00    -0.018 A 
ATOM      7  C   LIG A   1      -6.014   3.478 124.174  0.00  0.00    +0.057 A 
BRANCH   2   9
ATOM      8  C   LIG A   1      -4.405   4.169 126.359  0.00  0.00    +0.277 C 
ATOM      9  O   LIG A   1      -5.586   3.391 126.513  0.00  0.00    -0.491 OA
ENDBRANCH   2   9
BRANCH   4  10
ATOM     10  O   LIG A   1      -7.695  -0.331 124.263  0.00  0.00    -0.491 OA
ATOM     11  C   LIG A   1      -7.322  -1.239 123.217  0.00  0.00    +0.277 C 
ENDBRANCH   4  10
BRANCH   6  12
ATOM     12  C   LIG A   1      -6.402   3.708 121.754  0.00  0.00    +0.011 C 
ATOM     13  C   LIG A   1      -5.244   4.207 121.305  0.00  0.00    +0.043 C 
BRANCH  13  14
ATOM     14  C   LIG A   1      -5.233   5.057 120.093  0.00  0.00    +0.251 C 
ATOM     15  O   LIG A   1      -4.849   6.207 120.125  0.00  0.00    -0.296 OA
ENDBRANCH  13  14
ENDBRANCH   6  12
ENDBRANCH   1   3
BRANCH   1  16
ATOM     16  C   LIG A   1      -5.495   0.046 127.176  0.00  0.00    +0.340 C 
ATOM     17  O   LIG A   1      -5.352  -1.363 126.897  0.00  0.00    -0.331 OA
ATOM     18  C   LIG A   1      -6.142  -2.273 127.661  0.00  0.00    +0.179 C 
ATOM     19  C   LIG A   1      -6.104  -2.007 129.180  0.00  0.00    +0.177 C 
ATOM     20  C   LIG A   1      -6.349  -0.532 129.509  0.00  0.00    +0.180 C 
ATOM     21  C   LIG A   1      -5.403   0.357 128.689  0.00  0.00    +0.214 C 
BRANCH  20  22
ATOM     22  O   LIG A   1      -7.720  -0.212 129.299  0.00  0.00    -0.386 OA
ATOM     23  H   LIG A   1      -8.251  -0.810 129.852  0.00  0.00    +0.210 HD
ENDBRANCH  20  22
BRANCH  19  24
ATOM     24  O   LIG A   1      -4.803  -2.362 129.700  0.00  0.00    -0.387 OA
ATOM     25  H   LIG A   1      -4.785  -2.061 130.629  0.00  0.00    +0.210 HD
ENDBRANCH  19  24
BRANCH  21  26
ATOM     26  O   LIG A   1      -4.048   0.168 129.164  0.00  0.00    -0.383 OA
ATOM     27  H   LIG A   1      -3.457   0.605 128.508  0.00  0.00    +0.210 HD
ENDBRANCH  21  26
BRANCH  18  28
ATOM     28  C   LIG A   1      -7.546  -2.384 127.068  0.00  0.00    +0.190 C 
BRANCH  28  29
ATOM     29  O   LIG A   1      -8.454  -2.934 128.016  0.00  0.00    -0.392 OA
ATOM     30  H   LIG A   1      -8.774  -3.766 127.626  0.00  0.00    +0.209 HD
ENDBRANCH  28  29
ENDBRANCH  18  28
ENDBRANCH   1  16
TORSDOF 11
ENDMDL
MODEL 7
REMARK VINA RESULT:      -5.8      3.056      5.775
REMARK  Name = NuBBE_213
REMARK  13 active torsions:
REMARK  status: ('A' for Active; 'I' for Inactive)
REMARK    1  A    between atoms: C_1  and  O_2
REMARK    2  A    between atoms: O_2  and  C_3
REMARK    3  A    between atoms: C_4  and  O_16
REMARK    4  A    between atoms: C_5  and  O_6
REMARK    5  A    between atoms: O_6  and  C_7
REMARK    6  A    between atoms: C_9  and  C_10
REMARK    7  A    between atoms: C_11  and  C_12
REMARK    8  A    between atoms: O_16  and  C_17
REMARK    9  A    between atoms: C_20  and  C_28
REMARK   10  A    between atoms: C_22  and  O_27
REMARK   11  A    between atoms: C_24  and  O_26
REMARK   12  A    between atoms: C_28  and  O_29
REMARK   13  A    between atoms: C_30  and  O_32
REMARK                            x       y       z     vdW  Elec       q    Type
REMARK                         _______ _______ _______ _____ _____    ______ ____
ROOT
ATOM      1  O   LIG A   1      -7.862  -0.261 125.913  0.00  0.00    -0.454 OA
ENDROOT
BRANCH   1   3
ATOM      2  C   LIG A   1      -7.634   2.221 126.168  0.00  0.00    +0.166 A 
ATOM      3  C   LIG A   1      -7.773   0.903 126.663  0.00  0.00    +0.207 A 
ATOM      4  C   LIG A   1      -7.847   0.752 128.084  0.00  0.00    +0.166 A 
ATOM      5  C   LIG A   1      -7.839   1.885 128.931  0.00  0.00    +0.057 A 
ATOM      6  C   LIG A   1      -7.739   3.168 128.415  0.00  0.00    -0.018 A 
ATOM      7  C   LIG A   1      -7.639   3.323 127.043  0.00  0.00    +0.057 A 
BRANCH   2   9
ATOM      8  C   LIG A   1      -8.738   2.870 124.161  0.00  0.00    +0.277 C 
ATOM      9  O   LIG A   1      -7.549   2.462 124.826  0.00  0.00    -0.491 OA
ENDBRANCH   2   9
BRANCH   4  10
ATOM     10  O   LIG A   1      -7.906  -0.527 128.608  0.00  0.00    -0.491 OA
ATOM     11  C   LIG A   1      -7.763  -0.643 130.031  0.00  0.00    +0.277 C 
ENDBRANCH   4  10
BRANCH   6  12
ATOM     12  C   LIG A   1      -7.716   4.350 129.278  0.00  0.00    +0.011 C 
ATOM     13  C   LIG A   1      -8.841   4.954 129.682  0.00  0.00    +0.043 C 
BRANCH  13  14
ATOM     14  C   LIG A   1      -8.760   6.194 130.485  0.00  0.00    +0.251 C 
ATOM     15  O   LIG A   1      -8.859   7.291 129.976  0.00  0.00    -0.296 OA
ENDBRANCH  13  14
ENDBRANCH   6  12
ENDBRANCH   1   3
BRANCH   1  16
ATOM     16  C   LIG A   1      -9.032  -0.631 125.149  0.00  0.00    +0.340 C 
ATOM     17  O   LIG A   1      -9.811  -1.686 125.752  0.00  0.00    -0.331 OA
ATOM     18  C   LIG A   1      -9.353  -3.027 125.583  0.00  0.00    +0.179 C 
ATOM     19  C   LIG A   1      -8.984  -3.379 124.127  0.00  0.00    +0.177 C 
ATOM     20  C   LIG A   1      -8.077  -2.321 123.494  0.00  0.00    +0.180 C 
ATOM     21  C   LIG A   1      -8.692  -0.925 123.669  0.00  0.00    +0.214 C 
BRANCH  20  22
ATOM     22  O   LIG A   1      -6.768  -2.414 124.046  0.00  0.00    -0.386 OA
ATOM     23  H   LIG A   1      -6.713  -3.255 124.533  0.00  0.00    +0.210 HD
ENDBRANCH  20  22
BRANCH  19  24
ATOM     24  O   LIG A   1     -10.187  -3.460 123.329  0.00  0.00    -0.387 OA
ATOM     25  H   LIG A   1      -9.899  -3.469 122.397  0.00  0.00    +0.210 HD
ENDBRANCH  19  24
BRANCH  21  26
ATOM     26  O   LIG A   1      -9.880  -0.827 122.847  0.00  0.00    -0.383 OA
ATOM     27  H   LIG A   1      -9.675  -0.183 122.131  0.00  0.00    +0.210 HD
ENDBRANCH  21  26
BRANCH  18  28
ATOM     28  C   LIG A   1      -8.272  -3.352 126.612  0.00  0.00    +0.190 C 
BRANCH  28  29
ATOM     29  O   LIG A   1      -8.800  -3.305 127.933  0.00  0.00    -0.392 OA
ATOM     30  H   LIG A   1      -8.358  -4.021 128.422  0.00  0.00    +0.209 HD
ENDBRANCH  28  29
ENDBRANCH  18  28
ENDBRANCH   1  16
TORSDOF 11
ENDMDL
MODEL 8
REMARK VINA RESULT:      -5.7      3.031      5.793
REMARK  Name = NuBBE_213
REMARK  13 active torsions:
REMARK  status: ('A' for Active; 'I' for Inactive)
REMARK    1  A    between atoms: C_1  and  O_2
REMARK    2  A    between atoms: O_2  and  C_3
REMARK    3  A    between atoms: C_4  and  O_16
REMARK    4  A    between atoms: C_5  and  O_6
REMARK    5  A    between atoms: O_6  and  C_7
REMARK    6  A    between atoms: C_9  and  C_10
REMARK    7  A    between atoms: C_11  and  C_12
REMARK    8  A    between atoms: O_16  and  C_17
REMARK    9  A    between atoms: C_20  and  C_28
REMARK   10  A    between atoms: C_22  and  O_27
REMARK   11  A    between atoms: C_24  and  O_26
REMARK   12  A    between atoms: C_28  and  O_29
REMARK   13  A    between atoms: C_30  and  O_32
REMARK                            x       y       z     vdW  Elec       q    Type
REMARK                         _______ _______ _______ _____ _____    ______ ____
ROOT
ATOM      1  O   LIG A   1      -7.868   0.178 125.448  0.00  0.00    -0.454 OA
ENDROOT
BRANCH   1   3
ATOM      2  C   LIG A   1      -7.877   1.009 127.812  0.00  0.00    +0.166 A 
ATOM      3  C   LIG A   1      -7.857   1.180 126.408  0.00  0.00    +0.207 A 
ATOM      4  C   LIG A   1      -7.803   2.525 125.922  0.00  0.00    +0.166 A 
ATOM      5  C   LIG A   1      -7.715   3.613 126.823  0.00  0.00    +0.057 A 
ATOM      6  C   LIG A   1      -7.699   3.413 128.194  0.00  0.00    -0.018 A 
ATOM      7  C   LIG A   1      -7.779   2.116 128.674  0.00  0.00    +0.057 A 
BRANCH   2   9
ATOM      8  C   LIG A   1      -7.764  -0.332 129.776  0.00  0.00    +0.277 C 
ATOM      9  O   LIG A   1      -7.936  -0.239 128.367  0.00  0.00    -0.491 OA
ENDBRANCH   2   9
BRANCH   4  10
ATOM     10  O   LIG A   1      -7.859   2.735 124.556  0.00  0.00    -0.491 OA
ATOM     11  C   LIG A   1      -6.629   3.100 123.914  0.00  0.00    +0.277 C 
ENDBRANCH   4  10
BRANCH   6  12
ATOM     12  C   LIG A   1      -7.623   4.528 129.140  0.00  0.00    +0.011 C 
ATOM     13  C   LIG A   1      -8.720   5.079 129.673  0.00  0.00    +0.043 C 
BRANCH  13  14
ATOM     14  C   LIG A   1      -8.591   6.257 130.560  0.00  0.00    +0.251 C 
ATOM     15  O   LIG A   1      -8.729   7.387 130.142  0.00  0.00    -0.296 OA
ENDBRANCH  13  14
ENDBRANCH   6  12
ENDBRANCH   1   3
BRANCH   1  16
ATOM     16  C   LIG A   1      -9.077  -0.332 124.841  0.00  0.00    +0.340 C 
ATOM     17  O   LIG A   1      -9.697  -1.401 125.587  0.00  0.00    -0.331 OA
ATOM     18  C   LIG A   1      -9.149  -2.711 125.449  0.00  0.00    +0.179 C 
ATOM     19  C   LIG A   1      -8.906  -3.132 123.985  0.00  0.00    +0.177 C 
ATOM     20  C   LIG A   1      -8.162  -2.052 123.194  0.00  0.00    +0.180 C 
ATOM     21  C   LIG A   1      -8.871  -0.699 123.352  0.00  0.00    +0.214 C 
BRANCH  20  22
ATOM     22  O   LIG A   1      -6.800  -2.007 123.603  0.00  0.00    -0.386 OA
ATOM     23  H   LIG A   1      -6.760  -2.305 124.529  0.00  0.00    +0.210 HD
ENDBRANCH  20  22
BRANCH  19  24
ATOM     24  O   LIG A   1     -10.175  -3.359 123.330  0.00  0.00    -0.387 OA
ATOM     25  H   LIG A   1     -10.006  -4.004 122.618  0.00  0.00    +0.210 HD
ENDBRANCH  19  24
BRANCH  21  26
ATOM     26  O   LIG A   1     -10.143  -0.749 122.662  0.00  0.00    -0.383 OA
ATOM     27  H   LIG A   1     -10.173   0.038 122.071  0.00  0.00    +0.210 HD
ENDBRANCH  21  26
BRANCH  18  28
ATOM     28  C   LIG A   1      -7.942  -2.881 126.370  0.00  0.00    +0.190 C 
BRANCH  28  29
ATOM     29  O   LIG A   1      -8.358  -3.103 127.713  0.00  0.00    -0.392 OA
ATOM     30  H   LIG A   1      -9.057  -2.449 127.887  0.00  0.00    +0.209 HD
ENDBRANCH  28  29
ENDBRANCH  18  28
ENDBRANCH   1  16
TORSDOF 11
ENDMDL
MODEL 9
REMARK VINA RESULT:      -5.7      7.084      9.887
REMARK  Name = NuBBE_213
REMARK  13 active torsions:
REMARK  status: ('A' for Active; 'I' for Inactive)
REMARK    1  A    between atoms: C_1  and  O_2
REMARK    2  A    between atoms: O_2  and  C_3
REMARK    3  A    between atoms: C_4  and  O_16
REMARK    4  A    between atoms: C_5  and  O_6
REMARK    5  A    between atoms: O_6  and  C_7
REMARK    6  A    between atoms: C_9  and  C_10
REMARK    7  A    between atoms: C_11  and  C_12
REMARK    8  A    between atoms: O_16  and  C_17
REMARK    9  A    between atoms: C_20  and  C_28
REMARK   10  A    between atoms: C_22  and  O_27
REMARK   11  A    between atoms: C_24  and  O_26
REMARK   12  A    between atoms: C_28  and  O_29
REMARK   13  A    between atoms: C_30  and  O_32
REMARK                            x       y       z     vdW  Elec       q    Type
REMARK                         _______ _______ _______ _____ _____    ______ ____
ROOT
ATOM      1  O   LIG A   1      -6.361   4.911 131.526  0.00  0.00    -0.454 OA
ENDROOT
BRANCH   1   3
ATOM      2  C   LIG A   1      -4.856   5.893 133.272  0.00  0.00    +0.166 A 
ATOM      3  C   LIG A   1      -5.341   5.750 131.951  0.00  0.00    +0.207 A 
ATOM      4  C   LIG A   1      -4.703   6.539 130.941  0.00  0.00    +0.166 A 
ATOM      5  C   LIG A   1      -3.605   7.371 131.263  0.00  0.00    +0.057 A 
ATOM      6  C   LIG A   1      -3.128   7.462 132.561  0.00  0.00    -0.018 A 
ATOM      7  C   LIG A   1      -3.755   6.723 133.550  0.00  0.00    +0.057 A 
BRANCH   2   9
ATOM      8  C   LIG A   1      -5.945   5.930 135.389  0.00  0.00    +0.277 C 
ATOM      9  O   LIG A   1      -5.407   5.185 134.303  0.00  0.00    -0.491 OA
ENDBRANCH   2   9
BRANCH   4  10
ATOM     10  O   LIG A   1      -5.200   6.484 129.651  0.00  0.00    -0.491 OA
ATOM     11  C   LIG A   1      -4.393   5.798 128.683  0.00  0.00    +0.277 C 
ENDBRANCH   4  10
BRANCH   6  12
ATOM     12  C   LIG A   1      -2.001   8.328 132.913  0.00  0.00    +0.011 C 
ATOM     13  C   LIG A   1      -2.124   9.660 132.973  0.00  0.00    +0.043 C 
BRANCH  13  14
ATOM     14  C   LIG A   1      -0.935  10.495 133.254  0.00  0.00    +0.251 C 
ATOM     15  O   LIG A   1       0.175  10.014 133.341  0.00  0.00    -0.296 OA
ENDBRANCH  13  14
ENDBRANCH   6  12
ENDBRANCH   1   3
BRANCH   1  16
ATOM     16  C   LIG A   1      -7.631   4.792 132.204  0.00  0.00    +0.340 C 
ATOM     17  O   LIG A   1      -8.528   3.836 131.599  0.00  0.00    -0.331 OA
ATOM     18  C   LIG A   1      -9.254   4.249 130.443  0.00  0.00    +0.179 C 
ATOM     19  C   LIG A   1      -9.939   5.623 130.596  0.00  0.00    +0.177 C 
ATOM     20  C   LIG A   1      -8.980   6.682 131.147  0.00  0.00    +0.180 C 
ATOM     21  C   LIG A   1      -8.304   6.168 132.427  0.00  0.00    +0.214 C 
BRANCH  20  22
ATOM     22  O   LIG A   1      -8.041   7.052 130.144  0.00  0.00    -0.386 OA
ATOM     23  H   LIG A   1      -8.526   7.141 129.305  0.00  0.00    +0.210 HD
ENDBRANCH  20  22
BRANCH  19  24
ATOM     24  O   LIG A   1     -11.046   5.511 131.518  0.00  0.00    -0.387 OA
ATOM     25  H   LIG A   1     -11.471   6.389 131.547  0.00  0.00    +0.210 HD
ENDBRANCH  19  24
BRANCH  21  26
ATOM     26  O   LIG A   1      -9.293   6.084 133.482  0.00  0.00    -0.383 OA
ATOM     27  H   LIG A   1      -9.247   5.166 133.836  0.00  0.00    +0.210 HD
ENDBRANCH  21  26
BRANCH  18  28
ATOM     28  C   LIG A   1      -8.389   4.103 129.192  0.00  0.00    +0.190 C 
BRANCH  28  29
ATOM     29  O   LIG A   1      -8.804   5.014 128.181  0.00  0.00    -0.392 OA
ATOM     30  H   LIG A   1      -9.699   5.300 128.431  0.00  0.00    +0.209 HD
ENDBRANCH  28  29
ENDBRANCH  18  28
ENDBRANCH   1  16
TORSDOF 11
ENDMDL
