MODEL 1
REMARK VINA RESULT:      -9.0      0.000      0.000
REMARK  Name = NuBBE_383
REMARK  12 active torsions:
REMARK  status: ('A' for Active; 'I' for Inactive)
REMARK    1  A    between atoms: C_3  and  O_4
REMARK    2  A    between atoms: C_5  and  C_39
REMARK    3  A    between atoms: C_11  and  C_38
REMARK    4  A    between atoms: C_13  and  C_14
REMARK    5  A    between atoms: C_15  and  O_37
REMARK    6  A    between atoms: C_17  and  O_36
REMARK    7  A    between atoms: C_19  and  C_20
REMARK    8  A    between atoms: C_19  and  C_35
REMARK    9  A    between atoms: C_20  and  O_21
REMARK   10  A    between atoms: O_21  and  C_22
REMARK   11  A    between atoms: C_26  and  C_33
REMARK   12  A    between atoms: C_29  and  C_32
REMARK                            x       y       z     vdW  Elec       q    Type
REMARK                         _______ _______ _______ _____ _____    ______ ____
ROOT
ATOM      1  O   LIG A   1      -9.783  -0.466 123.031  0.00  0.00    -0.284 OA
ATOM      2  C   LIG A   1      -8.750  -0.635 123.676  0.00  0.00    +0.221 C 
ATOM      3  C   LIG A   1      -7.799  -1.719 123.285  0.00  0.00    +0.167 C 
ATOM      4  C   LIG A   1      -6.714  -1.993 124.037  0.00  0.00    +0.002 C 
ATOM      5  C   LIG A   1      -6.519  -1.248 125.293  0.00  0.00    -0.014 C 
ATOM      6  C   LIG A   1      -5.675  -1.665 126.269  0.00  0.00    +0.009 C 
ATOM      7  C   LIG A   1      -5.687  -1.083 127.605  0.00  0.00    +0.005 C 
ATOM      8  C   LIG A   1      -6.328   0.080 127.835  0.00  0.00    -0.034 C 
ATOM      9  C   LIG A   1      -6.819   0.495 129.170  0.00  0.00    -0.038 C 
ATOM     10  C   LIG A   1      -7.492  -0.356 129.992  0.00  0.00    -0.068 C 
ATOM     11  C   LIG A   1      -8.159   0.063 131.292  0.00  0.00    +0.040 C 
ATOM     12  C   LIG A   1      -7.828   1.474 131.831  0.00  0.00    +0.004 C 
ATOM     13  C   LIG A   1      -6.554   1.364 132.699  0.00  0.00    +0.014 C 
ATOM     14  C   LIG A   1      -8.983   1.981 132.758  0.00  0.00    +0.150 C 
ATOM     15  C   LIG A   1      -8.856   3.468 133.187  0.00  0.00    +0.160 C 
ATOM     16  C   LIG A   1      -8.604   4.432 132.007  0.00  0.00    +0.093 C 
ATOM     17  C   LIG A   1      -7.483   3.882 131.091  0.00  0.00    +0.025 C 
ATOM     18  C   LIG A   1      -7.713   2.435 130.615  0.00  0.00    +0.009 C 
ATOM     19  C   LIG A   1      -6.718   2.007 129.468  0.00  0.00    -0.003 C 
ATOM     20  C   LIG A   1      -7.128   2.860 128.210  0.00  0.00    +0.013 C 
ATOM     21  C   LIG A   1      -7.701   2.035 127.060  0.00  0.00    +0.017 C 
ATOM     22  C   LIG A   1      -6.720   0.930 126.619  0.00  0.00    +0.019 C 
ATOM     23  C   LIG A   1      -7.281   0.004 125.526  0.00  0.00    -0.026 C 
ATOM     24  C   LIG A   1      -8.369   0.263 124.782  0.00  0.00    +0.059 C 
ATOM     25  C   LIG A   1      -5.459   1.621 126.012  0.00  0.00    +0.021 C 
ATOM     26  C   LIG A   1      -5.242   2.343 129.800  0.00  0.00    +0.016 C 
ATOM     27  C   LIG A   1      -9.864   4.717 131.158  0.00  0.00    +0.025 C 
ATOM     28  C   LIG A   1      -7.797  -1.808 129.681  0.00  0.00    +0.039 C 
ATOM     29  C   LIG A   1      -5.730  -3.058 123.643  0.00  0.00    +0.048 C 
ENDROOT
BRANCH   3  30
ATOM     30  O   LIG A   1      -8.102  -2.415 122.128  0.00  0.00    -0.503 OA
ATOM     31  H   LIG A   1      -8.774  -1.861 121.673  0.00  0.00    +0.292 HD
ENDBRANCH   3  30
BRANCH  16  32
ATOM     32  C   LIG A   1      -8.157   5.787 132.582  0.00  0.00    +0.315 C 
ATOM     33  O   LIG A   1      -8.236   6.846 131.983  0.00  0.00    -0.250 OA
BRANCH  32  34
ATOM     34  O   LIG A   1      -7.660   5.656 133.843  0.00  0.00    -0.468 OA
ATOM     35  C   LIG A   1      -6.242   5.761 133.948  0.00  0.00    +0.280 C 
ENDBRANCH  32  34
ENDBRANCH  16  32
BRANCH  15  36
ATOM     36  O   LIG A   1     -10.078   3.791 133.880  0.00  0.00    -0.388 OA
ATOM     37  H   LIG A   1     -10.518   4.523 133.405  0.00  0.00    +0.210 HD
ENDBRANCH  15  36
BRANCH  14  38
ATOM     38  O   LIG A   1     -10.257   1.822 132.114  0.00  0.00    -0.389 OA
ATOM     39  H   LIG A   1     -10.217   2.412 131.333  0.00  0.00    +0.210 HD
ENDBRANCH  14  38
TORSDOF 5
ENDMDL
MODEL 2
REMARK VINA RESULT:      -8.9      3.370      4.428
REMARK  Name = NuBBE_383
REMARK  12 active torsions:
REMARK  status: ('A' for Active; 'I' for Inactive)
REMARK    1  A    between atoms: C_3  and  O_4
REMARK    2  A    between atoms: C_5  and  C_39
REMARK    3  A    between atoms: C_11  and  C_38
REMARK    4  A    between atoms: C_13  and  C_14
REMARK    5  A    between atoms: C_15  and  O_37
REMARK    6  A    between atoms: C_17  and  O_36
REMARK    7  A    between atoms: C_19  and  C_20
REMARK    8  A    between atoms: C_19  and  C_35
REMARK    9  A    between atoms: C_20  and  O_21
REMARK   10  A    between atoms: O_21  and  C_22
REMARK   11  A    between atoms: C_26  and  C_33
REMARK   12  A    between atoms: C_29  and  C_32
REMARK                            x       y       z     vdW  Elec       q    Type
REMARK                         _______ _______ _______ _____ _____    ______ ____
ROOT
ATOM      1  O   LIG A   1     -10.169   1.981 124.496  0.00  0.00    -0.284 OA
ATOM      2  C   LIG A   1      -9.443   0.989 124.506  0.00  0.00    +0.221 C 
ATOM      3  C   LIG A   1      -9.478   0.030 123.362  0.00  0.00    +0.167 C 
ATOM      4  C   LIG A   1      -8.770  -1.117 123.397  0.00  0.00    +0.002 C 
ATOM      5  C   LIG A   1      -8.013  -1.441 124.618  0.00  0.00    -0.014 C 
ATOM      6  C   LIG A   1      -7.558  -2.690 124.887  0.00  0.00    +0.009 C 
ATOM      7  C   LIG A   1      -7.054  -3.064 126.202  0.00  0.00    +0.005 C 
ATOM      8  C   LIG A   1      -6.751  -2.116 127.111  0.00  0.00    -0.034 C 
ATOM      9  C   LIG A   1      -6.716  -2.361 128.572  0.00  0.00    -0.038 C 
ATOM     10  C   LIG A   1      -7.696  -3.052 129.214  0.00  0.00    -0.068 C 
ATOM     11  C   LIG A   1      -7.794  -3.187 130.726  0.00  0.00    +0.040 C 
ATOM     12  C   LIG A   1      -6.570  -2.735 131.554  0.00  0.00    +0.004 C 
ATOM     13  C   LIG A   1      -5.601  -3.935 131.664  0.00  0.00    +0.014 C 
ATOM     14  C   LIG A   1      -7.012  -2.358 133.007  0.00  0.00    +0.150 C 
ATOM     15  C   LIG A   1      -5.902  -1.692 133.865  0.00  0.00    +0.160 C 
ATOM     16  C   LIG A   1      -5.197  -0.513 133.155  0.00  0.00    +0.093 C 
ATOM     17  C   LIG A   1      -4.808  -0.909 131.711  0.00  0.00    +0.025 C 
ATOM     18  C   LIG A   1      -5.974  -1.471 130.875  0.00  0.00    +0.009 C 
ATOM     19  C   LIG A   1      -5.621  -1.592 129.343  0.00  0.00    -0.003 C 
ATOM     20  C   LIG A   1      -5.493  -0.112 128.818  0.00  0.00    +0.013 C 
ATOM     21  C   LIG A   1      -6.576   0.287 127.818  0.00  0.00    +0.017 C 
ATOM     22  C   LIG A   1      -6.607  -0.672 126.611  0.00  0.00    +0.019 C 
ATOM     23  C   LIG A   1      -7.741  -0.376 125.615  0.00  0.00    -0.026 C 
ATOM     24  C   LIG A   1      -8.460   0.758 125.581  0.00  0.00    +0.059 C 
ATOM     25  C   LIG A   1      -5.270  -0.501 125.826  0.00  0.00    +0.021 C 
ATOM     26  C   LIG A   1      -4.262  -2.295 129.095  0.00  0.00    +0.016 C 
ATOM     27  C   LIG A   1      -6.038   0.783 133.122  0.00  0.00    +0.025 C 
ATOM     28  C   LIG A   1      -8.906  -3.674 128.545  0.00  0.00    +0.039 C 
ATOM     29  C   LIG A   1      -8.769  -2.078 122.242  0.00  0.00    +0.048 C 
ENDROOT
BRANCH   3  30
ATOM     30  O   LIG A   1     -10.274   0.385 122.287  0.00  0.00    -0.503 OA
ATOM     31  H   LIG A   1     -10.548   1.309 122.474  0.00  0.00    +0.292 HD
ENDBRANCH   3  30
BRANCH  16  32
ATOM     32  C   LIG A   1      -3.919  -0.177 133.942  0.00  0.00    +0.315 C 
ATOM     33  O   LIG A   1      -3.908   0.227 135.092  0.00  0.00    -0.250 OA
BRANCH  32  34
ATOM     34  O   LIG A   1      -2.801  -0.384 133.193  0.00  0.00    -0.468 OA
ATOM     35  C   LIG A   1      -1.774  -1.137 133.836  0.00  0.00    +0.280 C 
ENDBRANCH  32  34
ENDBRANCH  16  32
BRANCH  15  36
ATOM     36  O   LIG A   1      -6.537  -1.268 135.086  0.00  0.00    -0.388 OA
ATOM     37  H   LIG A   1      -6.646  -0.298 135.058  0.00  0.00    +0.210 HD
ENDBRANCH  15  36
BRANCH  14  38
ATOM     38  O   LIG A   1      -8.134  -1.461 132.979  0.00  0.00    -0.389 OA
ATOM     39  H   LIG A   1      -8.909  -2.037 132.814  0.00  0.00    +0.210 HD
ENDBRANCH  14  38
TORSDOF 5
ENDMDL
MODEL 3
REMARK VINA RESULT:      -8.7      3.185      4.849
REMARK  Name = NuBBE_383
REMARK  12 active torsions:
REMARK  status: ('A' for Active; 'I' for Inactive)
REMARK    1  A    between atoms: C_3  and  O_4
REMARK    2  A    between atoms: C_5  and  C_39
REMARK    3  A    between atoms: C_11  and  C_38
REMARK    4  A    between atoms: C_13  and  C_14
REMARK    5  A    between atoms: C_15  and  O_37
REMARK    6  A    between atoms: C_17  and  O_36
REMARK    7  A    between atoms: C_19  and  C_20
REMARK    8  A    between atoms: C_19  and  C_35
REMARK    9  A    between atoms: C_20  and  O_21
REMARK   10  A    between atoms: O_21  and  C_22
REMARK   11  A    between atoms: C_26  and  C_33
REMARK   12  A    between atoms: C_29  and  C_32
REMARK                            x       y       z     vdW  Elec       q    Type
REMARK                         _______ _______ _______ _____ _____    ______ ____
ROOT
ATOM      1  O   LIG A   1      -7.836  -3.781 130.091  0.00  0.00    -0.284 OA
ATOM      2  C   LIG A   1      -6.978  -2.912 129.951  0.00  0.00    +0.221 C 
ATOM      3  C   LIG A   1      -5.531  -3.276 130.027  0.00  0.00    +0.167 C 
ATOM      4  C   LIG A   1      -4.575  -2.327 129.982  0.00  0.00    +0.002 C 
ATOM      5  C   LIG A   1      -4.986  -0.913 129.924  0.00  0.00    -0.014 C 
ATOM      6  C   LIG A   1      -4.140   0.107 130.212  0.00  0.00    +0.009 C 
ATOM      7  C   LIG A   1      -4.613   1.470 130.418  0.00  0.00    +0.005 C 
ATOM      8  C   LIG A   1      -5.859   1.823 130.046  0.00  0.00    -0.034 C 
ATOM      9  C   LIG A   1      -6.596   2.970 130.626  0.00  0.00    -0.038 C 
ATOM     10  C   LIG A   1      -6.635   3.201 131.967  0.00  0.00    -0.068 C 
ATOM     11  C   LIG A   1      -7.508   4.259 132.624  0.00  0.00    +0.040 C 
ATOM     12  C   LIG A   1      -8.183   5.292 131.694  0.00  0.00    +0.004 C 
ATOM     13  C   LIG A   1      -7.192   6.461 131.484  0.00  0.00    +0.014 C 
ATOM     14  C   LIG A   1      -9.461   5.881 132.381  0.00  0.00    +0.150 C 
ATOM     15  C   LIG A   1     -10.334   6.772 131.456  0.00  0.00    +0.160 C 
ATOM     16  C   LIG A   1     -10.664   6.115 130.097  0.00  0.00    +0.093 C 
ATOM     17  C   LIG A   1      -9.387   5.512 129.465  0.00  0.00    +0.025 C 
ATOM     18  C   LIG A   1      -8.615   4.556 130.395  0.00  0.00    +0.009 C 
ATOM     19  C   LIG A   1      -7.495   3.744 129.638  0.00  0.00    -0.003 C 
ATOM     20  C   LIG A   1      -8.261   2.757 128.679  0.00  0.00    +0.013 C 
ATOM     21  C   LIG A   1      -8.099   1.284 129.045  0.00  0.00    +0.017 C 
ATOM     22  C   LIG A   1      -6.612   0.879 129.097  0.00  0.00    +0.019 C 
ATOM     23  C   LIG A   1      -6.381  -0.572 129.554  0.00  0.00    -0.026 C 
ATOM     24  C   LIG A   1      -7.331  -1.520 129.616  0.00  0.00    +0.059 C 
ATOM     25  C   LIG A   1      -6.032   0.987 127.652  0.00  0.00    +0.021 C 
ATOM     26  C   LIG A   1      -6.592   4.646 128.758  0.00  0.00    +0.016 C 
ATOM     27  C   LIG A   1     -11.756   5.024 130.185  0.00  0.00    +0.025 C 
ATOM     28  C   LIG A   1      -5.930   2.365 133.017  0.00  0.00    +0.039 C 
ATOM     29  C   LIG A   1      -3.114  -2.677 130.026  0.00  0.00    +0.048 C 
ENDROOT
BRANCH   3  30
ATOM     30  O   LIG A   1      -5.243  -4.623 130.153  0.00  0.00    -0.503 OA
ATOM     31  H   LIG A   1      -5.905  -4.961 130.795  0.00  0.00    +0.292 HD
ENDBRANCH   3  30
BRANCH  16  32
ATOM     32  C   LIG A   1     -11.217   7.203 129.161  0.00  0.00    +0.315 C 
ATOM     33  O   LIG A   1     -11.666   8.272 129.542  0.00  0.00    -0.250 OA
BRANCH  32  34
ATOM     34  O   LIG A   1     -11.146   6.825 127.856  0.00  0.00    -0.468 OA
ATOM     35  C   LIG A   1     -10.927   7.888 126.930  0.00  0.00    +0.280 C 
ENDBRANCH  32  34
ENDBRANCH  16  32
BRANCH  15  36
ATOM     36  O   LIG A   1     -11.530   7.073 132.202  0.00  0.00    -0.388 OA
ATOM     37  H   LIG A   1     -11.427   6.718 133.106  0.00  0.00    +0.210 HD
ENDBRANCH  15  36
BRANCH  14  38
ATOM     38  O   LIG A   1     -10.297   4.827 132.884  0.00  0.00    -0.389 OA
ATOM     39  H   LIG A   1     -11.152   5.262 133.082  0.00  0.00    +0.210 HD
ENDBRANCH  14  38
TORSDOF 5
ENDMDL
MODEL 4
REMARK VINA RESULT:      -8.5      4.069      8.528
REMARK  Name = NuBBE_383
REMARK  12 active torsions:
REMARK  status: ('A' for Active; 'I' for Inactive)
REMARK    1  A    between atoms: C_3  and  O_4
REMARK    2  A    between atoms: C_5  and  C_39
REMARK    3  A    between atoms: C_11  and  C_38
REMARK    4  A    between atoms: C_13  and  C_14
REMARK    5  A    between atoms: C_15  and  O_37
REMARK    6  A    between atoms: C_17  and  O_36
REMARK    7  A    between atoms: C_19  and  C_20
REMARK    8  A    between atoms: C_19  and  C_35
REMARK    9  A    between atoms: C_20  and  O_21
REMARK   10  A    between atoms: O_21  and  C_22
REMARK   11  A    between atoms: C_26  and  C_33
REMARK   12  A    between atoms: C_29  and  C_32
REMARK                            x       y       z     vdW  Elec       q    Type
REMARK                         _______ _______ _______ _____ _____    ______ ____
ROOT
ATOM      1  O   LIG A   1      -3.488  -0.679 135.556  0.00  0.00    -0.284 OA
ATOM      2  C   LIG A   1      -3.974  -1.656 134.990  0.00  0.00    +0.221 C 
ATOM      3  C   LIG A   1      -3.702  -3.029 135.512  0.00  0.00    +0.167 C 
ATOM      4  C   LIG A   1      -4.136  -4.120 134.850  0.00  0.00    +0.002 C 
ATOM      5  C   LIG A   1      -4.826  -3.936 133.561  0.00  0.00    -0.014 C 
ATOM      6  C   LIG A   1      -4.995  -4.945 132.671  0.00  0.00    +0.009 C 
ATOM      7  C   LIG A   1      -5.429  -4.704 131.301  0.00  0.00    +0.005 C 
ATOM      8  C   LIG A   1      -5.954  -3.513 130.952  0.00  0.00    -0.034 C 
ATOM      9  C   LIG A   1      -5.964  -2.995 129.564  0.00  0.00    -0.038 C 
ATOM     10  C   LIG A   1      -4.866  -3.055 128.761  0.00  0.00    -0.068 C 
ATOM     11  C   LIG A   1      -4.771  -2.392 127.396  0.00  0.00    +0.040 C 
ATOM     12  C   LIG A   1      -6.082  -1.847 126.785  0.00  0.00    +0.004 C 
ATOM     13  C   LIG A   1      -6.759  -2.999 126.008  0.00  0.00    +0.014 C 
ATOM     14  C   LIG A   1      -5.764  -0.712 125.755  0.00  0.00    +0.150 C 
ATOM     15  C   LIG A   1      -7.012   0.052 125.235  0.00  0.00    +0.160 C 
ATOM     16  C   LIG A   1      -7.949   0.545 126.361  0.00  0.00    +0.093 C 
ATOM     17  C   LIG A   1      -8.211  -0.590 127.380  0.00  0.00    +0.025 C 
ATOM     18  C   LIG A   1      -6.932  -1.244 127.938  0.00  0.00    +0.009 C 
ATOM     19  C   LIG A   1      -7.217  -2.185 129.171  0.00  0.00    -0.003 C 
ATOM     20  C   LIG A   1      -7.662  -1.228 130.341  0.00  0.00    +0.013 C 
ATOM     21  C   LIG A   1      -6.677  -1.173 131.505  0.00  0.00    +0.017 C 
ATOM     22  C   LIG A   1      -6.408  -2.577 132.081  0.00  0.00    +0.019 C 
ATOM     23  C   LIG A   1      -5.349  -2.596 133.197  0.00  0.00    -0.026 C 
ATOM     24  C   LIG A   1      -4.901  -1.512 133.852  0.00  0.00    +0.059 C 
ATOM     25  C   LIG A   1      -7.734  -3.099 132.718  0.00  0.00    +0.021 C 
ATOM     26  C   LIG A   1      -8.380  -3.177 128.910  0.00  0.00    +0.016 C 
ATOM     27  C   LIG A   1      -7.418   1.790 127.108  0.00  0.00    +0.025 C 
ATOM     28  C   LIG A   1      -3.535  -3.667 129.150  0.00  0.00    +0.039 C 
ATOM     29  C   LIG A   1      -3.899  -5.508 135.377  0.00  0.00    +0.048 C 
ENDROOT
BRANCH   3  30
ATOM     30  O   LIG A   1      -2.984  -3.106 136.693  0.00  0.00    -0.503 OA
ATOM     31  H   LIG A   1      -2.584  -4.003 136.682  0.00  0.00    +0.292 HD
ENDBRANCH   3  30
BRANCH  16  32
ATOM     32  C   LIG A   1      -9.285   0.961 125.724  0.00  0.00    +0.315 C 
ATOM     33  O   LIG A   1     -10.291   0.272 125.728  0.00  0.00    -0.250 OA
BRANCH  32  34
ATOM     34  O   LIG A   1      -9.206   2.195 125.154  0.00  0.00    -0.468 OA
ATOM     35  C   LIG A   1      -9.493   2.235 123.758  0.00  0.00    +0.280 C 
ENDBRANCH  32  34
ENDBRANCH  16  32
BRANCH  15  36
ATOM     36  O   LIG A   1      -6.512   1.149 124.446  0.00  0.00    -0.388 OA
ATOM     37  H   LIG A   1      -5.798   1.589 124.947  0.00  0.00    +0.210 HD
ENDBRANCH  15  36
BRANCH  14  38
ATOM     38  O   LIG A   1      -4.870   0.257 126.327  0.00  0.00    -0.389 OA
ATOM     39  H   LIG A   1      -5.378   1.094 126.327  0.00  0.00    +0.210 HD
ENDBRANCH  14  38
TORSDOF 5
ENDMDL
MODEL 5
REMARK VINA RESULT:      -8.5      4.442      6.664
REMARK  Name = NuBBE_383
REMARK  12 active torsions:
REMARK  status: ('A' for Active; 'I' for Inactive)
REMARK    1  A    between atoms: C_3  and  O_4
REMARK    2  A    between atoms: C_5  and  C_39
REMARK    3  A    between atoms: C_11  and  C_38
REMARK    4  A    between atoms: C_13  and  C_14
REMARK    5  A    between atoms: C_15  and  O_37
REMARK    6  A    between atoms: C_17  and  O_36
REMARK    7  A    between atoms: C_19  and  C_20
REMARK    8  A    between atoms: C_19  and  C_35
REMARK    9  A    between atoms: C_20  and  O_21
REMARK   10  A    between atoms: O_21  and  C_22
REMARK   11  A    between atoms: C_26  and  C_33
REMARK   12  A    between atoms: C_29  and  C_32
REMARK                            x       y       z     vdW  Elec       q    Type
REMARK                         _______ _______ _______ _____ _____    ______ ____
ROOT
ATOM      1  O   LIG A   1      -5.495  -3.773 133.511  0.00  0.00    -0.284 OA
ATOM      2  C   LIG A   1      -4.807  -2.772 133.324  0.00  0.00    +0.221 C 
ATOM      3  C   LIG A   1      -3.380  -2.756 133.765  0.00  0.00    +0.167 C 
ATOM      4  C   LIG A   1      -2.636  -1.636 133.667  0.00  0.00    +0.002 C 
ATOM      5  C   LIG A   1      -3.278  -0.403 133.178  0.00  0.00    -0.014 C 
ATOM      6  C   LIG A   1      -2.734   0.825 133.357  0.00  0.00    +0.009 C 
ATOM      7  C   LIG A   1      -3.489   2.049 133.119  0.00  0.00    +0.005 C 
ATOM      8  C   LIG A   1      -4.652   2.010 132.438  0.00  0.00    -0.034 C 
ATOM      9  C   LIG A   1      -5.709   3.042 132.559  0.00  0.00    -0.038 C 
ATOM     10  C   LIG A   1      -6.114   3.525 133.765  0.00  0.00    -0.068 C 
ATOM     11  C   LIG A   1      -7.302   4.455 133.955  0.00  0.00    +0.040 C 
ATOM     12  C   LIG A   1      -7.914   5.086 132.683  0.00  0.00    +0.004 C 
ATOM     13  C   LIG A   1      -7.138   6.389 132.380  0.00  0.00    +0.014 C 
ATOM     14  C   LIG A   1      -9.406   5.479 132.942  0.00  0.00    +0.150 C 
ATOM     15  C   LIG A   1     -10.181   5.930 131.673  0.00  0.00    +0.160 C 
ATOM     16  C   LIG A   1     -10.043   4.950 130.485  0.00  0.00    +0.093 C 
ATOM     17  C   LIG A   1      -8.561   4.554 130.283  0.00  0.00    +0.025 C 
ATOM     18  C   LIG A   1      -7.872   4.020 131.553  0.00  0.00    +0.009 C 
ATOM     19  C   LIG A   1      -6.470   3.361 131.255  0.00  0.00    -0.003 C 
ATOM     20  C   LIG A   1      -6.782   2.047 130.445  0.00  0.00    +0.013 C 
ATOM     21  C   LIG A   1      -6.440   0.761 131.194  0.00  0.00    +0.017 C 
ATOM     22  C   LIG A   1      -4.962   0.742 131.631  0.00  0.00    +0.019 C 
ATOM     23  C   LIG A   1      -4.581  -0.488 132.474  0.00  0.00    -0.026 C 
ATOM     24  C   LIG A   1      -5.323  -1.602 132.588  0.00  0.00    +0.059 C 
ATOM     25  C   LIG A   1      -4.081   0.689 130.344  0.00  0.00    +0.021 C 
ATOM     26  C   LIG A   1      -5.567   4.254 130.366  0.00  0.00    +0.016 C 
ATOM     27  C   LIG A   1     -10.899   3.672 130.633  0.00  0.00    +0.025 C 
ATOM     28  C   LIG A   1      -5.540   3.113 135.106  0.00  0.00    +0.039 C 
ATOM     29  C   LIG A   1      -1.191  -1.611 134.077  0.00  0.00    +0.048 C 
ENDROOT
BRANCH   3  30
ATOM     30  O   LIG A   1      -2.883  -3.941 134.279  0.00  0.00    -0.503 OA
ATOM     31  H   LIG A   1      -3.396  -4.644 133.824  0.00  0.00    +0.292 HD
ENDBRANCH   3  30
BRANCH  16  32
ATOM     32  C   LIG A   1     -10.546   5.661 129.218  0.00  0.00    +0.315 C 
ATOM     33  O   LIG A   1      -9.819   6.180 128.388  0.00  0.00    -0.250 OA
BRANCH  32  34
ATOM     34  O   LIG A   1     -11.905   5.642 129.139  0.00  0.00    -0.468 OA
ATOM     35  C   LIG A   1     -12.499   6.841 128.644  0.00  0.00    +0.280 C 
ENDBRANCH  32  34
ENDBRANCH  16  32
BRANCH  15  36
ATOM     36  O   LIG A   1     -11.556   6.081 132.075  0.00  0.00    -0.388 OA
ATOM     37  H   LIG A   1     -11.609   6.806 132.728  0.00  0.00    +0.210 HD
ENDBRANCH  15  36
BRANCH  14  38
ATOM     38  O   LIG A   1     -10.127   4.382 133.523  0.00  0.00    -0.389 OA
ATOM     39  H   LIG A   1     -10.840   4.185 132.882  0.00  0.00    +0.210 HD
ENDBRANCH  14  38
TORSDOF 5
ENDMDL
MODEL 6
REMARK VINA RESULT:      -8.5      2.931      4.484
REMARK  Name = NuBBE_383
REMARK  12 active torsions:
REMARK  status: ('A' for Active; 'I' for Inactive)
REMARK    1  A    between atoms: C_3  and  O_4
REMARK    2  A    between atoms: C_5  and  C_39
REMARK    3  A    between atoms: C_11  and  C_38
REMARK    4  A    between atoms: C_13  and  C_14
REMARK    5  A    between atoms: C_15  and  O_37
REMARK    6  A    between atoms: C_17  and  O_36
REMARK    7  A    between atoms: C_19  and  C_20
REMARK    8  A    between atoms: C_19  and  C_35
REMARK    9  A    between atoms: C_20  and  O_21
REMARK   10  A    between atoms: O_21  and  C_22
REMARK   11  A    between atoms: C_26  and  C_33
REMARK   12  A    between atoms: C_29  and  C_32
REMARK                            x       y       z     vdW  Elec       q    Type
REMARK                         _______ _______ _______ _____ _____    ______ ____
ROOT
ATOM      1  O   LIG A   1      -7.116  -1.610 124.553  0.00  0.00    -0.284 OA
ATOM      2  C   LIG A   1      -7.219  -1.818 125.760  0.00  0.00    +0.221 C 
ATOM      3  C   LIG A   1      -8.116  -2.906 126.253  0.00  0.00    +0.167 C 
ATOM      4  C   LIG A   1      -8.326  -3.086 127.572  0.00  0.00    +0.002 C 
ATOM      5  C   LIG A   1      -7.708  -2.143 128.521  0.00  0.00    -0.014 C 
ATOM      6  C   LIG A   1      -8.118  -2.026 129.808  0.00  0.00    +0.009 C 
ATOM      7  C   LIG A   1      -7.697  -0.919 130.657  0.00  0.00    +0.005 C 
ATOM      8  C   LIG A   1      -6.663  -0.136 130.292  0.00  0.00    -0.034 C 
ATOM      9  C   LIG A   1      -6.469   1.249 130.783  0.00  0.00    -0.038 C 
ATOM     10  C   LIG A   1      -7.489   2.148 130.834  0.00  0.00    -0.068 C 
ATOM     11  C   LIG A   1      -7.311   3.621 131.169  0.00  0.00    +0.040 C 
ATOM     12  C   LIG A   1      -5.939   4.055 131.733  0.00  0.00    +0.004 C 
ATOM     13  C   LIG A   1      -5.977   3.869 133.267  0.00  0.00    +0.014 C 
ATOM     14  C   LIG A   1      -5.698   5.575 131.452  0.00  0.00    +0.150 C 
ATOM     15  C   LIG A   1      -4.265   6.071 131.789  0.00  0.00    +0.160 C 
ATOM     16  C   LIG A   1      -3.149   5.192 131.182  0.00  0.00    +0.093 C 
ATOM     17  C   LIG A   1      -3.439   3.694 131.445  0.00  0.00    +0.025 C 
ATOM     18  C   LIG A   1      -4.841   3.236 130.999  0.00  0.00    +0.009 C 
ATOM     19  C   LIG A   1      -5.001   1.667 131.013  0.00  0.00    -0.003 C 
ATOM     20  C   LIG A   1      -4.073   1.135 129.857  0.00  0.00    +0.013 C 
ATOM     21  C   LIG A   1      -4.832   0.500 128.695  0.00  0.00    +0.017 C 
ATOM     22  C   LIG A   1      -5.740  -0.648 129.178  0.00  0.00    +0.019 C 
ATOM     23  C   LIG A   1      -6.603  -1.266 128.064  0.00  0.00    -0.026 C 
ATOM     24  C   LIG A   1      -6.408  -1.081 126.747  0.00  0.00    +0.059 C 
ATOM     25  C   LIG A   1      -4.825  -1.792 129.716  0.00  0.00    +0.021 C 
ATOM     26  C   LIG A   1      -4.512   1.027 132.338  0.00  0.00    +0.016 C 
ATOM     27  C   LIG A   1      -2.939   5.414 129.666  0.00  0.00    +0.025 C 
ATOM     28  C   LIG A   1      -8.925   1.862 130.439  0.00  0.00    +0.039 C 
ATOM     29  C   LIG A   1      -9.200  -4.196 128.087  0.00  0.00    +0.048 C 
ENDROOT
BRANCH   3  30
ATOM     30  O   LIG A   1      -8.711  -3.698 125.286  0.00  0.00    -0.503 OA
ATOM     31  H   LIG A   1      -8.271  -3.438 124.447  0.00  0.00    +0.292 HD
ENDBRANCH   3  30
BRANCH  16  32
ATOM     32  C   LIG A   1      -1.821   5.569 131.860  0.00  0.00    +0.315 C 
ATOM     33  O   LIG A   1      -1.183   4.821 132.582  0.00  0.00    -0.250 OA
BRANCH  32  34
ATOM     34  O   LIG A   1      -1.447   6.842 131.555  0.00  0.00    -0.468 OA
ATOM     35  C   LIG A   1      -0.874   7.578 132.634  0.00  0.00    +0.280 C 
ENDBRANCH  32  34
ENDBRANCH  16  32
BRANCH  15  36
ATOM     36  O   LIG A   1      -4.187   7.428 131.310  0.00  0.00    -0.388 OA
ATOM     37  H   LIG A   1      -5.001   7.897 131.578  0.00  0.00    +0.210 HD
ENDBRANCH  15  36
BRANCH  14  38
ATOM     38  O   LIG A   1      -5.950   5.883 130.072  0.00  0.00    -0.389 OA
ATOM     39  H   LIG A   1      -5.679   6.819 129.972  0.00  0.00    +0.210 HD
ENDBRANCH  14  38
TORSDOF 5
ENDMDL
MODEL 7
REMARK VINA RESULT:      -8.4      3.478      8.086
REMARK  Name = NuBBE_383
REMARK  12 active torsions:
REMARK  status: ('A' for Active; 'I' for Inactive)
REMARK    1  A    between atoms: C_3  and  O_4
REMARK    2  A    between atoms: C_5  and  C_39
REMARK    3  A    between atoms: C_11  and  C_38
REMARK    4  A    between atoms: C_13  and  C_14
REMARK    5  A    between atoms: C_15  and  O_37
REMARK    6  A    between atoms: C_17  and  O_36
REMARK    7  A    between atoms: C_19  and  C_20
REMARK    8  A    between atoms: C_19  and  C_35
REMARK    9  A    between atoms: C_20  and  O_21
REMARK   10  A    between atoms: O_21  and  C_22
REMARK   11  A    between atoms: C_26  and  C_33
REMARK   12  A    between atoms: C_29  and  C_32
REMARK                            x       y       z     vdW  Elec       q    Type
REMARK                         _______ _______ _______ _____ _____    ______ ____
ROOT
ATOM      1  O   LIG A   1      -8.522  -2.914 134.880  0.00  0.00    -0.284 OA
ATOM      2  C   LIG A   1      -7.498  -2.950 134.202  0.00  0.00    +0.221 C 
ATOM      3  C   LIG A   1      -6.186  -3.248 134.852  0.00  0.00    +0.167 C 
ATOM      4  C   LIG A   1      -5.036  -3.190 134.151  0.00  0.00    +0.002 C 
ATOM      5  C   LIG A   1      -5.089  -2.759 132.743  0.00  0.00    -0.014 C 
ATOM      6  C   LIG A   1      -3.992  -2.347 132.062  0.00  0.00    +0.009 C 
ATOM      7  C   LIG A   1      -4.088  -1.672 130.773  0.00  0.00    +0.005 C 
ATOM      8  C   LIG A   1      -5.243  -1.692 130.078  0.00  0.00    -0.034 C 
ATOM      9  C   LIG A   1      -5.605  -0.680 129.059  0.00  0.00    -0.038 C 
ATOM     10  C   LIG A   1      -5.437   0.654 129.271  0.00  0.00    -0.068 C 
ATOM     11  C   LIG A   1      -5.944   1.737 128.332  0.00  0.00    +0.040 C 
ATOM     12  C   LIG A   1      -6.442   1.286 126.940  0.00  0.00    +0.004 C 
ATOM     13  C   LIG A   1      -5.223   1.247 125.990  0.00  0.00    +0.014 C 
ATOM     14  C   LIG A   1      -7.451   2.335 126.364  0.00  0.00    +0.150 C 
ATOM     15  C   LIG A   1      -8.174   1.884 125.065  0.00  0.00    +0.160 C 
ATOM     16  C   LIG A   1      -8.805   0.477 125.166  0.00  0.00    +0.093 C 
ATOM     17  C   LIG A   1      -7.794  -0.525 125.775  0.00  0.00    +0.025 C 
ATOM     18  C   LIG A   1      -7.183  -0.069 127.114  0.00  0.00    +0.009 C 
ATOM     19  C   LIG A   1      -6.389  -1.220 127.843  0.00  0.00    -0.003 C 
ATOM     20  C   LIG A   1      -7.476  -2.268 128.292  0.00  0.00    +0.013 C 
ATOM     21  C   LIG A   1      -7.642  -2.381 129.805  0.00  0.00    +0.017 C 
ATOM     22  C   LIG A   1      -6.305  -2.720 130.493  0.00  0.00    +0.019 C 
ATOM     23  C   LIG A   1      -6.390  -2.753 132.029  0.00  0.00    -0.026 C 
ATOM     24  C   LIG A   1      -7.531  -2.797 132.736  0.00  0.00    +0.059 C 
ATOM     25  C   LIG A   1      -5.880  -4.152 130.040  0.00  0.00    +0.021 C 
ATOM     26  C   LIG A   1      -5.395  -1.949 126.904  0.00  0.00    +0.016 C 
ATOM     27  C   LIG A   1     -10.115   0.442 125.986  0.00  0.00    +0.025 C 
ATOM     28  C   LIG A   1      -4.848   1.269 130.526  0.00  0.00    +0.039 C 
ATOM     29  C   LIG A   1      -3.711  -3.516 134.780  0.00  0.00    +0.048 C 
ENDROOT
BRANCH   3  30
ATOM     30  O   LIG A   1      -6.226  -3.573 136.197  0.00  0.00    -0.503 OA
ATOM     31  H   LIG A   1      -7.182  -3.664 136.402  0.00  0.00    +0.292 HD
ENDBRANCH   3  30
BRANCH  16  32
ATOM     32  C   LIG A   1      -9.172   0.014 123.747  0.00  0.00    +0.315 C 
ATOM     33  O   LIG A   1     -10.168   0.377 123.144  0.00  0.00    -0.250 OA
BRANCH  32  34
ATOM     34  O   LIG A   1      -8.249  -0.853 123.247  0.00  0.00    -0.468 OA
ATOM     35  C   LIG A   1      -8.763  -2.125 122.858  0.00  0.00    +0.280 C 
ENDBRANCH  32  34
ENDBRANCH  16  32
BRANCH  15  36
ATOM     36  O   LIG A   1      -9.169   2.889 124.791  0.00  0.00    -0.388 OA
ATOM     37  H   LIG A   1      -9.572   3.165 125.637  0.00  0.00    +0.210 HD
ENDBRANCH  15  36
BRANCH  14  38
ATOM     38  O   LIG A   1      -8.460   2.654 127.334  0.00  0.00    -0.389 OA
ATOM     39  H   LIG A   1      -8.313   3.600 127.544  0.00  0.00    +0.210 HD
ENDBRANCH  14  38
TORSDOF 5
ENDMDL
MODEL 8
REMARK VINA RESULT:      -8.4      5.099      8.938
REMARK  Name = NuBBE_383
REMARK  12 active torsions:
REMARK  status: ('A' for Active; 'I' for Inactive)
REMARK    1  A    between atoms: C_3  and  O_4
REMARK    2  A    between atoms: C_5  and  C_39
REMARK    3  A    between atoms: C_11  and  C_38
REMARK    4  A    between atoms: C_13  and  C_14
REMARK    5  A    between atoms: C_15  and  O_37
REMARK    6  A    between atoms: C_17  and  O_36
REMARK    7  A    between atoms: C_19  and  C_20
REMARK    8  A    between atoms: C_19  and  C_35
REMARK    9  A    between atoms: C_20  and  O_21
REMARK   10  A    between atoms: O_21  and  C_22
REMARK   11  A    between atoms: C_26  and  C_33
REMARK   12  A    between atoms: C_29  and  C_32
REMARK                            x       y       z     vdW  Elec       q    Type
REMARK                         _______ _______ _______ _____ _____    ______ ____
ROOT
ATOM      1  O   LIG A   1     -10.316   6.944 130.219  0.00  0.00    -0.284 OA
ATOM      2  C   LIG A   1      -9.393   6.155 130.407  0.00  0.00    +0.221 C 
ATOM      3  C   LIG A   1      -9.658   4.685 130.398  0.00  0.00    +0.167 C 
ATOM      4  C   LIG A   1      -8.685   3.803 130.705  0.00  0.00    +0.002 C 
ATOM      5  C   LIG A   1      -7.369   4.320 131.119  0.00  0.00    -0.014 C 
ATOM      6  C   LIG A   1      -6.451   3.555 131.760  0.00  0.00    +0.009 C 
ATOM      7  C   LIG A   1      -5.276   4.131 132.402  0.00  0.00    +0.005 C 
ATOM      8  C   LIG A   1      -4.907   5.399 132.135  0.00  0.00    -0.034 C 
ATOM      9  C   LIG A   1      -4.081   6.223 133.049  0.00  0.00    -0.038 C 
ATOM     10  C   LIG A   1      -4.323   6.285 134.386  0.00  0.00    -0.068 C 
ATOM     11  C   LIG A   1      -3.616   7.238 135.338  0.00  0.00    +0.040 C 
ATOM     12  C   LIG A   1      -2.378   7.986 134.794  0.00  0.00    +0.004 C 
ATOM     13  C   LIG A   1      -1.142   7.087 135.022  0.00  0.00    +0.014 C 
ATOM     14  C   LIG A   1      -2.150   9.307 135.602  0.00  0.00    +0.150 C 
ATOM     15  C   LIG A   1      -1.061  10.243 135.010  0.00  0.00    +0.160 C 
ATOM     16  C   LIG A   1      -1.237  10.517 133.499  0.00  0.00    +0.093 C 
ATOM     17  C   LIG A   1      -1.498   9.195 132.738  0.00  0.00    +0.025 C 
ATOM     18  C   LIG A   1      -2.657   8.356 133.311  0.00  0.00    +0.009 C 
ATOM     19  C   LIG A   1      -3.082   7.175 132.356  0.00  0.00    -0.003 C 
ATOM     20  C   LIG A   1      -3.734   7.860 131.097  0.00  0.00    +0.013 C 
ATOM     21  C   LIG A   1      -5.229   7.587 130.946  0.00  0.00    +0.017 C 
ATOM     22  C   LIG A   1      -5.521   6.075 130.901  0.00  0.00    +0.019 C 
ATOM     23  C   LIG A   1      -7.021   5.736 130.846  0.00  0.00    -0.026 C 
ATOM     24  C   LIG A   1      -7.998   6.611 130.554  0.00  0.00    +0.059 C 
ATOM     25  C   LIG A   1      -4.887   5.500 129.596  0.00  0.00    +0.021 C 
ATOM     26  C   LIG A   1      -1.873   6.340 131.861  0.00  0.00    +0.016 C 
ATOM     27  C   LIG A   1      -2.367  11.523 133.180  0.00  0.00    +0.025 C 
ATOM     28  C   LIG A   1      -5.415   5.522 135.111  0.00  0.00    +0.039 C 
ATOM     29  C   LIG A   1      -8.926   2.320 130.670  0.00  0.00    +0.048 C 
ENDROOT
BRANCH   3  30
ATOM     30  O   LIG A   1     -10.944   4.294 130.068  0.00  0.00    -0.503 OA
ATOM     31  H   LIG A   1     -10.833   3.698 129.296  0.00  0.00    +0.292 HD
ENDBRANCH   3  30
BRANCH  16  32
ATOM     32  C   LIG A   1       0.063  11.148 132.972  0.00  0.00    +0.315 C 
ATOM     33  O   LIG A   1       1.146  10.588 132.973  0.00  0.00    -0.250 OA
BRANCH  32  34
ATOM     34  O   LIG A   1      -0.145  12.410 132.508  0.00  0.00    -0.468 OA
ATOM     35  C   LIG A   1       0.738  12.824 131.467  0.00  0.00    +0.280 C 
ENDBRANCH  32  34
ENDBRANCH  16  32
BRANCH  15  36
ATOM     36  O   LIG A   1      -1.117  11.460 135.778  0.00  0.00    -0.388 OA
ATOM     37  H   LIG A   1      -1.568  11.272 136.624  0.00  0.00    +0.210 HD
ENDBRANCH  15  36
BRANCH  14  38
ATOM     38  O   LIG A   1      -3.368  10.063 135.693  0.00  0.00    -0.389 OA
ATOM     39  H   LIG A   1      -3.175  10.768 136.345  0.00  0.00    +0.210 HD
ENDBRANCH  14  38
TORSDOF 5
ENDMDL
MODEL 9
REMARK VINA RESULT:      -8.2      3.892      6.980
REMARK  Name = NuBBE_383
REMARK  12 active torsions:
REMARK  status: ('A' for Active; 'I' for Inactive)
REMARK    1  A    between atoms: C_3  and  O_4
REMARK    2  A    between atoms: C_5  and  C_39
REMARK    3  A    between atoms: C_11  and  C_38
REMARK    4  A    between atoms: C_13  and  C_14
REMARK    5  A    between atoms: C_15  and  O_37
REMARK    6  A    between atoms: C_17  and  O_36
REMARK    7  A    between atoms: C_19  and  C_20
REMARK    8  A    between atoms: C_19  and  C_35
REMARK    9  A    between atoms: C_20  and  O_21
REMARK   10  A    between atoms: O_21  and  C_22
REMARK   11  A    between atoms: C_26  and  C_33
REMARK   12  A    between atoms: C_29  and  C_32
REMARK                            x       y       z     vdW  Elec       q    Type
REMARK                         _______ _______ _______ _____ _____    ______ ____
ROOT
ATOM      1  O   LIG A   1      -8.394  -4.343 135.447  0.00  0.00    -0.284 OA
ATOM      2  C   LIG A   1      -7.501  -4.364 134.603  0.00  0.00    +0.221 C 
ATOM      3  C   LIG A   1      -6.409  -5.378 134.701  0.00  0.00    +0.167 C 
ATOM      4  C   LIG A   1      -5.363  -5.356 133.851  0.00  0.00    +0.002 C 
ATOM      5  C   LIG A   1      -5.281  -4.266 132.862  0.00  0.00    -0.014 C 
ATOM      6  C   LIG A   1      -4.136  -3.959 132.205  0.00  0.00    +0.009 C 
ATOM      7  C   LIG A   1      -3.988  -2.727 131.441  0.00  0.00    +0.005 C 
ATOM      8  C   LIG A   1      -5.070  -1.991 131.119  0.00  0.00    -0.034 C 
ATOM      9  C   LIG A   1      -5.014  -0.544 130.805  0.00  0.00    -0.038 C 
ATOM     10  C   LIG A   1      -4.302   0.335 131.562  0.00  0.00    -0.068 C 
ATOM     11  C   LIG A   1      -4.346   1.844 131.385  0.00  0.00    +0.040 C 
ATOM     12  C   LIG A   1      -5.034   2.384 130.110  0.00  0.00    +0.004 C 
ATOM     13  C   LIG A   1      -3.974   2.437 128.985  0.00  0.00    +0.014 C 
ATOM     14  C   LIG A   1      -5.536   3.847 130.348  0.00  0.00    +0.150 C 
ATOM     15  C   LIG A   1      -6.426   4.414 129.207  0.00  0.00    +0.160 C 
ATOM     16  C   LIG A   1      -7.579   3.471 128.796  0.00  0.00    +0.093 C 
ATOM     17  C   LIG A   1      -7.053   2.028 128.607  0.00  0.00    +0.025 C 
ATOM     18  C   LIG A   1      -6.263   1.481 129.812  0.00  0.00    +0.009 C 
ATOM     19  C   LIG A   1      -5.993  -0.069 129.710  0.00  0.00    -0.003 C 
ATOM     20  C   LIG A   1      -7.401  -0.757 129.871  0.00  0.00    +0.013 C 
ATOM     21  C   LIG A   1      -7.547  -1.578 131.150  0.00  0.00    +0.017 C 
ATOM     22  C   LIG A   1      -6.447  -2.654 131.256  0.00  0.00    +0.019 C 
ATOM     23  C   LIG A   1      -6.486  -3.451 132.571  0.00  0.00    -0.026 C 
ATOM     24  C   LIG A   1      -7.518  -3.469 133.431  0.00  0.00    +0.059 C 
ATOM     25  C   LIG A   1      -6.670  -3.684 130.105  0.00  0.00    +0.021 C 
ATOM     26  C   LIG A   1      -5.423  -0.488 128.330  0.00  0.00    +0.016 C 
ATOM     27  C   LIG A   1      -8.757   3.459 129.797  0.00  0.00    +0.025 C 
ATOM     28  C   LIG A   1      -3.469  -0.035 132.774  0.00  0.00    +0.039 C 
ATOM     29  C   LIG A   1      -4.272  -6.387 133.916  0.00  0.00    +0.048 C 
ENDROOT
BRANCH   3  30
ATOM     30  O   LIG A   1      -6.534  -6.320 135.708  0.00  0.00    -0.503 OA
ATOM     31  H   LIG A   1      -6.213  -5.864 136.516  0.00  0.00    +0.292 HD
ENDBRANCH   3  30
BRANCH  16  32
ATOM     32  C   LIG A   1      -8.153   3.972 127.461  0.00  0.00    +0.315 C 
ATOM     33  O   LIG A   1      -8.508   5.120 127.254  0.00  0.00    -0.250 OA
BRANCH  32  34
ATOM     34  O   LIG A   1      -8.219   2.973 126.538  0.00  0.00    -0.468 OA
ATOM     35  C   LIG A   1      -8.280   3.408 125.181  0.00  0.00    +0.280 C 
ENDBRANCH  32  34
ENDBRANCH  16  32
BRANCH  15  36
ATOM     36  O   LIG A   1      -6.923   5.681 129.679  0.00  0.00    -0.388 OA
ATOM     37  H   LIG A   1      -7.642   5.512 130.318  0.00  0.00    +0.210 HD
ENDBRANCH  15  36
BRANCH  14  38
ATOM     38  O   LIG A   1      -6.289   3.933 131.568  0.00  0.00    -0.389 OA
ATOM     39  H   LIG A   1      -7.011   3.280 131.462  0.00  0.00    +0.210 HD
ENDBRANCH  14  38
TORSDOF 5
ENDMDL
