MODEL 1
REMARK VINA RESULT:      -7.8      0.000      0.000
REMARK  Name = NuBBE_2357
REMARK  5 active torsions:
REMARK  status: ('A' for Active; 'I' for Inactive)
REMARK    1  A    between atoms: C_1  and  C_2
REMARK    2  A    between atoms: C_9  and  C_10
REMARK    3  A    between atoms: C_10  and  O_11
REMARK    4  A    between atoms: C_19  and  C_20
REMARK    5  A    between atoms: C_19  and  C_21
REMARK                            x       y       z     vdW  Elec       q    Type
REMARK                         _______ _______ _______ _____ _____    ______ ____
ROOT
ATOM      1  C   LIG A   1      -9.972   6.085 132.554  0.00  0.00    +0.012 C 
ATOM      2  C   LIG A   1      -9.544   6.107 131.059  0.00  0.00    -0.025 C 
ATOM      3  C   LIG A   1      -9.835   4.724 130.374  0.00  0.00    +0.001 C 
ATOM      4  C   LIG A   1     -11.337   4.347 130.323  0.00  0.00    +0.005 C 
ATOM      5  C   LIG A   1     -12.322   5.504 130.432  0.00  0.00    +0.012 C 
ATOM      6  C   LIG A   1     -11.807   6.797 129.828  0.00  0.00    -0.007 C 
ATOM      7  C   LIG A   1     -12.779   7.939 130.070  0.00  0.00    -0.018 C 
ATOM      8  C   LIG A   1     -12.816   8.754 129.006  0.00  0.00    -0.045 C 
ATOM      9  C   LIG A   1     -10.378   7.251 130.308  0.00  0.00    +0.005 C 
ATOM     10  C   LIG A   1      -9.615   7.940 129.125  0.00  0.00    +0.005 C 
ATOM     11  C   LIG A   1     -10.463   8.779 128.145  0.00  0.00    +0.008 C 
ATOM     12  C   LIG A   1     -11.881   8.238 127.938  0.00  0.00    +0.018 C 
ATOM     13  C   LIG A   1     -11.895   6.749 128.283  0.00  0.00    +0.019 C 
ATOM     14  C   LIG A   1      -8.919   3.512 130.827  0.00  0.00    -0.032 C 
ATOM     15  C   LIG A   1      -8.747   2.557 129.616  0.00  0.00    +0.011 C 
ATOM     16  C   LIG A   1      -9.498   2.656 131.977  0.00  0.00    +0.011 C 
ATOM     17  C   LIG A   1      -7.514   3.985 131.270  0.00  0.00    +0.007 C 
ATOM     18  C   LIG A   1      -7.109   5.284 130.602  0.00  0.00    +0.001 C 
ATOM     19  C   LIG A   1      -8.003   6.423 131.080  0.00  0.00    +0.007 C 
ENDROOT
BRANCH   8  20
ATOM     20  C   LIG A   1     -13.641   9.978 128.826  0.00  0.00    +0.186 C 
BRANCH  20  21
ATOM     21  O   LIG A   1     -12.928  11.105 129.305  0.00  0.00    -0.391 OA
ATOM     22  H   LIG A   1     -12.377  11.415 128.566  0.00  0.00    +0.210 HD
ENDBRANCH  20  21
ENDBRANCH   8  20
TORSDOF 2
ENDMDL
MODEL 2
REMARK VINA RESULT:      -7.7      8.564     10.469
REMARK  Name = NuBBE_2357
REMARK  5 active torsions:
REMARK  status: ('A' for Active; 'I' for Inactive)
REMARK    1  A    between atoms: C_1  and  C_2
REMARK    2  A    between atoms: C_9  and  C_10
REMARK    3  A    between atoms: C_10  and  O_11
REMARK    4  A    between atoms: C_19  and  C_20
REMARK    5  A    between atoms: C_19  and  C_21
REMARK                            x       y       z     vdW  Elec       q    Type
REMARK                         _______ _______ _______ _____ _____    ______ ____
ROOT
ATOM      1  C   LIG A   1      -7.609  -0.823 128.956  0.00  0.00    +0.012 C 
ATOM      2  C   LIG A   1      -6.679  -1.868 128.275  0.00  0.00    -0.025 C 
ATOM      3  C   LIG A   1      -6.811  -3.270 128.970  0.00  0.00    +0.001 C 
ATOM      4  C   LIG A   1      -8.221  -3.902 128.857  0.00  0.00    +0.005 C 
ATOM      5  C   LIG A   1      -9.093  -3.397 127.715  0.00  0.00    +0.012 C 
ATOM      6  C   LIG A   1      -8.303  -2.994 126.483  0.00  0.00    -0.007 C 
ATOM      7  C   LIG A   1      -9.212  -2.391 125.425  0.00  0.00    -0.018 C 
ATOM      8  C   LIG A   1      -8.810  -2.759 124.201  0.00  0.00    -0.045 C 
ATOM      9  C   LIG A   1      -7.107  -2.002 126.735  0.00  0.00    +0.005 C 
ATOM     10  C   LIG A   1      -5.926  -2.336 125.760  0.00  0.00    +0.005 C 
ATOM     11  C   LIG A   1      -6.309  -2.827 124.348  0.00  0.00    +0.008 C 
ATOM     12  C   LIG A   1      -7.598  -3.654 124.311  0.00  0.00    +0.018 C 
ATOM     13  C   LIG A   1      -7.843  -4.247 125.698  0.00  0.00    +0.019 C 
ATOM     14  C   LIG A   1      -6.206  -3.387 130.430  0.00  0.00    -0.032 C 
ATOM     15  C   LIG A   1      -5.688  -4.836 130.625  0.00  0.00    +0.011 C 
ATOM     16  C   LIG A   1      -7.216  -3.128 131.573  0.00  0.00    +0.011 C 
ATOM     17  C   LIG A   1      -5.018  -2.418 130.641  0.00  0.00    +0.007 C 
ATOM     18  C   LIG A   1      -4.308  -2.089 129.343  0.00  0.00    +0.001 C 
ATOM     19  C   LIG A   1      -5.227  -1.284 128.430  0.00  0.00    +0.007 C 
ENDROOT
BRANCH   8  20
ATOM     20  C   LIG A   1      -9.425  -2.400 122.895  0.00  0.00    +0.186 C 
BRANCH  20  21
ATOM     21  O   LIG A   1      -9.810  -1.036 122.911  0.00  0.00    -0.391 OA
ATOM     22  H   LIG A   1     -10.762  -1.018 122.712  0.00  0.00    +0.210 HD
ENDBRANCH  20  21
ENDBRANCH   8  20
TORSDOF 2
ENDMDL
MODEL 3
REMARK VINA RESULT:      -7.7      6.236      8.635
REMARK  Name = NuBBE_2357
REMARK  5 active torsions:
REMARK  status: ('A' for Active; 'I' for Inactive)
REMARK    1  A    between atoms: C_1  and  C_2
REMARK    2  A    between atoms: C_9  and  C_10
REMARK    3  A    between atoms: C_10  and  O_11
REMARK    4  A    between atoms: C_19  and  C_20
REMARK    5  A    between atoms: C_19  and  C_21
REMARK                            x       y       z     vdW  Elec       q    Type
REMARK                         _______ _______ _______ _____ _____    ______ ____
ROOT
ATOM      1  C   LIG A   1      -6.411  -1.093 126.647  0.00  0.00    +0.012 C 
ATOM      2  C   LIG A   1      -6.877  -0.798 125.192  0.00  0.00    -0.025 C 
ATOM      3  C   LIG A   1      -8.283  -1.439 124.915  0.00  0.00    +0.001 C 
ATOM      4  C   LIG A   1      -9.425  -0.865 125.791  0.00  0.00    +0.005 C 
ATOM      5  C   LIG A   1      -9.185   0.519 126.381  0.00  0.00    +0.012 C 
ATOM      6  C   LIG A   1      -8.335   1.414 125.498  0.00  0.00    -0.007 C 
ATOM      7  C   LIG A   1      -8.033   2.734 126.188  0.00  0.00    -0.018 C 
ATOM      8  C   LIG A   1      -8.039   3.737 125.298  0.00  0.00    -0.045 C 
ATOM      9  C   LIG A   1      -6.976   0.791 125.003  0.00  0.00    +0.005 C 
ATOM     10  C   LIG A   1      -6.660   1.292 123.552  0.00  0.00    +0.005 C 
ATOM     11  C   LIG A   1      -7.079   2.738 123.211  0.00  0.00    +0.008 C 
ATOM     12  C   LIG A   1      -8.355   3.196 123.924  0.00  0.00    +0.018 C 
ATOM     13  C   LIG A   1      -9.169   1.963 124.315  0.00  0.00    +0.019 C 
ATOM     14  C   LIG A   1      -8.325  -3.021 124.821  0.00  0.00    -0.032 C 
ATOM     15  C   LIG A   1      -9.439  -3.417 123.816  0.00  0.00    +0.011 C 
ATOM     16  C   LIG A   1      -8.660  -3.741 126.148  0.00  0.00    +0.011 C 
ATOM     17  C   LIG A   1      -6.986  -3.604 124.309  0.00  0.00    +0.007 C 
ATOM     18  C   LIG A   1      -6.227  -2.621 123.440  0.00  0.00    +0.001 C 
ATOM     19  C   LIG A   1      -5.767  -1.429 124.273  0.00  0.00    +0.007 C 
ENDROOT
BRANCH   8  20
ATOM     20  C   LIG A   1      -7.803   5.182 125.556  0.00  0.00    +0.186 C 
BRANCH  20  21
ATOM     21  O   LIG A   1      -8.995   5.779 126.038  0.00  0.00    -0.391 OA
ATOM     22  H   LIG A   1      -8.834   5.998 126.972  0.00  0.00    +0.210 HD
ENDBRANCH  20  21
ENDBRANCH   8  20
TORSDOF 2
ENDMDL
MODEL 4
REMARK VINA RESULT:      -7.6      8.069     10.499
REMARK  Name = NuBBE_2357
REMARK  5 active torsions:
REMARK  status: ('A' for Active; 'I' for Inactive)
REMARK    1  A    between atoms: C_1  and  C_2
REMARK    2  A    between atoms: C_9  and  C_10
REMARK    3  A    between atoms: C_10  and  O_11
REMARK    4  A    between atoms: C_19  and  C_20
REMARK    5  A    between atoms: C_19  and  C_21
REMARK                            x       y       z     vdW  Elec       q    Type
REMARK                         _______ _______ _______ _____ _____    ______ ____
ROOT
ATOM      1  C   LIG A   1      -8.983  -0.423 125.805  0.00  0.00    +0.012 C 
ATOM      2  C   LIG A   1      -8.276  -1.763 126.159  0.00  0.00    -0.025 C 
ATOM      3  C   LIG A   1      -6.858  -1.841 125.489  0.00  0.00    +0.001 C 
ATOM      4  C   LIG A   1      -5.865  -0.759 125.983  0.00  0.00    +0.005 C 
ATOM      5  C   LIG A   1      -6.168  -0.141 127.342  0.00  0.00    +0.012 C 
ATOM      6  C   LIG A   1      -6.840  -1.101 128.307  0.00  0.00    -0.007 C 
ATOM      7  C   LIG A   1      -7.223  -0.399 129.599  0.00  0.00    -0.018 C 
ATOM      8  C   LIG A   1      -7.047  -1.219 130.645  0.00  0.00    -0.045 C 
ATOM      9  C   LIG A   1      -8.112  -1.846 127.751  0.00  0.00    +0.005 C 
ATOM     10  C   LIG A   1      -8.173  -3.299 128.336  0.00  0.00    +0.005 C 
ATOM     11  C   LIG A   1      -7.670  -3.487 129.783  0.00  0.00    +0.008 C 
ATOM     12  C   LIG A   1      -6.521  -2.550 130.164  0.00  0.00    +0.018 C 
ATOM     13  C   LIG A   1      -5.810  -2.099 128.889  0.00  0.00    +0.019 C 
ATOM     14  C   LIG A   1      -6.836  -2.014 123.914  0.00  0.00    -0.032 C 
ATOM     15  C   LIG A   1      -5.580  -2.842 123.535  0.00  0.00    +0.011 C 
ATOM     16  C   LIG A   1      -6.741  -0.691 123.118  0.00  0.00    +0.011 C 
ATOM     17  C   LIG A   1      -8.085  -2.769 123.399  0.00  0.00    +0.007 C 
ATOM     18  C   LIG A   1      -8.668  -3.695 124.448  0.00  0.00    +0.001 C 
ATOM     19  C   LIG A   1      -9.233  -2.885 125.610  0.00  0.00    +0.007 C 
ENDROOT
BRANCH   8  20
ATOM     20  C   LIG A   1      -7.290  -0.924 132.082  0.00  0.00    +0.186 C 
BRANCH  20  21
ATOM     21  O   LIG A   1      -8.605  -0.422 132.248  0.00  0.00    -0.391 OA
ATOM     22  H   LIG A   1      -8.998  -0.383 131.358  0.00  0.00    +0.210 HD
ENDBRANCH  20  21
ENDBRANCH   8  20
TORSDOF 2
ENDMDL
MODEL 5
REMARK VINA RESULT:      -7.2      6.395      8.835
REMARK  Name = NuBBE_2357
REMARK  5 active torsions:
REMARK  status: ('A' for Active; 'I' for Inactive)
REMARK    1  A    between atoms: C_1  and  C_2
REMARK    2  A    between atoms: C_9  and  C_10
REMARK    3  A    between atoms: C_10  and  O_11
REMARK    4  A    between atoms: C_19  and  C_20
REMARK    5  A    between atoms: C_19  and  C_21
REMARK                            x       y       z     vdW  Elec       q    Type
REMARK                         _______ _______ _______ _____ _____    ______ ____
ROOT
ATOM      1  C   LIG A   1      -5.350   5.062 129.315  0.00  0.00    +0.012 C 
ATOM      2  C   LIG A   1      -4.010   4.420 129.775  0.00  0.00    -0.025 C 
ATOM      3  C   LIG A   1      -2.953   4.439 128.613  0.00  0.00    +0.001 C 
ATOM      4  C   LIG A   1      -2.543   5.862 128.155  0.00  0.00    +0.005 C 
ATOM      5  C   LIG A   1      -2.771   6.982 129.162  0.00  0.00    +0.012 C 
ATOM      6  C   LIG A   1      -2.619   6.539 130.605  0.00  0.00    -0.007 C 
ATOM      7  C   LIG A   1      -2.971   7.665 131.562  0.00  0.00    -0.018 C 
ATOM      8  C   LIG A   1      -2.162   7.638 132.631  0.00  0.00    -0.045 C 
ATOM      9  C   LIG A   1      -3.443   5.261 131.016  0.00  0.00    +0.005 C 
ATOM     10  C   LIG A   1      -2.630   4.417 132.056  0.00  0.00    +0.005 C 
ATOM     11  C   LIG A   1      -1.765   5.202 133.064  0.00  0.00    +0.008 C 
ATOM     12  C   LIG A   1      -1.179   6.498 132.497  0.00  0.00    +0.018 C 
ATOM     13  C   LIG A   1      -1.123   6.388 130.974  0.00  0.00    +0.019 C 
ATOM     14  C   LIG A   1      -3.233   3.464 127.395  0.00  0.00    -0.032 C 
ATOM     15  C   LIG A   1      -1.868   3.001 126.822  0.00  0.00    +0.011 C 
ATOM     16  C   LIG A   1      -4.005   4.104 126.218  0.00  0.00    +0.011 C 
ATOM     17  C   LIG A   1      -4.024   2.208 127.832  0.00  0.00    +0.007 C 
ATOM     18  C   LIG A   1      -3.794   1.864 129.290  0.00  0.00    +0.001 C 
ATOM     19  C   LIG A   1      -4.383   2.948 130.187  0.00  0.00    +0.007 C 
ENDROOT
BRANCH   8  20
ATOM     20  C   LIG A   1      -2.160   8.565 133.794  0.00  0.00    +0.186 C 
BRANCH  20  21
ATOM     21  O   LIG A   1      -2.229   9.903 133.333  0.00  0.00    -0.391 OA
ATOM     22  H   LIG A   1      -2.749  10.394 133.992  0.00  0.00    +0.210 HD
ENDBRANCH  20  21
ENDBRANCH   8  20
TORSDOF 2
ENDMDL
MODEL 6
REMARK VINA RESULT:      -7.2      7.081      9.966
REMARK  Name = NuBBE_2357
REMARK  5 active torsions:
REMARK  status: ('A' for Active; 'I' for Inactive)
REMARK    1  A    between atoms: C_1  and  C_2
REMARK    2  A    between atoms: C_9  and  C_10
REMARK    3  A    between atoms: C_10  and  O_11
REMARK    4  A    between atoms: C_19  and  C_20
REMARK    5  A    between atoms: C_19  and  C_21
REMARK                            x       y       z     vdW  Elec       q    Type
REMARK                         _______ _______ _______ _____ _____    ______ ____
ROOT
ATOM      1  C   LIG A   1      -8.675   2.790 124.778  0.00  0.00    +0.012 C 
ATOM      2  C   LIG A   1      -7.365   2.142 124.244  0.00  0.00    -0.025 C 
ATOM      3  C   LIG A   1      -6.199   2.304 125.282  0.00  0.00    +0.001 C 
ATOM      4  C   LIG A   1      -6.446   1.579 126.630  0.00  0.00    +0.005 C 
ATOM      5  C   LIG A   1      -7.452   0.435 126.600  0.00  0.00    +0.012 C 
ATOM      6  C   LIG A   1      -7.479  -0.312 125.280  0.00  0.00    -0.007 C 
ATOM      7  C   LIG A   1      -8.578  -1.362 125.270  0.00  0.00    -0.018 C 
ATOM      8  C   LIG A   1      -8.172  -2.456 124.610  0.00  0.00    -0.045 C 
ATOM      9  C   LIG A   1      -7.635   0.582 123.993  0.00  0.00    +0.005 C 
ATOM     10  C   LIG A   1      -6.811  -0.038 122.813  0.00  0.00    +0.005 C 
ATOM     11  C   LIG A   1      -6.745  -1.578 122.746  0.00  0.00    +0.008 C 
ATOM     12  C   LIG A   1      -6.757  -2.257 124.119  0.00  0.00    +0.018 C 
ATOM     13  C   LIG A   1      -6.260  -1.260 125.165  0.00  0.00    +0.019 C 
ATOM     14  C   LIG A   1      -5.631   3.772 125.476  0.00  0.00    -0.032 C 
ATOM     15  C   LIG A   1      -4.122   3.666 125.818  0.00  0.00    +0.011 C 
ATOM     16  C   LIG A   1      -6.283   4.572 126.627  0.00  0.00    +0.011 C 
ATOM     17  C   LIG A   1      -5.776   4.619 124.190  0.00  0.00    +0.007 C 
ATOM     18  C   LIG A   1      -5.792   3.765 122.938  0.00  0.00    +0.001 C 
ATOM     19  C   LIG A   1      -7.050   2.904 122.904  0.00  0.00    +0.007 C 
ENDROOT
BRANCH   8  20
ATOM     20  C   LIG A   1      -8.931  -3.713 124.378  0.00  0.00    +0.186 C 
BRANCH  20  21
ATOM     21  O   LIG A   1     -10.067  -3.440 123.576  0.00  0.00    -0.391 OA
ATOM     22  H   LIG A   1     -10.398  -4.301 123.268  0.00  0.00    +0.210 HD
ENDBRANCH  20  21
ENDBRANCH   8  20
TORSDOF 2
ENDMDL
MODEL 7
REMARK VINA RESULT:      -7.1      4.820      7.399
REMARK  Name = NuBBE_2357
REMARK  5 active torsions:
REMARK  status: ('A' for Active; 'I' for Inactive)
REMARK    1  A    between atoms: C_1  and  C_2
REMARK    2  A    between atoms: C_9  and  C_10
REMARK    3  A    between atoms: C_10  and  O_11
REMARK    4  A    between atoms: C_19  and  C_20
REMARK    5  A    between atoms: C_19  and  C_21
REMARK                            x       y       z     vdW  Elec       q    Type
REMARK                         _______ _______ _______ _____ _____    ______ ____
ROOT
ATOM      1  C   LIG A   1      -5.343  -0.247 130.225  0.00  0.00    +0.012 C 
ATOM      2  C   LIG A   1      -6.812  -0.081 129.740  0.00  0.00    -0.025 C 
ATOM      3  C   LIG A   1      -7.626  -1.405 129.959  0.00  0.00    +0.001 C 
ATOM      4  C   LIG A   1      -7.773  -1.819 131.445  0.00  0.00    +0.005 C 
ATOM      5  C   LIG A   1      -7.604  -0.706 132.471  0.00  0.00    +0.012 C 
ATOM      6  C   LIG A   1      -8.071   0.650 131.975  0.00  0.00    -0.007 C 
ATOM      7  C   LIG A   1      -7.770   1.737 132.992  0.00  0.00    -0.018 C 
ATOM      8  C   LIG A   1      -8.759   2.642 133.014  0.00  0.00    -0.045 C 
ATOM      9  C   LIG A   1      -7.494   1.102 130.581  0.00  0.00    +0.005 C 
ATOM     10  C   LIG A   1      -8.579   1.914 129.795  0.00  0.00    +0.005 C 
ATOM     11  C   LIG A   1      -9.516   2.811 130.632  0.00  0.00    +0.008 C 
ATOM     12  C   LIG A   1      -9.829   2.250 132.022  0.00  0.00    +0.018 C 
ATOM     13  C   LIG A   1      -9.616   0.737 132.002  0.00  0.00    +0.019 C 
ATOM     14  C   LIG A   1      -7.244  -2.626 129.022  0.00  0.00    -0.032 C 
ATOM     15  C   LIG A   1      -8.525  -3.464 128.772  0.00  0.00    +0.011 C 
ATOM     16  C   LIG A   1      -6.198  -3.596 129.617  0.00  0.00    +0.011 C 
ATOM     17  C   LIG A   1      -6.703  -2.152 127.652  0.00  0.00    +0.007 C 
ATOM     18  C   LIG A   1      -7.237  -0.788 127.263  0.00  0.00    +0.001 C 
ATOM     19  C   LIG A   1      -6.699   0.277 128.212  0.00  0.00    +0.007 C 
ENDROOT
BRANCH   8  20
ATOM     20  C   LIG A   1      -8.865   3.853 133.871  0.00  0.00    +0.186 C 
BRANCH  20  21
ATOM     21  O   LIG A   1     -10.062   4.547 133.565  0.00  0.00    -0.391 OA
ATOM     22  H   LIG A   1     -10.378   4.188 132.718  0.00  0.00    +0.210 HD
ENDBRANCH  20  21
ENDBRANCH   8  20
TORSDOF 2
ENDMDL
MODEL 8
REMARK VINA RESULT:      -7.0      7.556      9.164
REMARK  Name = NuBBE_2357
REMARK  5 active torsions:
REMARK  status: ('A' for Active; 'I' for Inactive)
REMARK    1  A    between atoms: C_1  and  C_2
REMARK    2  A    between atoms: C_9  and  C_10
REMARK    3  A    between atoms: C_10  and  O_11
REMARK    4  A    between atoms: C_19  and  C_20
REMARK    5  A    between atoms: C_19  and  C_21
REMARK                            x       y       z     vdW  Elec       q    Type
REMARK                         _______ _______ _______ _____ _____    ______ ____
ROOT
ATOM      1  C   LIG A   1      -5.973  -1.883 124.600  0.00  0.00    +0.012 C 
ATOM      2  C   LIG A   1      -7.342  -1.286 125.033  0.00  0.00    -0.025 C 
ATOM      3  C   LIG A   1      -7.266  -0.718 126.495  0.00  0.00    +0.001 C 
ATOM      4  C   LIG A   1      -6.278   0.464 126.664  0.00  0.00    +0.005 C 
ATOM      5  C   LIG A   1      -5.934   1.235 125.396  0.00  0.00    +0.012 C 
ATOM      6  C   LIG A   1      -7.070   1.288 124.392  0.00  0.00    -0.007 C 
ATOM      7  C   LIG A   1      -6.631   1.966 123.105  0.00  0.00    -0.018 C 
ATOM      8  C   LIG A   1      -7.630   2.707 122.604  0.00  0.00    -0.045 C 
ATOM      9  C   LIG A   1      -7.721  -0.098 124.026  0.00  0.00    +0.005 C 
ATOM     10  C   LIG A   1      -9.258   0.084 123.785  0.00  0.00    +0.005 C 
ATOM     11  C   LIG A   1      -9.707   1.407 123.128  0.00  0.00    +0.008 C 
ATOM     12  C   LIG A   1      -8.837   2.610 123.507  0.00  0.00    +0.018 C 
ATOM     13  C   LIG A   1      -8.141   2.316 124.834  0.00  0.00    +0.019 C 
ATOM     14  C   LIG A   1      -7.139  -1.788 127.657  0.00  0.00    -0.032 C 
ATOM     15  C   LIG A   1      -7.857  -1.228 128.912  0.00  0.00    +0.011 C 
ATOM     16  C   LIG A   1      -5.688  -2.104 128.091  0.00  0.00    +0.011 C 
ATOM     17  C   LIG A   1      -7.807  -3.132 127.279  0.00  0.00    +0.007 C 
ATOM     18  C   LIG A   1      -8.924  -2.953 126.271  0.00  0.00    +0.001 C 
ATOM     19  C   LIG A   1      -8.359  -2.483 124.935  0.00  0.00    +0.007 C 
ENDROOT
BRANCH   8  20
ATOM     20  C   LIG A   1      -7.616   3.537 121.370  0.00  0.00    +0.186 C 
BRANCH  20  21
ATOM     21  O   LIG A   1      -8.916   4.046 121.126  0.00  0.00    -0.391 OA
ATOM     22  H   LIG A   1      -9.088   3.912 120.178  0.00  0.00    +0.210 HD
ENDBRANCH  20  21
ENDBRANCH   8  20
TORSDOF 2
ENDMDL
MODEL 9
REMARK VINA RESULT:      -7.0      8.731     11.422
REMARK  Name = NuBBE_2357
REMARK  5 active torsions:
REMARK  status: ('A' for Active; 'I' for Inactive)
REMARK    1  A    between atoms: C_1  and  C_2
REMARK    2  A    between atoms: C_9  and  C_10
REMARK    3  A    between atoms: C_10  and  O_11
REMARK    4  A    between atoms: C_19  and  C_20
REMARK    5  A    between atoms: C_19  and  C_21
REMARK                            x       y       z     vdW  Elec       q    Type
REMARK                         _______ _______ _______ _____ _____    ______ ____
ROOT
ATOM      1  C   LIG A   1      -8.144  -0.908 128.950  0.00  0.00    +0.012 C 
ATOM      2  C   LIG A   1      -7.481  -2.294 128.710  0.00  0.00    -0.025 C 
ATOM      3  C   LIG A   1      -6.817  -2.357 127.288  0.00  0.00    +0.001 C 
ATOM      4  C   LIG A   1      -5.654  -1.352 127.088  0.00  0.00    +0.005 C 
ATOM      5  C   LIG A   1      -4.981  -0.845 128.357  0.00  0.00    +0.012 C 
ATOM      6  C   LIG A   1      -4.965  -1.863 129.482  0.00  0.00    -0.007 C 
ATOM      7  C   LIG A   1      -4.388  -1.263 130.753  0.00  0.00    -0.018 C 
ATOM      8  C   LIG A   1      -3.656  -2.175 131.409  0.00  0.00    -0.045 C 
ATOM      9  C   LIG A   1      -6.354  -2.519 129.828  0.00  0.00    +0.005 C 
ATOM     10  C   LIG A   1      -6.145  -4.014 130.248  0.00  0.00    +0.005 C 
ATOM     11  C   LIG A   1      -4.858  -4.341 131.034  0.00  0.00    +0.008 C 
ATOM     12  C   LIG A   1      -3.658  -3.476 130.641  0.00  0.00    +0.018 C 
ATOM     13  C   LIG A   1      -3.880  -2.938 129.228  0.00  0.00    +0.019 C 
ATOM     14  C   LIG A   1      -7.809  -2.393 126.052  0.00  0.00    -0.032 C 
ATOM     15  C   LIG A   1      -7.144  -3.224 124.923  0.00  0.00    +0.011 C 
ATOM     16  C   LIG A   1      -8.135  -1.011 125.442  0.00  0.00    +0.011 C 
ATOM     17  C   LIG A   1      -9.155  -3.064 126.415  0.00  0.00    +0.007 C 
ATOM     18  C   LIG A   1      -9.015  -4.059 127.549  0.00  0.00    +0.001 C 
ATOM     19  C   LIG A   1      -8.653  -3.335 128.842  0.00  0.00    +0.007 C 
ENDROOT
BRANCH   8  20
ATOM     20  C   LIG A   1      -2.912  -1.998 132.684  0.00  0.00    +0.186 C 
BRANCH  20  21
ATOM     21  O   LIG A   1      -3.706  -2.458 133.764  0.00  0.00    -0.391 OA
ATOM     22  H   LIG A   1      -4.151  -1.674 134.130  0.00  0.00    +0.210 HD
ENDBRANCH  20  21
ENDBRANCH   8  20
TORSDOF 2
ENDMDL
