MODEL 1
REMARK VINA RESULT:      -7.5      0.000      0.000
REMARK  Name = NuBBE_2354
REMARK  6 active torsions:
REMARK  status: ('A' for Active; 'I' for Inactive)
REMARK    1  A    between atoms: C_1  and  C_2
REMARK    2  A    between atoms: C_11  and  C_12
REMARK    3  A    between atoms: C_11  and  C_14
REMARK    4  A    between atoms: C_16  and  C_17
REMARK    5  A    between atoms: C_16  and  C_18
REMARK    6  A    between atoms: C_18  and  O_19
REMARK                            x       y       z     vdW  Elec       q    Type
REMARK                         _______ _______ _______ _____ _____    ______ ____
ROOT
ATOM      1  C   LIG A   1      -6.781  -3.029 125.302  0.00  0.00    +0.012 C 
ATOM      2  C   LIG A   1      -8.099  -2.251 125.554  0.00  0.00    -0.021 C 
ATOM      3  C   LIG A   1      -8.016  -0.760 125.056  0.00  0.00    +0.016 C 
ATOM      4  C   LIG A   1      -6.842  -0.035 125.755  0.00  0.00    +0.032 C 
ATOM      5  C   LIG A   1      -6.813  -0.271 127.237  0.00  0.00    -0.027 C 
ATOM      6  C   LIG A   1      -7.527  -1.223 127.865  0.00  0.00    -0.069 C 
ATOM      7  C   LIG A   1      -8.412  -2.211 127.114  0.00  0.00    +0.021 C 
ATOM      8  C   LIG A   1      -8.415  -3.619 127.762  0.00  0.00    +0.009 C 
ATOM      9  C   LIG A   1      -8.503  -3.604 129.288  0.00  0.00    +0.012 C 
ATOM     10  C   LIG A   1      -7.416  -2.724 129.943  0.00  0.00    -0.011 C 
ATOM     11  C   LIG A   1      -6.002  -3.269 129.630  0.00  0.00    +0.016 C 
ATOM     12  C   LIG A   1      -7.554  -1.289 129.378  0.00  0.00    +0.041 C 
ATOM     13  C   LIG A   1      -8.087  -0.514 123.500  0.00  0.00    +0.068 C 
ATOM     14  C   LIG A   1      -6.765  -0.763 122.744  0.00  0.00    +0.023 C 
ATOM     15  C   LIG A   1      -9.219  -1.374 122.885  0.00  0.00    +0.018 C 
ATOM     16  C   LIG A   1      -9.191  -2.836 123.308  0.00  0.00    +0.002 C 
ATOM     17  C   LIG A   1      -9.257  -2.974 124.824  0.00  0.00    +0.007 C 
ENDROOT
BRANCH  10  18
ATOM     18  C   LIG A   1      -7.602  -2.798 131.458  0.00  0.00    -0.028 C 
ATOM     19  C   LIG A   1      -6.723  -3.242 132.368  0.00  0.00    +0.004 C 
ENDBRANCH  10  18
BRANCH  13  20
ATOM     20  C   LIG A   1      -8.492   0.951 123.241  0.00  0.00    +0.311 C 
ATOM     21  O   LIG A   1      -7.760   1.883 122.964  0.00  0.00    -0.250 OA
BRANCH  20  22
ATOM     22  O   LIG A   1      -9.816   1.178 123.386  0.00  0.00    -0.480 OA
ATOM     23  H   LIG A   1     -10.145   0.364 123.820  0.00  0.00    +0.295 HD
ENDBRANCH  20  22
ENDBRANCH  13  20
TORSDOF 3
ENDMDL
MODEL 2
REMARK VINA RESULT:      -7.4      1.991      3.718
REMARK  Name = NuBBE_2354
REMARK  6 active torsions:
REMARK  status: ('A' for Active; 'I' for Inactive)
REMARK    1  A    between atoms: C_1  and  C_2
REMARK    2  A    between atoms: C_11  and  C_12
REMARK    3  A    between atoms: C_11  and  C_14
REMARK    4  A    between atoms: C_16  and  C_17
REMARK    5  A    between atoms: C_16  and  C_18
REMARK    6  A    between atoms: C_18  and  O_19
REMARK                            x       y       z     vdW  Elec       q    Type
REMARK                         _______ _______ _______ _____ _____    ______ ____
ROOT
ATOM      1  C   LIG A   1      -7.114  -0.407 128.313  0.00  0.00    +0.012 C 
ATOM      2  C   LIG A   1      -6.455  -1.555 127.506  0.00  0.00    -0.021 C 
ATOM      3  C   LIG A   1      -7.507  -2.380 126.675  0.00  0.00    +0.016 C 
ATOM      4  C   LIG A   1      -8.587  -2.960 127.617  0.00  0.00    +0.032 C 
ATOM      5  C   LIG A   1      -8.004  -3.614 128.836  0.00  0.00    -0.027 C 
ATOM      6  C   LIG A   1      -6.726  -3.471 129.233  0.00  0.00    -0.069 C 
ATOM      7  C   LIG A   1      -5.738  -2.570 128.501  0.00  0.00    +0.021 C 
ATOM      8  C   LIG A   1      -4.746  -1.869 129.463  0.00  0.00    +0.009 C 
ATOM      9  C   LIG A   1      -4.199  -2.776 130.565  0.00  0.00    +0.012 C 
ATOM     10  C   LIG A   1      -5.313  -3.476 131.374  0.00  0.00    -0.011 C 
ATOM     11  C   LIG A   1      -6.195  -2.439 132.111  0.00  0.00    +0.016 C 
ATOM     12  C   LIG A   1      -6.184  -4.289 130.386  0.00  0.00    +0.041 C 
ATOM     13  C   LIG A   1      -8.086  -1.705 125.372  0.00  0.00    +0.068 C 
ATOM     14  C   LIG A   1      -9.204  -0.671 125.622  0.00  0.00    +0.023 C 
ATOM     15  C   LIG A   1      -6.936  -1.056 124.562  0.00  0.00    +0.018 C 
ATOM     16  C   LIG A   1      -6.009  -0.177 125.390  0.00  0.00    +0.002 C 
ATOM     17  C   LIG A   1      -5.398  -0.954 126.548  0.00  0.00    +0.007 C 
ENDROOT
BRANCH  10  18
ATOM     18  C   LIG A   1      -4.644  -4.340 132.443  0.00  0.00    -0.028 C 
ATOM     19  C   LIG A   1      -5.229  -5.230 133.256  0.00  0.00    +0.004 C 
ENDBRANCH  10  18
BRANCH  13  20
ATOM     20  C   LIG A   1      -8.672  -2.799 124.458  0.00  0.00    +0.311 C 
ATOM     21  O   LIG A   1      -9.766  -2.811 123.926  0.00  0.00    -0.250 OA
BRANCH  20  22
ATOM     22  O   LIG A   1      -7.850  -3.858 124.289  0.00  0.00    -0.480 OA
ATOM     23  H   LIG A   1      -8.027  -4.145 123.369  0.00  0.00    +0.295 HD
ENDBRANCH  20  22
ENDBRANCH  13  20
TORSDOF 3
ENDMDL
MODEL 3
REMARK VINA RESULT:      -7.2      3.354      6.832
REMARK  Name = NuBBE_2354
REMARK  6 active torsions:
REMARK  status: ('A' for Active; 'I' for Inactive)
REMARK    1  A    between atoms: C_1  and  C_2
REMARK    2  A    between atoms: C_11  and  C_12
REMARK    3  A    between atoms: C_11  and  C_14
REMARK    4  A    between atoms: C_16  and  C_17
REMARK    5  A    between atoms: C_16  and  C_18
REMARK    6  A    between atoms: C_18  and  O_19
REMARK                            x       y       z     vdW  Elec       q    Type
REMARK                         _______ _______ _______ _____ _____    ______ ____
ROOT
ATOM      1  C   LIG A   1      -5.278  -2.629 128.295  0.00  0.00    +0.012 C 
ATOM      2  C   LIG A   1      -6.385  -1.590 128.612  0.00  0.00    -0.021 C 
ATOM      3  C   LIG A   1      -7.214  -1.973 129.893  0.00  0.00    +0.016 C 
ATOM      4  C   LIG A   1      -7.850  -3.372 129.713  0.00  0.00    +0.032 C 
ATOM      5  C   LIG A   1      -8.521  -3.536 128.381  0.00  0.00    -0.027 C 
ATOM      6  C   LIG A   1      -8.356  -2.698 127.341  0.00  0.00    -0.069 C 
ATOM      7  C   LIG A   1      -7.409  -1.505 127.395  0.00  0.00    +0.021 C 
ATOM      8  C   LIG A   1      -6.709  -1.239 126.039  0.00  0.00    +0.009 C 
ATOM      9  C   LIG A   1      -7.632  -1.360 124.825  0.00  0.00    +0.012 C 
ATOM     10  C   LIG A   1      -8.384  -2.708 124.776  0.00  0.00    -0.011 C 
ATOM     11  C   LIG A   1      -7.393  -3.888 124.642  0.00  0.00    +0.016 C 
ATOM     12  C   LIG A   1      -9.191  -2.855 126.088  0.00  0.00    +0.041 C 
ATOM     13  C   LIG A   1      -6.518  -1.760 131.292  0.00  0.00    +0.068 C 
ATOM     14  C   LIG A   1      -5.522  -2.867 131.695  0.00  0.00    +0.023 C 
ATOM     15  C   LIG A   1      -5.816  -0.379 131.324  0.00  0.00    +0.018 C 
ATOM     16  C   LIG A   1      -4.936  -0.100 130.114  0.00  0.00    +0.002 C 
ATOM     17  C   LIG A   1      -5.729  -0.203 128.817  0.00  0.00    +0.007 C 
ENDROOT
BRANCH  10  18
ATOM     18  C   LIG A   1      -9.259  -2.710 123.523  0.00  0.00    -0.028 C 
ATOM     19  C   LIG A   1      -9.316  -1.773 122.566  0.00  0.00    +0.004 C 
ENDBRANCH  10  18
BRANCH  13  20
ATOM     20  C   LIG A   1      -7.601  -1.700 132.388  0.00  0.00    +0.311 C 
ATOM     21  O   LIG A   1      -8.362  -0.781 132.627  0.00  0.00    -0.250 OA
BRANCH  20  22
ATOM     22  O   LIG A   1      -7.645  -2.805 133.164  0.00  0.00    -0.480 OA
ATOM     23  H   LIG A   1      -7.523  -2.457 134.071  0.00  0.00    +0.295 HD
ENDBRANCH  20  22
ENDBRANCH  13  20
TORSDOF 3
ENDMDL
MODEL 4
REMARK VINA RESULT:      -7.2      3.589      6.902
REMARK  Name = NuBBE_2354
REMARK  6 active torsions:
REMARK  status: ('A' for Active; 'I' for Inactive)
REMARK    1  A    between atoms: C_1  and  C_2
REMARK    2  A    between atoms: C_11  and  C_12
REMARK    3  A    between atoms: C_11  and  C_14
REMARK    4  A    between atoms: C_16  and  C_17
REMARK    5  A    between atoms: C_16  and  C_18
REMARK    6  A    between atoms: C_18  and  O_19
REMARK                            x       y       z     vdW  Elec       q    Type
REMARK                         _______ _______ _______ _____ _____    ______ ____
ROOT
ATOM      1  C   LIG A   1      -7.768  -1.064 130.035  0.00  0.00    +0.012 C 
ATOM      2  C   LIG A   1      -6.899  -2.338 129.865  0.00  0.00    -0.021 C 
ATOM      3  C   LIG A   1      -5.358  -2.018 129.901  0.00  0.00    +0.016 C 
ATOM      4  C   LIG A   1      -5.005  -0.996 128.795  0.00  0.00    +0.032 C 
ATOM      5  C   LIG A   1      -5.607  -1.348 127.466  0.00  0.00    -0.027 C 
ATOM      6  C   LIG A   1      -6.575  -2.266 127.293  0.00  0.00    -0.069 C 
ATOM      7  C   LIG A   1      -7.208  -3.017 128.459  0.00  0.00    +0.021 C 
ATOM      8  C   LIG A   1      -8.718  -3.289 128.242  0.00  0.00    +0.009 C 
ATOM      9  C   LIG A   1      -9.073  -3.745 126.826  0.00  0.00    +0.012 C 
ATOM     10  C   LIG A   1      -8.549  -2.783 125.737  0.00  0.00    -0.011 C 
ATOM     11  C   LIG A   1      -9.193  -1.384 125.880  0.00  0.00    +0.016 C 
ATOM     12  C   LIG A   1      -7.014  -2.666 125.900  0.00  0.00    +0.041 C 
ATOM     13  C   LIG A   1      -4.723  -1.689 131.306  0.00  0.00    +0.068 C 
ATOM     14  C   LIG A   1      -4.958  -0.247 131.802  0.00  0.00    +0.023 C 
ATOM     15  C   LIG A   1      -5.232  -2.702 132.362  0.00  0.00    +0.018 C 
ATOM     16  C   LIG A   1      -6.742  -2.894 132.364  0.00  0.00    +0.002 C 
ATOM     17  C   LIG A   1      -7.244  -3.337 130.996  0.00  0.00    +0.007 C 
ENDROOT
BRANCH  10  18
ATOM     18  C   LIG A   1      -8.973  -3.339 124.378  0.00  0.00    -0.028 C 
ATOM     19  C   LIG A   1      -8.908  -2.723 123.189  0.00  0.00    +0.004 C 
ENDBRANCH  10  18
BRANCH  13  20
ATOM     20  C   LIG A   1      -3.197  -1.901 131.229  0.00  0.00    +0.311 C 
ATOM     21  O   LIG A   1      -2.544  -2.234 130.258  0.00  0.00    -0.250 OA
BRANCH  20  22
ATOM     22  O   LIG A   1      -2.567  -1.718 132.410  0.00  0.00    -0.480 OA
ATOM     23  H   LIG A   1      -2.629  -2.593 132.845  0.00  0.00    +0.295 HD
ENDBRANCH  20  22
ENDBRANCH  13  20
TORSDOF 3
ENDMDL
MODEL 5
REMARK VINA RESULT:      -7.1      3.592      5.538
REMARK  Name = NuBBE_2354
REMARK  6 active torsions:
REMARK  status: ('A' for Active; 'I' for Inactive)
REMARK    1  A    between atoms: C_1  and  C_2
REMARK    2  A    between atoms: C_11  and  C_12
REMARK    3  A    between atoms: C_11  and  C_14
REMARK    4  A    between atoms: C_16  and  C_17
REMARK    5  A    between atoms: C_16  and  C_18
REMARK    6  A    between atoms: C_18  and  O_19
REMARK                            x       y       z     vdW  Elec       q    Type
REMARK                         _______ _______ _______ _____ _____    ______ ____
ROOT
ATOM      1  C   LIG A   1      -5.298   0.087 125.783  0.00  0.00    +0.012 C 
ATOM      2  C   LIG A   1      -6.424   1.006 126.325  0.00  0.00    -0.021 C 
ATOM      3  C   LIG A   1      -7.385   1.510 125.184  0.00  0.00    +0.016 C 
ATOM      4  C   LIG A   1      -6.573   2.263 124.105  0.00  0.00    +0.032 C 
ATOM      5  C   LIG A   1      -5.613   3.258 124.689  0.00  0.00    -0.027 C 
ATOM      6  C   LIG A   1      -5.268   3.303 125.988  0.00  0.00    -0.069 C 
ATOM      7  C   LIG A   1      -5.785   2.295 127.008  0.00  0.00    +0.021 C 
ATOM      8  C   LIG A   1      -4.729   1.942 128.085  0.00  0.00    +0.009 C 
ATOM      9  C   LIG A   1      -3.947   3.147 128.611  0.00  0.00    +0.012 C 
ATOM     10  C   LIG A   1      -3.294   3.976 127.483  0.00  0.00    -0.011 C 
ATOM     11  C   LIG A   1      -2.254   3.132 126.708  0.00  0.00    +0.016 C 
ATOM     12  C   LIG A   1      -4.413   4.435 126.517  0.00  0.00    +0.041 C 
ATOM     13  C   LIG A   1      -8.419   0.471 124.602  0.00  0.00    +0.068 C 
ATOM     14  C   LIG A   1      -7.834  -0.517 123.572  0.00  0.00    +0.023 C 
ATOM     15  C   LIG A   1      -9.089  -0.308 125.762  0.00  0.00    +0.018 C 
ATOM     16  C   LIG A   1      -8.110  -0.872 126.781  0.00  0.00    +0.002 C 
ATOM     17  C   LIG A   1      -7.243   0.227 127.383  0.00  0.00    +0.007 C 
ENDROOT
BRANCH  10  18
ATOM     18  C   LIG A   1      -2.540   5.137 128.132  0.00  0.00    -0.028 C 
ATOM     19  C   LIG A   1      -2.634   5.564 129.400  0.00  0.00    +0.004 C 
ENDBRANCH  10  18
BRANCH  13  20
ATOM     20  C   LIG A   1      -9.560   1.237 123.903  0.00  0.00    +0.311 C 
ATOM     21  O   LIG A   1     -10.015   1.035 122.793  0.00  0.00    -0.250 OA
BRANCH  20  22
ATOM     22  O   LIG A   1     -10.050   2.261 124.636  0.00  0.00    -0.480 OA
ATOM     23  H   LIG A   1      -9.318   2.481 125.247  0.00  0.00    +0.295 HD
ENDBRANCH  20  22
ENDBRANCH  13  20
TORSDOF 3
ENDMDL
MODEL 6
REMARK VINA RESULT:      -7.0      9.066     11.283
REMARK  Name = NuBBE_2354
REMARK  6 active torsions:
REMARK  status: ('A' for Active; 'I' for Inactive)
REMARK    1  A    between atoms: C_1  and  C_2
REMARK    2  A    between atoms: C_11  and  C_12
REMARK    3  A    between atoms: C_11  and  C_14
REMARK    4  A    between atoms: C_16  and  C_17
REMARK    5  A    between atoms: C_16  and  C_18
REMARK    6  A    between atoms: C_18  and  O_19
REMARK                            x       y       z     vdW  Elec       q    Type
REMARK                         _______ _______ _______ _____ _____    ______ ____
ROOT
ATOM      1  C   LIG A   1      -6.743   4.683 130.907  0.00  0.00    +0.012 C 
ATOM      2  C   LIG A   1      -6.770   6.004 131.719  0.00  0.00    -0.021 C 
ATOM      3  C   LIG A   1      -6.414   5.780 133.236  0.00  0.00    +0.016 C 
ATOM      4  C   LIG A   1      -7.397   4.764 133.864  0.00  0.00    +0.032 C 
ATOM      5  C   LIG A   1      -8.829   5.057 133.526  0.00  0.00    -0.027 C 
ATOM      6  C   LIG A   1      -9.220   5.912 132.563  0.00  0.00    -0.069 C 
ATOM      7  C   LIG A   1      -8.228   6.641 131.665  0.00  0.00    +0.021 C 
ATOM      8  C   LIG A   1      -8.753   6.817 130.218  0.00  0.00    +0.009 C 
ATOM      9  C   LIG A   1     -10.224   7.227 130.133  0.00  0.00    +0.012 C 
ATOM     10  C   LIG A   1     -11.157   6.282 130.922  0.00  0.00    -0.011 C 
ATOM     11  C   LIG A   1     -11.108   4.849 130.342  0.00  0.00    +0.016 C 
ATOM     12  C   LIG A   1     -10.684   6.262 132.395  0.00  0.00    +0.041 C 
ATOM     13  C   LIG A   1      -4.900   5.512 133.589  0.00  0.00    +0.068 C 
ATOM     14  C   LIG A   1      -4.423   4.066 133.340  0.00  0.00    +0.023 C 
ATOM     15  C   LIG A   1      -3.998   6.509 132.819  0.00  0.00    +0.018 C 
ATOM     16  C   LIG A   1      -4.307   6.608 131.332  0.00  0.00    +0.002 C 
ATOM     17  C   LIG A   1      -5.761   6.998 131.094  0.00  0.00    +0.007 C 
ENDROOT
BRANCH  10  18
ATOM     18  C   LIG A   1     -12.589   6.789 130.752  0.00  0.00    -0.028 C 
ATOM     19  C   LIG A   1     -13.197   7.152 129.614  0.00  0.00    +0.004 C 
ENDBRANCH  10  18
BRANCH  13  20
ATOM     20  C   LIG A   1      -4.673   5.816 135.084  0.00  0.00    +0.311 C 
ATOM     21  O   LIG A   1      -5.033   6.800 135.702  0.00  0.00    -0.250 OA
BRANCH  20  22
ATOM     22  O   LIG A   1      -3.959   4.865 135.725  0.00  0.00    -0.480 OA
ATOM     23  H   LIG A   1      -4.634   4.205 135.988  0.00  0.00    +0.295 HD
ENDBRANCH  20  22
ENDBRANCH  13  20
TORSDOF 3
ENDMDL
MODEL 7
REMARK VINA RESULT:      -6.9      8.573     10.645
REMARK  Name = NuBBE_2354
REMARK  6 active torsions:
REMARK  status: ('A' for Active; 'I' for Inactive)
REMARK    1  A    between atoms: C_1  and  C_2
REMARK    2  A    between atoms: C_11  and  C_12
REMARK    3  A    between atoms: C_11  and  C_14
REMARK    4  A    between atoms: C_16  and  C_17
REMARK    5  A    between atoms: C_16  and  C_18
REMARK    6  A    between atoms: C_18  and  O_19
REMARK                            x       y       z     vdW  Elec       q    Type
REMARK                         _______ _______ _______ _____ _____    ______ ____
ROOT
ATOM      1  C   LIG A   1      -5.662   3.664 131.596  0.00  0.00    +0.012 C 
ATOM      2  C   LIG A   1      -6.090   4.640 132.723  0.00  0.00    -0.021 C 
ATOM      3  C   LIG A   1      -7.301   5.551 132.295  0.00  0.00    +0.016 C 
ATOM      4  C   LIG A   1      -6.935   6.352 131.024  0.00  0.00    +0.032 C 
ATOM      5  C   LIG A   1      -5.583   6.997 131.113  0.00  0.00    -0.027 C 
ATOM      6  C   LIG A   1      -4.660   6.695 132.044  0.00  0.00    -0.069 C 
ATOM      7  C   LIG A   1      -4.878   5.606 133.089  0.00  0.00    +0.021 C 
ATOM      8  C   LIG A   1      -3.577   4.835 133.427  0.00  0.00    +0.009 C 
ATOM      9  C   LIG A   1      -2.345   5.728 133.577  0.00  0.00    +0.012 C 
ATOM     10  C   LIG A   1      -2.114   6.643 132.355  0.00  0.00    -0.011 C 
ATOM     11  C   LIG A   1      -1.847   5.806 131.081  0.00  0.00    +0.016 C 
ATOM     12  C   LIG A   1      -3.385   7.503 132.153  0.00  0.00    +0.041 C 
ATOM     13  C   LIG A   1      -8.726   4.877 132.242  0.00  0.00    +0.068 C 
ATOM     14  C   LIG A   1      -9.001   4.043 130.974  0.00  0.00    +0.023 C 
ATOM     15  C   LIG A   1      -8.942   4.007 133.506  0.00  0.00    +0.018 C 
ATOM     16  C   LIG A   1      -7.790   3.061 133.815  0.00  0.00    +0.002 C 
ATOM     17  C   LIG A   1      -6.479   3.820 133.977  0.00  0.00    +0.007 C 
ENDROOT
BRANCH  10  18
ATOM     18  C   LIG A   1      -0.857   7.472 132.620  0.00  0.00    -0.028 C 
ATOM     19  C   LIG A   1      -0.028   7.383 133.670  0.00  0.00    +0.004 C 
ENDBRANCH  10  18
BRANCH  13  20
ATOM     20  C   LIG A   1      -9.804   5.978 132.307  0.00  0.00    +0.311 C 
ATOM     21  O   LIG A   1     -10.506   6.380 131.398  0.00  0.00    -0.250 OA
BRANCH  20  22
ATOM     22  O   LIG A   1      -9.917   6.551 133.525  0.00  0.00    -0.480 OA
ATOM     23  H   LIG A   1     -10.127   5.799 134.117  0.00  0.00    +0.295 HD
ENDBRANCH  20  22
ENDBRANCH  13  20
TORSDOF 3
ENDMDL
MODEL 8
REMARK VINA RESULT:      -6.8      7.694      9.946
REMARK  Name = NuBBE_2354
REMARK  6 active torsions:
REMARK  status: ('A' for Active; 'I' for Inactive)
REMARK    1  A    between atoms: C_1  and  C_2
REMARK    2  A    between atoms: C_11  and  C_12
REMARK    3  A    between atoms: C_11  and  C_14
REMARK    4  A    between atoms: C_16  and  C_17
REMARK    5  A    between atoms: C_16  and  C_18
REMARK    6  A    between atoms: C_18  and  O_19
REMARK                            x       y       z     vdW  Elec       q    Type
REMARK                         _______ _______ _______ _____ _____    ______ ____
ROOT
ATOM      1  C   LIG A   1      -9.460   4.601 132.590  0.00  0.00    +0.012 C 
ATOM      2  C   LIG A   1      -8.941   4.408 131.141  0.00  0.00    -0.021 C 
ATOM      3  C   LIG A   1      -7.466   4.928 130.961  0.00  0.00    +0.016 C 
ATOM      4  C   LIG A   1      -7.381   6.422 131.350  0.00  0.00    +0.032 C 
ATOM      5  C   LIG A   1      -8.481   7.243 130.743  0.00  0.00    -0.027 C 
ATOM      6  C   LIG A   1      -9.583   6.726 130.170  0.00  0.00    -0.069 C 
ATOM      7  C   LIG A   1      -9.857   5.227 130.127  0.00  0.00    +0.021 C 
ATOM      8  C   LIG A   1     -11.362   4.892 130.274  0.00  0.00    +0.009 C 
ATOM      9  C   LIG A   1     -12.286   5.806 129.468  0.00  0.00    +0.012 C 
ATOM     10  C   LIG A   1     -12.049   7.304 129.757  0.00  0.00    -0.011 C 
ATOM     11  C   LIG A   1     -12.351   7.636 131.237  0.00  0.00    +0.016 C 
ATOM     12  C   LIG A   1     -10.566   7.623 129.447  0.00  0.00    +0.041 C 
ATOM     13  C   LIG A   1      -6.311   4.040 131.566  0.00  0.00    +0.068 C 
ATOM     14  C   LIG A   1      -6.103   4.197 133.087  0.00  0.00    +0.023 C 
ATOM     15  C   LIG A   1      -6.555   2.551 131.216  0.00  0.00    +0.018 C 
ATOM     16  C   LIG A   1      -7.967   2.065 131.512  0.00  0.00    +0.002 C 
ATOM     17  C   LIG A   1      -9.006   2.905 130.779  0.00  0.00    +0.007 C 
ENDROOT
BRANCH  10  18
ATOM     18  C   LIG A   1     -13.031   8.107 128.905  0.00  0.00    -0.028 C 
ATOM     19  C   LIG A   1     -13.693   7.694 127.814  0.00  0.00    +0.004 C 
ENDBRANCH  10  18
BRANCH  13  20
ATOM     20  C   LIG A   1      -4.980   4.415 130.883  0.00  0.00    +0.311 C 
ATOM     21  O   LIG A   1      -4.036   5.003 131.375  0.00  0.00    -0.250 OA
BRANCH  20  22
ATOM     22  O   LIG A   1      -4.923   4.056 129.581  0.00  0.00    -0.480 OA
ATOM     23  H   LIG A   1      -4.810   4.907 129.110  0.00  0.00    +0.295 HD
ENDBRANCH  20  22
ENDBRANCH  13  20
TORSDOF 3
ENDMDL
MODEL 9
REMARK VINA RESULT:      -6.8      3.399      6.465
REMARK  Name = NuBBE_2354
REMARK  6 active torsions:
REMARK  status: ('A' for Active; 'I' for Inactive)
REMARK    1  A    between atoms: C_1  and  C_2
REMARK    2  A    between atoms: C_11  and  C_12
REMARK    3  A    between atoms: C_11  and  C_14
REMARK    4  A    between atoms: C_16  and  C_17
REMARK    5  A    between atoms: C_16  and  C_18
REMARK    6  A    between atoms: C_18  and  O_19
REMARK                            x       y       z     vdW  Elec       q    Type
REMARK                         _______ _______ _______ _____ _____    ______ ____
ROOT
ATOM      1  C   LIG A   1      -6.102   0.692 127.851  0.00  0.00    +0.012 C 
ATOM      2  C   LIG A   1      -7.607   0.532 128.188  0.00  0.00    -0.021 C 
ATOM      3  C   LIG A   1      -7.836  -0.104 129.609  0.00  0.00    +0.016 C 
ATOM      4  C   LIG A   1      -7.136  -1.481 129.691  0.00  0.00    +0.032 C 
ATOM      5  C   LIG A   1      -7.411  -2.345 128.495  0.00  0.00    -0.027 C 
ATOM      6  C   LIG A   1      -7.954  -1.898 127.348  0.00  0.00    -0.069 C 
ATOM      7  C   LIG A   1      -8.298  -0.430 127.123  0.00  0.00    +0.021 C 
ATOM      8  C   LIG A   1      -8.057   0.022 125.661  0.00  0.00    +0.009 C 
ATOM      9  C   LIG A   1      -8.524  -0.987 124.611  0.00  0.00    +0.012 C 
ATOM     10  C   LIG A   1      -7.937  -2.399 124.831  0.00  0.00    -0.011 C 
ATOM     11  C   LIG A   1      -6.395  -2.381 124.708  0.00  0.00    +0.016 C 
ATOM     12  C   LIG A   1      -8.338  -2.868 126.251  0.00  0.00    +0.041 C 
ATOM     13  C   LIG A   1      -7.584   0.821 130.861  0.00  0.00    +0.068 C 
ATOM     14  C   LIG A   1      -6.101   0.986 131.256  0.00  0.00    +0.023 C 
ATOM     15  C   LIG A   1      -8.228   2.210 130.626  0.00  0.00    +0.018 C 
ATOM     16  C   LIG A   1      -7.886   2.835 129.281  0.00  0.00    +0.002 C 
ATOM     17  C   LIG A   1      -8.286   1.921 128.129  0.00  0.00    +0.007 C 
ENDROOT
BRANCH  10  18
ATOM     18  C   LIG A   1      -8.468  -3.306 123.721  0.00  0.00    -0.028 C 
ATOM     19  C   LIG A   1      -9.735  -3.425 123.301  0.00  0.00    +0.004 C 
ENDBRANCH  10  18
BRANCH  13  20
ATOM     20  C   LIG A   1      -8.317   0.225 132.081  0.00  0.00    +0.311 C 
ATOM     21  O   LIG A   1      -7.819  -0.284 133.067  0.00  0.00    -0.250 OA
BRANCH  20  22
ATOM     22  O   LIG A   1      -9.663   0.268 131.975  0.00  0.00    -0.480 OA
ATOM     23  H   LIG A   1      -9.957  -0.558 132.411  0.00  0.00    +0.295 HD
ENDBRANCH  20  22
ENDBRANCH  13  20
TORSDOF 3
ENDMDL
