MODEL 1
REMARK VINA RESULT:      -7.7      0.000      0.000
REMARK  Name = NuBBE_2452
REMARK  3 active torsions:
REMARK  status: ('A' for Active; 'I' for Inactive)
REMARK    1  A    between atoms: C_6  and  C_8
REMARK    2  A    between atoms: C_11  and  O_14
REMARK    3  A    between atoms: C_16  and  O_19
REMARK                            x       y       z     vdW  Elec       q    Type
REMARK                         _______ _______ _______ _____ _____    ______ ____
ROOT
ATOM      1  O   LIG A   1     -13.081   6.848 131.506  0.00  0.00    -0.292 OA
ATOM      2  C   LIG A   1     -12.015   6.749 130.909  0.00  0.00    +0.171 C 
ATOM      3  C   LIG A   1     -11.936   6.973 129.450  0.00  0.00    +0.059 A 
ATOM      4  C   LIG A   1     -10.695   6.858 128.818  0.00  0.00    +0.135 A 
ATOM      5  O   LIG A   1      -9.530   6.585 129.487  0.00  0.00    -0.483 OA
ATOM      6  C   LIG A   1      -9.578   6.986 130.867  0.00  0.00    +0.211 C 
ATOM      7  C   LIG A   1     -10.744   6.323 131.588  0.00  0.00    +0.129 C 
ATOM      8  C   LIG A   1     -10.602   6.996 127.434  0.00  0.00    +0.091 A 
ATOM      9  C   LIG A   1     -11.750   7.284 126.701  0.00  0.00    +0.120 A 
ATOM     10  C   LIG A   1     -12.986   7.421 127.326  0.00  0.00    +0.046 A 
ATOM     11  C   LIG A   1     -13.085   7.261 128.709  0.00  0.00    +0.018 A 
ENDROOT
BRANCH   6  12
ATOM     12  C   LIG A   1      -8.252   6.620 131.506  0.00  0.00    -0.007 A 
ATOM     13  C   LIG A   1      -7.044   6.996 130.894  0.00  0.00    +0.011 A 
ATOM     14  C   LIG A   1      -5.817   6.670 131.477  0.00  0.00    +0.046 A 
ATOM     15  C   LIG A   1      -5.793   5.967 132.676  0.00  0.00    +0.117 A 
ATOM     16  C   LIG A   1      -6.974   5.586 133.300  0.00  0.00    +0.046 A 
ATOM     17  C   LIG A   1      -8.200   5.910 132.717  0.00  0.00    +0.011 A 
BRANCH  15  18
ATOM     18  O   LIG A   1      -4.619   5.628 133.279  0.00  0.00    -0.507 OA
ATOM     19  H   LIG A   1      -4.804   5.370 134.197  0.00  0.00    +0.292 HD
ENDBRANCH  15  18
ENDBRANCH   6  12
BRANCH   9  20
ATOM     20  O   LIG A   1     -11.706   7.441 125.346  0.00  0.00    -0.507 OA
ATOM     21  H   LIG A   1     -10.781   7.390 125.053  0.00  0.00    +0.292 HD
ENDBRANCH   9  20
TORSDOF 3
ENDMDL
MODEL 2
REMARK VINA RESULT:      -7.3      7.728     10.453
REMARK  Name = NuBBE_2452
REMARK  3 active torsions:
REMARK  status: ('A' for Active; 'I' for Inactive)
REMARK    1  A    between atoms: C_6  and  C_8
REMARK    2  A    between atoms: C_11  and  O_14
REMARK    3  A    between atoms: C_16  and  O_19
REMARK                            x       y       z     vdW  Elec       q    Type
REMARK                         _______ _______ _______ _____ _____    ______ ____
ROOT
ATOM      1  O   LIG A   1      -9.921   1.618 123.803  0.00  0.00    -0.292 OA
ATOM      2  C   LIG A   1      -8.841   2.178 123.648  0.00  0.00    +0.171 C 
ATOM      3  C   LIG A   1      -7.775   2.068 124.666  0.00  0.00    +0.059 A 
ATOM      4  C   LIG A   1      -6.558   2.716 124.438  0.00  0.00    +0.135 A 
ATOM      5  O   LIG A   1      -6.280   3.420 123.295  0.00  0.00    -0.483 OA
ATOM      6  C   LIG A   1      -7.059   2.977 122.171  0.00  0.00    +0.211 C 
ATOM      7  C   LIG A   1      -8.550   3.064 122.470  0.00  0.00    +0.129 C 
ATOM      8  C   LIG A   1      -5.559   2.687 125.411  0.00  0.00    +0.091 A 
ATOM      9  C   LIG A   1      -5.779   1.979 126.590  0.00  0.00    +0.120 A 
ATOM     10  C   LIG A   1      -6.981   1.314 126.815  0.00  0.00    +0.046 A 
ATOM     11  C   LIG A   1      -7.990   1.360 125.851  0.00  0.00    +0.018 A 
ENDROOT
BRANCH   6  12
ATOM     12  C   LIG A   1      -6.684   3.835 120.976  0.00  0.00    -0.007 A 
ATOM     13  C   LIG A   1      -5.451   4.508 120.948  0.00  0.00    +0.011 A 
ATOM     14  C   LIG A   1      -5.092   5.295 119.851  0.00  0.00    +0.046 A 
ATOM     15  C   LIG A   1      -5.966   5.410 118.776  0.00  0.00    +0.117 A 
ATOM     16  C   LIG A   1      -7.189   4.753 118.781  0.00  0.00    +0.046 A 
ATOM     17  C   LIG A   1      -7.549   3.969 119.878  0.00  0.00    +0.011 A 
BRANCH  15  18
ATOM     18  O   LIG A   1      -5.656   6.168 117.686  0.00  0.00    -0.507 OA
ATOM     19  H   LIG A   1      -5.459   5.576 116.942  0.00  0.00    +0.292 HD
ENDBRANCH  15  18
ENDBRANCH   6  12
BRANCH   9  20
ATOM     20  O   LIG A   1      -4.827   1.911 127.564  0.00  0.00    -0.507 OA
ATOM     21  H   LIG A   1      -4.036   1.476 127.204  0.00  0.00    +0.292 HD
ENDBRANCH   9  20
TORSDOF 3
ENDMDL
MODEL 3
REMARK VINA RESULT:      -7.2      8.224     10.493
REMARK  Name = NuBBE_2452
REMARK  3 active torsions:
REMARK  status: ('A' for Active; 'I' for Inactive)
REMARK    1  A    between atoms: C_6  and  C_8
REMARK    2  A    between atoms: C_11  and  O_14
REMARK    3  A    between atoms: C_16  and  O_19
REMARK                            x       y       z     vdW  Elec       q    Type
REMARK                         _______ _______ _______ _____ _____    ______ ____
ROOT
ATOM      1  O   LIG A   1      -8.636   2.961 126.135  0.00  0.00    -0.292 OA
ATOM      2  C   LIG A   1      -8.101   2.502 125.132  0.00  0.00    +0.171 C 
ATOM      3  C   LIG A   1      -7.954   1.044 124.948  0.00  0.00    +0.059 A 
ATOM      4  C   LIG A   1      -7.347   0.571 123.781  0.00  0.00    +0.135 A 
ATOM      5  O   LIG A   1      -6.913   1.389 122.771  0.00  0.00    -0.483 OA
ATOM      6  C   LIG A   1      -7.616   2.643 122.736  0.00  0.00    +0.211 C 
ATOM      7  C   LIG A   1      -7.497   3.374 124.067  0.00  0.00    +0.129 C 
ATOM      8  C   LIG A   1      -7.133  -0.797 123.612  0.00  0.00    +0.091 A 
ATOM      9  C   LIG A   1      -7.561  -1.680 124.599  0.00  0.00    +0.120 A 
ATOM     10  C   LIG A   1      -8.186  -1.217 125.755  0.00  0.00    +0.046 A 
ATOM     11  C   LIG A   1      -8.381   0.153 125.936  0.00  0.00    +0.018 A 
ENDROOT
BRANCH   6  12
ATOM     12  C   LIG A   1      -7.042   3.468 121.599  0.00  0.00    -0.007 A 
ATOM     13  C   LIG A   1      -5.707   3.905 121.647  0.00  0.00    +0.011 A 
ATOM     14  C   LIG A   1      -5.165   4.660 120.603  0.00  0.00    +0.046 A 
ATOM     15  C   LIG A   1      -5.957   4.979 119.506  0.00  0.00    +0.117 A 
ATOM     16  C   LIG A   1      -7.279   4.558 119.437  0.00  0.00    +0.046 A 
ATOM     17  C   LIG A   1      -7.821   3.807 120.481  0.00  0.00    +0.011 A 
BRANCH  15  18
ATOM     18  O   LIG A   1      -5.470   5.714 118.467  0.00  0.00    -0.507 OA
ATOM     19  H   LIG A   1      -4.660   5.289 118.139  0.00  0.00    +0.292 HD
ENDBRANCH  15  18
ENDBRANCH   6  12
BRANCH   9  20
ATOM     20  O   LIG A   1      -7.386  -3.026 124.472  0.00  0.00    -0.507 OA
ATOM     21  H   LIG A   1      -7.558  -3.449 125.330  0.00  0.00    +0.292 HD
ENDBRANCH   9  20
TORSDOF 3
ENDMDL
MODEL 4
REMARK VINA RESULT:      -7.2      1.808      6.588
REMARK  Name = NuBBE_2452
REMARK  3 active torsions:
REMARK  status: ('A' for Active; 'I' for Inactive)
REMARK    1  A    between atoms: C_6  and  C_8
REMARK    2  A    between atoms: C_11  and  O_14
REMARK    3  A    between atoms: C_16  and  O_19
REMARK                            x       y       z     vdW  Elec       q    Type
REMARK                         _______ _______ _______ _____ _____    ______ ____
ROOT
ATOM      1  O   LIG A   1      -8.605   4.859 133.859  0.00  0.00    -0.292 OA
ATOM      2  C   LIG A   1      -8.511   5.600 132.888  0.00  0.00    +0.171 C 
ATOM      3  C   LIG A   1      -7.190   5.980 132.346  0.00  0.00    +0.059 A 
ATOM      4  C   LIG A   1      -7.136   6.820 131.230  0.00  0.00    +0.135 A 
ATOM      5  O   LIG A   1      -8.250   7.282 130.580  0.00  0.00    -0.483 OA
ATOM      6  C   LIG A   1      -9.389   6.422 130.754  0.00  0.00    +0.211 C 
ATOM      7  C   LIG A   1      -9.707   6.230 132.231  0.00  0.00    +0.129 C 
ATOM      8  C   LIG A   1      -5.904   7.251 130.740  0.00  0.00    +0.091 A 
ATOM      9  C   LIG A   1      -4.735   6.807 131.353  0.00  0.00    +0.120 A 
ATOM     10  C   LIG A   1      -4.780   5.953 132.452  0.00  0.00    +0.046 A 
ATOM     11  C   LIG A   1      -6.014   5.539 132.957  0.00  0.00    +0.018 A 
ENDROOT
BRANCH   6  12
ATOM     12  C   LIG A   1     -10.559   7.040 130.012  0.00  0.00    -0.007 A 
ATOM     13  C   LIG A   1     -11.874   6.643 130.309  0.00  0.00    +0.011 A 
ATOM     14  C   LIG A   1     -12.960   7.209 129.638  0.00  0.00    +0.046 A 
ATOM     15  C   LIG A   1     -12.735   8.178 128.666  0.00  0.00    +0.117 A 
ATOM     16  C   LIG A   1     -11.444   8.587 128.356  0.00  0.00    +0.046 A 
ATOM     17  C   LIG A   1     -10.359   8.019 129.025  0.00  0.00    +0.011 A 
BRANCH  15  18
ATOM     18  O   LIG A   1     -13.765   8.756 127.986  0.00  0.00    -0.507 OA
ATOM     19  H   LIG A   1     -13.454   9.594 127.605  0.00  0.00    +0.292 HD
ENDBRANCH  15  18
ENDBRANCH   6  12
BRANCH   9  20
ATOM     20  O   LIG A   1      -3.507   7.190 130.901  0.00  0.00    -0.507 OA
ATOM     21  H   LIG A   1      -2.930   7.364 131.663  0.00  0.00    +0.292 HD
ENDBRANCH   9  20
TORSDOF 3
ENDMDL
MODEL 5
REMARK VINA RESULT:      -7.1      2.463      6.753
REMARK  Name = NuBBE_2452
REMARK  3 active torsions:
REMARK  status: ('A' for Active; 'I' for Inactive)
REMARK    1  A    between atoms: C_6  and  C_8
REMARK    2  A    between atoms: C_11  and  O_14
REMARK    3  A    between atoms: C_16  and  O_19
REMARK                            x       y       z     vdW  Elec       q    Type
REMARK                         _______ _______ _______ _____ _____    ______ ____
ROOT
ATOM      1  O   LIG A   1      -9.624   2.462 130.865  0.00  0.00    -0.292 OA
ATOM      2  C   LIG A   1      -9.730   3.611 131.280  0.00  0.00    +0.171 C 
ATOM      3  C   LIG A   1      -8.996   4.056 132.482  0.00  0.00    +0.059 A 
ATOM      4  C   LIG A   1      -9.142   5.379 132.908  0.00  0.00    +0.135 A 
ATOM      5  O   LIG A   1      -9.903   6.306 132.244  0.00  0.00    -0.483 OA
ATOM      6  C   LIG A   1     -10.052   6.000 130.847  0.00  0.00    +0.211 C 
ATOM      7  C   LIG A   1     -10.656   4.615 130.653  0.00  0.00    +0.129 C 
ATOM      8  C   LIG A   1      -8.516   5.809 134.078  0.00  0.00    +0.091 A 
ATOM      9  C   LIG A   1      -7.721   4.915 134.791  0.00  0.00    +0.120 A 
ATOM     10  C   LIG A   1      -7.554   3.601 134.361  0.00  0.00    +0.046 A 
ATOM     11  C   LIG A   1      -8.197   3.164 133.202  0.00  0.00    +0.018 A 
ENDROOT
BRANCH   6  12
ATOM     12  C   LIG A   1     -10.923   7.075 130.224  0.00  0.00    -0.007 A 
ATOM     13  C   LIG A   1     -10.576   7.635 128.983  0.00  0.00    +0.011 A 
ATOM     14  C   LIG A   1     -11.373   8.620 128.396  0.00  0.00    +0.046 A 
ATOM     15  C   LIG A   1     -12.524   9.048 129.049  0.00  0.00    +0.117 A 
ATOM     16  C   LIG A   1     -12.888   8.509 130.276  0.00  0.00    +0.046 A 
ATOM     17  C   LIG A   1     -12.090   7.526 130.863  0.00  0.00    +0.011 A 
BRANCH  15  18
ATOM     18  O   LIG A   1     -13.330  10.008 128.513  0.00  0.00    -0.507 OA
ATOM     19  H   LIG A   1     -12.780  10.765 128.252  0.00  0.00    +0.292 HD
ENDBRANCH  15  18
ENDBRANCH   6  12
BRANCH   9  20
ATOM     20  O   LIG A   1      -7.079   5.293 135.934  0.00  0.00    -0.507 OA
ATOM     21  H   LIG A   1      -6.496   4.570 136.221  0.00  0.00    +0.292 HD
ENDBRANCH   9  20
TORSDOF 3
ENDMDL
MODEL 6
REMARK VINA RESULT:      -7.1      8.673     10.183
REMARK  Name = NuBBE_2452
REMARK  3 active torsions:
REMARK  status: ('A' for Active; 'I' for Inactive)
REMARK    1  A    between atoms: C_6  and  C_8
REMARK    2  A    between atoms: C_11  and  O_14
REMARK    3  A    between atoms: C_16  and  O_19
REMARK                            x       y       z     vdW  Elec       q    Type
REMARK                         _______ _______ _______ _____ _____    ______ ____
ROOT
ATOM      1  O   LIG A   1      -9.658  -2.886 124.174  0.00  0.00    -0.292 OA
ATOM      2  C   LIG A   1      -9.031  -2.081 124.854  0.00  0.00    +0.171 C 
ATOM      3  C   LIG A   1      -8.661  -2.390 126.251  0.00  0.00    +0.059 A 
ATOM      4  C   LIG A   1      -7.937  -1.443 126.980  0.00  0.00    +0.135 A 
ATOM      5  O   LIG A   1      -7.512  -0.250 126.455  0.00  0.00    -0.483 OA
ATOM      6  C   LIG A   1      -7.362  -0.298 125.026  0.00  0.00    +0.211 C 
ATOM      7  C   LIG A   1      -8.663  -0.713 124.353  0.00  0.00    +0.129 C 
ATOM      8  C   LIG A   1      -7.634  -1.677 128.321  0.00  0.00    +0.091 A 
ATOM      9  C   LIG A   1      -8.031  -2.876 128.908  0.00  0.00    +0.120 A 
ATOM     10  C   LIG A   1      -8.735  -3.833 128.181  0.00  0.00    +0.046 A 
ATOM     11  C   LIG A   1      -9.058  -3.590 126.845  0.00  0.00    +0.018 A 
ENDROOT
BRANCH   6  12
ATOM     12  C   LIG A   1      -6.910   1.073 124.558  0.00  0.00    -0.007 A 
ATOM     13  C   LIG A   1      -7.209   1.509 123.256  0.00  0.00    +0.011 A 
ATOM     14  C   LIG A   1      -6.804   2.772 122.816  0.00  0.00    +0.046 A 
ATOM     15  C   LIG A   1      -6.099   3.604 123.678  0.00  0.00    +0.117 A 
ATOM     16  C   LIG A   1      -5.792   3.195 124.969  0.00  0.00    +0.046 A 
ATOM     17  C   LIG A   1      -6.195   1.932 125.408  0.00  0.00    +0.011 A 
BRANCH  15  18
ATOM     18  O   LIG A   1      -5.683   4.843 123.290  0.00  0.00    -0.507 OA
ATOM     19  H   LIG A   1      -5.737   4.899 122.322  0.00  0.00    +0.292 HD
ENDBRANCH  15  18
ENDBRANCH   6  12
BRANCH   9  20
ATOM     20  O   LIG A   1      -7.746  -3.156 130.212  0.00  0.00    -0.507 OA
ATOM     21  H   LIG A   1      -6.871  -2.793 130.428  0.00  0.00    +0.292 HD
ENDBRANCH   9  20
TORSDOF 3
ENDMDL
MODEL 7
REMARK VINA RESULT:      -7.0      1.797      2.239
REMARK  Name = NuBBE_2452
REMARK  3 active torsions:
REMARK  status: ('A' for Active; 'I' for Inactive)
REMARK    1  A    between atoms: C_6  and  C_8
REMARK    2  A    between atoms: C_11  and  O_14
REMARK    3  A    between atoms: C_16  and  O_19
REMARK                            x       y       z     vdW  Elec       q    Type
REMARK                         _______ _______ _______ _____ _____    ______ ____
ROOT
ATOM      1  O   LIG A   1     -11.267   3.802 130.276  0.00  0.00    -0.292 OA
ATOM      2  C   LIG A   1     -10.619   4.841 130.221  0.00  0.00    +0.171 C 
ATOM      3  C   LIG A   1     -11.239   6.101 129.760  0.00  0.00    +0.059 A 
ATOM      4  C   LIG A   1     -10.460   7.261 129.726  0.00  0.00    +0.135 A 
ATOM      5  O   LIG A   1      -9.154   7.305 130.139  0.00  0.00    -0.483 OA
ATOM      6  C   LIG A   1      -8.843   6.280 131.099  0.00  0.00    +0.211 C 
ATOM      7  C   LIG A   1      -9.152   4.897 130.541  0.00  0.00    +0.129 C 
ATOM      8  C   LIG A   1     -10.998   8.448 129.231  0.00  0.00    +0.091 A 
ATOM      9  C   LIG A   1     -12.324   8.468 128.806  0.00  0.00    +0.120 A 
ATOM     10  C   LIG A   1     -13.112   7.321 128.857  0.00  0.00    +0.046 A 
ATOM     11  C   LIG A   1     -12.568   6.127 129.332  0.00  0.00    +0.018 A 
ENDROOT
BRANCH   6  12
ATOM     12  C   LIG A   1      -7.376   6.414 131.465  0.00  0.00    -0.007 A 
ATOM     13  C   LIG A   1      -6.887   5.831 132.646  0.00  0.00    +0.011 A 
ATOM     14  C   LIG A   1      -5.537   5.941 132.991  0.00  0.00    +0.046 A 
ATOM     15  C   LIG A   1      -4.671   6.634 132.153  0.00  0.00    +0.117 A 
ATOM     16  C   LIG A   1      -5.132   7.218 130.979  0.00  0.00    +0.046 A 
ATOM     17  C   LIG A   1      -6.481   7.110 130.637  0.00  0.00    +0.011 A 
BRANCH  15  18
ATOM     18  O   LIG A   1      -3.347   6.767 132.450  0.00  0.00    -0.507 OA
ATOM     19  H   LIG A   1      -2.867   6.989 131.636  0.00  0.00    +0.292 HD
ENDBRANCH  15  18
ENDBRANCH   6  12
BRANCH   9  20
ATOM     20  O   LIG A   1     -12.898   9.609 128.326  0.00  0.00    -0.507 OA
ATOM     21  H   LIG A   1     -12.393  10.375 128.646  0.00  0.00    +0.292 HD
ENDBRANCH   9  20
TORSDOF 3
ENDMDL
MODEL 8
REMARK VINA RESULT:      -6.8      2.968      6.458
REMARK  Name = NuBBE_2452
REMARK  3 active torsions:
REMARK  status: ('A' for Active; 'I' for Inactive)
REMARK    1  A    between atoms: C_6  and  C_8
REMARK    2  A    between atoms: C_11  and  O_14
REMARK    3  A    between atoms: C_16  and  O_19
REMARK                            x       y       z     vdW  Elec       q    Type
REMARK                         _______ _______ _______ _____ _____    ______ ____
ROOT
ATOM      1  O   LIG A   1      -6.287   5.531 131.808  0.00  0.00    -0.292 OA
ATOM      2  C   LIG A   1      -7.431   5.292 131.438  0.00  0.00    +0.171 C 
ATOM      3  C   LIG A   1      -8.028   3.954 131.629  0.00  0.00    +0.059 A 
ATOM      4  C   LIG A   1      -9.340   3.735 131.199  0.00  0.00    +0.135 A 
ATOM      5  O   LIG A   1     -10.125   4.711 130.643  0.00  0.00    -0.483 OA
ATOM      6  C   LIG A   1      -9.733   6.033 131.050  0.00  0.00    +0.211 C 
ATOM      7  C   LIG A   1      -8.273   6.300 130.708  0.00  0.00    +0.129 C 
ATOM      8  C   LIG A   1      -9.905   2.464 131.303  0.00  0.00    +0.091 A 
ATOM      9  C   LIG A   1      -9.160   1.433 131.868  0.00  0.00    +0.120 A 
ATOM     10  C   LIG A   1      -7.860   1.649 132.318  0.00  0.00    +0.046 A 
ATOM     11  C   LIG A   1      -7.286   2.915 132.195  0.00  0.00    +0.018 A 
ENDROOT
BRANCH   6  12
ATOM     12  C   LIG A   1     -10.652   7.025 130.362  0.00  0.00    -0.007 A 
ATOM     13  C   LIG A   1     -10.235   7.681 129.191  0.00  0.00    +0.011 A 
ATOM     14  C   LIG A   1     -11.075   8.592 128.545  0.00  0.00    +0.046 A 
ATOM     15  C   LIG A   1     -12.338   8.848 129.068  0.00  0.00    +0.117 A 
ATOM     16  C   LIG A   1     -12.772   8.211 130.223  0.00  0.00    +0.046 A 
ATOM     17  C   LIG A   1     -11.932   7.304 130.870  0.00  0.00    +0.011 A 
BRANCH  15  18
ATOM     18  O   LIG A   1     -13.189   9.730 128.471  0.00  0.00    -0.507 OA
ATOM     19  H   LIG A   1     -12.678  10.498 128.169  0.00  0.00    +0.292 HD
ENDBRANCH  15  18
ENDBRANCH   6  12
BRANCH   9  20
ATOM     20  O   LIG A   1      -9.675   0.177 132.003  0.00  0.00    -0.507 OA
ATOM     21  H   LIG A   1      -9.691  -0.253 131.131  0.00  0.00    +0.292 HD
ENDBRANCH   9  20
TORSDOF 3
ENDMDL
MODEL 9
REMARK VINA RESULT:      -6.7      8.861      9.503
REMARK  Name = NuBBE_2452
REMARK  3 active torsions:
REMARK  status: ('A' for Active; 'I' for Inactive)
REMARK    1  A    between atoms: C_6  and  C_8
REMARK    2  A    between atoms: C_11  and  O_14
REMARK    3  A    between atoms: C_16  and  O_19
REMARK                            x       y       z     vdW  Elec       q    Type
REMARK                         _______ _______ _______ _____ _____    ______ ____
ROOT
ATOM      1  O   LIG A   1      -9.762  -2.711 123.293  0.00  0.00    -0.292 OA
ATOM      2  C   LIG A   1      -9.082  -2.053 124.072  0.00  0.00    +0.171 C 
ATOM      3  C   LIG A   1      -8.980  -0.585 123.940  0.00  0.00    +0.059 A 
ATOM      4  C   LIG A   1      -8.200   0.121 124.860  0.00  0.00    +0.135 A 
ATOM      5  O   LIG A   1      -7.552  -0.472 125.911  0.00  0.00    -0.483 OA
ATOM      6  C   LIG A   1      -8.172  -1.704 126.319  0.00  0.00    +0.211 C 
ATOM      7  C   LIG A   1      -8.254  -2.684 125.156  0.00  0.00    +0.129 C 
ATOM      8  C   LIG A   1      -8.029   1.498 124.718  0.00  0.00    +0.091 A 
ATOM      9  C   LIG A   1      -8.671   2.159 123.674  0.00  0.00    +0.120 A 
ATOM     10  C   LIG A   1      -9.467   1.465 122.766  0.00  0.00    +0.046 A 
ATOM     11  C   LIG A   1      -9.621   0.084 122.894  0.00  0.00    +0.018 A 
ENDROOT
BRANCH   6  12
ATOM     12  C   LIG A   1      -7.363  -2.276 127.468  0.00  0.00    -0.007 A 
ATOM     13  C   LIG A   1      -5.974  -2.070 127.527  0.00  0.00    +0.011 A 
ATOM     14  C   LIG A   1      -5.220  -2.586 128.583  0.00  0.00    +0.046 A 
ATOM     15  C   LIG A   1      -5.853  -3.310 129.587  0.00  0.00    +0.117 A 
ATOM     16  C   LIG A   1      -7.225  -3.526 129.551  0.00  0.00    +0.046 A 
ATOM     17  C   LIG A   1      -7.978  -3.012 128.494  0.00  0.00    +0.011 A 
BRANCH  15  18
ATOM     18  O   LIG A   1      -5.156  -3.832 130.636  0.00  0.00    -0.507 OA
ATOM     19  H   LIG A   1      -5.668  -4.566 131.014  0.00  0.00    +0.292 HD
ENDBRANCH  15  18
ENDBRANCH   6  12
BRANCH   9  20
ATOM     20  O   LIG A   1      -8.545   3.506 123.503  0.00  0.00    -0.507 OA
ATOM     21  H   LIG A   1      -8.413   3.924 124.371  0.00  0.00    +0.292 HD
ENDBRANCH   9  20
TORSDOF 3
ENDMDL
