MODEL 1
REMARK VINA RESULT:      -7.4      0.000      0.000
REMARK  Name = NuBBE_1421
REMARK  10 active torsions:
REMARK  status: ('A' for Active; 'I' for Inactive)
REMARK    1  A    between atoms: O_1  and  C_2
REMARK    2  A    between atoms: O_1  and  C_3
REMARK    3  A    between atoms: C_5  and  C_11
REMARK    4  A    between atoms: C_8  and  O_9
REMARK    5  A    between atoms: O_9  and  C_10
REMARK    6  A    between atoms: C_19  and  C_23
REMARK    7  A    between atoms: C_25  and  O_26
REMARK    8  A    between atoms: O_26  and  C_27
REMARK    9  A    between atoms: C_28  and  O_31
REMARK   10  A    between atoms: O_31  and  C_32
REMARK                            x       y       z     vdW  Elec       q    Type
REMARK                         _______ _______ _______ _____ _____    ______ ____
ROOT
ATOM      1  C   LIG A   1      -8.597   4.122 129.264  0.00  0.00    +0.154 C 
ATOM      2  C   LIG A   1      -7.796   4.244 130.561  0.00  0.00    +0.056 C 
ATOM      3  C   LIG A   1      -8.865   4.344 131.615  0.00  0.00    +0.056 C 
ATOM      4  C   LIG A   1      -9.982   3.513 131.046  0.00  0.00    +0.167 C 
ATOM      5  O   LIG A   1      -9.917   3.660 129.626  0.00  0.00    -0.371 OA
ATOM      6  C   LIG A   1      -9.059   5.853 131.795  0.00  0.00    +0.154 C 
ATOM      7  O   LIG A   1      -7.777   6.440 131.486  0.00  0.00    -0.371 OA
ATOM      8  C   LIG A   1      -7.006   5.524 130.697  0.00  0.00    +0.167 C 
ENDROOT
BRANCH   1  11
ATOM      9  C   LIG A   1      -6.316   2.765 126.515  0.00  0.00    +0.162 A 
ATOM     10  C   LIG A   1      -6.952   3.625 127.418  0.00  0.00    +0.055 A 
ATOM     11  C   LIG A   1      -7.961   3.171 128.280  0.00  0.00    -0.015 A 
ATOM     12  C   LIG A   1      -8.360   1.845 128.208  0.00  0.00    +0.010 A 
ATOM     13  C   LIG A   1      -7.747   0.973 127.306  0.00  0.00    +0.050 A 
ATOM     14  C   LIG A   1      -6.720   1.424 126.455  0.00  0.00    +0.162 A 
BRANCH   9  15
ATOM     15  O   LIG A   1      -5.302   3.192 125.684  0.00  0.00    -0.491 OA
ATOM     16  C   LIG A   1      -5.683   4.043 124.605  0.00  0.00    +0.277 C 
ENDBRANCH   9  15
BRANCH  14  17
ATOM     17  O   LIG A   1      -6.084   0.599 125.553  0.00  0.00    -0.491 OA
ATOM     18  C   LIG A   1      -5.387  -0.517 126.096  0.00  0.00    +0.277 C 
ENDBRANCH  14  17
ENDBRANCH   1  11
BRANCH   6  19
ATOM     19  C   LIG A   1     -10.153   6.590 131.044  0.00  0.00    -0.015 A 
ATOM     20  C   LIG A   1      -9.912   7.309 129.860  0.00  0.00    +0.055 A 
ATOM     21  C   LIG A   1     -10.925   8.022 129.196  0.00  0.00    +0.162 A 
ATOM     22  C   LIG A   1     -12.215   8.054 129.740  0.00  0.00    +0.162 A 
ATOM     23  C   LIG A   1     -12.465   7.340 130.922  0.00  0.00    +0.050 A 
ATOM     24  C   LIG A   1     -11.452   6.611 131.556  0.00  0.00    +0.010 A 
BRANCH  21  25
ATOM     25  O   LIG A   1     -10.497   8.583 128.019  0.00  0.00    -0.491 OA
ATOM     26  C   LIG A   1     -10.835   7.913 126.813  0.00  0.00    +0.277 C 
ENDBRANCH  21  25
BRANCH  22  27
ATOM     27  O   LIG A   1     -13.206   8.715 129.066  0.00  0.00    -0.491 OA
ATOM     28  C   LIG A   1     -13.318  10.113 129.302  0.00  0.00    +0.277 C 
ENDBRANCH  22  27
ENDBRANCH   6  19
TORSDOF 6
ENDMDL
MODEL 2
REMARK VINA RESULT:      -7.4      5.220      8.391
REMARK  Name = NuBBE_1421
REMARK  10 active torsions:
REMARK  status: ('A' for Active; 'I' for Inactive)
REMARK    1  A    between atoms: O_1  and  C_2
REMARK    2  A    between atoms: O_1  and  C_3
REMARK    3  A    between atoms: C_5  and  C_11
REMARK    4  A    between atoms: C_8  and  O_9
REMARK    5  A    between atoms: O_9  and  C_10
REMARK    6  A    between atoms: C_19  and  C_23
REMARK    7  A    between atoms: C_25  and  O_26
REMARK    8  A    between atoms: O_26  and  C_27
REMARK    9  A    between atoms: C_28  and  O_31
REMARK   10  A    between atoms: O_31  and  C_32
REMARK                            x       y       z     vdW  Elec       q    Type
REMARK                         _______ _______ _______ _____ _____    ______ ____
ROOT
ATOM      1  C   LIG A   1      -7.274  -1.813 126.427  0.00  0.00    +0.154 C 
ATOM      2  C   LIG A   1      -7.669  -2.840 125.366  0.00  0.00    +0.056 C 
ATOM      3  C   LIG A   1      -7.037  -2.298 124.113  0.00  0.00    +0.056 C 
ATOM      4  C   LIG A   1      -5.798  -1.616 124.625  0.00  0.00    +0.167 C 
ATOM      5  O   LIG A   1      -6.119  -1.108 125.921  0.00  0.00    -0.371 OA
ATOM      6  C   LIG A   1      -8.153  -1.464 123.474  0.00  0.00    +0.154 C 
ATOM      7  O   LIG A   1      -9.382  -2.096 123.886  0.00  0.00    -0.371 OA
ATOM      8  C   LIG A   1      -9.146  -2.891 125.055  0.00  0.00    +0.167 C 
ENDROOT
BRANCH   1  11
ATOM      9  C   LIG A   1      -5.304  -3.028 129.467  0.00  0.00    +0.162 A 
ATOM     10  C   LIG A   1      -5.633  -2.475 128.224  0.00  0.00    +0.055 A 
ATOM     11  C   LIG A   1      -6.956  -2.450 127.757  0.00  0.00    -0.015 A 
ATOM     12  C   LIG A   1      -7.953  -3.020 128.534  0.00  0.00    +0.010 A 
ATOM     13  C   LIG A   1      -7.644  -3.587 129.772  0.00  0.00    +0.050 A 
ATOM     14  C   LIG A   1      -6.320  -3.594 130.249  0.00  0.00    +0.162 A 
BRANCH   9  15
ATOM     15  O   LIG A   1      -4.013  -3.032 129.950  0.00  0.00    -0.491 OA
ATOM     16  C   LIG A   1      -3.041  -3.710 129.157  0.00  0.00    +0.277 C 
ENDBRANCH   9  15
BRANCH  14  17
ATOM     17  O   LIG A   1      -5.970  -4.139 131.466  0.00  0.00    -0.491 OA
ATOM     18  C   LIG A   1      -6.415  -3.442 132.624  0.00  0.00    +0.277 C 
ENDBRANCH  14  17
ENDBRANCH   1  11
BRANCH   6  19
ATOM     19  C   LIG A   1      -8.239   0.032 123.717  0.00  0.00    -0.015 A 
ATOM     20  C   LIG A   1      -7.248   0.931 123.287  0.00  0.00    +0.055 A 
ATOM     21  C   LIG A   1      -7.318   2.309 123.555  0.00  0.00    +0.162 A 
ATOM     22  C   LIG A   1      -8.388   2.812 124.304  0.00  0.00    +0.162 A 
ATOM     23  C   LIG A   1      -9.383   1.921 124.740  0.00  0.00    +0.050 A 
ATOM     24  C   LIG A   1      -9.313   0.556 124.440  0.00  0.00    +0.010 A 
BRANCH  21  25
ATOM     25  O   LIG A   1      -6.295   3.016 122.975  0.00  0.00    -0.491 OA
ATOM     26  C   LIG A   1      -6.504   3.514 121.661  0.00  0.00    +0.277 C 
ENDBRANCH  21  25
BRANCH  22  27
ATOM     27  O   LIG A   1      -8.473   4.160 124.526  0.00  0.00    -0.491 OA
ATOM     28  C   LIG A   1      -7.949   4.640 125.758  0.00  0.00    +0.277 C 
ENDBRANCH  22  27
ENDBRANCH   6  19
TORSDOF 6
ENDMDL
MODEL 3
REMARK VINA RESULT:      -7.2      2.922      7.195
REMARK  Name = NuBBE_1421
REMARK  10 active torsions:
REMARK  status: ('A' for Active; 'I' for Inactive)
REMARK    1  A    between atoms: O_1  and  C_2
REMARK    2  A    between atoms: O_1  and  C_3
REMARK    3  A    between atoms: C_5  and  C_11
REMARK    4  A    between atoms: C_8  and  O_9
REMARK    5  A    between atoms: O_9  and  C_10
REMARK    6  A    between atoms: C_19  and  C_23
REMARK    7  A    between atoms: C_25  and  O_26
REMARK    8  A    between atoms: O_26  and  C_27
REMARK    9  A    between atoms: C_28  and  O_31
REMARK   10  A    between atoms: O_31  and  C_32
REMARK                            x       y       z     vdW  Elec       q    Type
REMARK                         _______ _______ _______ _____ _____    ______ ____
ROOT
ATOM      1  C   LIG A   1      -9.082   6.271 130.891  0.00  0.00    +0.154 C 
ATOM      2  C   LIG A   1      -9.233   4.751 130.943  0.00  0.00    +0.056 C 
ATOM      3  C   LIG A   1      -8.607   4.389 132.263  0.00  0.00    +0.056 C 
ATOM      4  C   LIG A   1      -8.905   5.588 133.120  0.00  0.00    +0.167 C 
ATOM      5  O   LIG A   1      -8.898   6.722 132.251  0.00  0.00    -0.371 OA
ATOM      6  C   LIG A   1      -7.155   4.060 131.898  0.00  0.00    +0.154 C 
ATOM      7  O   LIG A   1      -7.207   3.560 130.546  0.00  0.00    -0.371 OA
ATOM      8  C   LIG A   1      -8.418   3.999 129.917  0.00  0.00    +0.167 C 
ENDROOT
BRANCH   1  11
ATOM      9  C   LIG A   1     -11.290   8.090 128.358  0.00  0.00    +0.162 A 
ATOM     10  C   LIG A   1     -10.191   7.483 128.978  0.00  0.00    +0.055 A 
ATOM     11  C   LIG A   1     -10.280   6.949 130.273  0.00  0.00    -0.015 A 
ATOM     12  C   LIG A   1     -11.476   7.060 130.965  0.00  0.00    +0.010 A 
ATOM     13  C   LIG A   1     -12.580   7.672 130.369  0.00  0.00    +0.050 A 
ATOM     14  C   LIG A   1     -12.498   8.189 129.063  0.00  0.00    +0.162 A 
BRANCH   9  15
ATOM     15  O   LIG A   1     -11.225   8.592 127.076  0.00  0.00    -0.491 OA
ATOM     16  C   LIG A   1     -11.047   7.638 126.030  0.00  0.00    +0.277 C 
ENDBRANCH   9  15
BRANCH  14  17
ATOM     17  O   LIG A   1     -13.563   8.798 128.434  0.00  0.00    -0.491 OA
ATOM     18  C   LIG A   1     -13.784  10.169 128.749  0.00  0.00    +0.277 C 
ENDBRANCH  14  17
ENDBRANCH   1  11
BRANCH   6  19
ATOM     19  C   LIG A   1      -6.069   5.114 132.013  0.00  0.00    -0.015 A 
ATOM     20  C   LIG A   1      -5.724   5.970 130.953  0.00  0.00    +0.055 A 
ATOM     21  C   LIG A   1      -4.687   6.913 131.057  0.00  0.00    +0.162 A 
ATOM     22  C   LIG A   1      -3.942   6.991 132.240  0.00  0.00    +0.162 A 
ATOM     23  C   LIG A   1      -4.279   6.139 133.305  0.00  0.00    +0.050 A 
ATOM     24  C   LIG A   1      -5.333   5.224 133.195  0.00  0.00    +0.010 A 
BRANCH  21  25
ATOM     25  O   LIG A   1      -4.571   7.702 129.940  0.00  0.00    -0.491 OA
ATOM     26  C   LIG A   1      -3.638   7.299 128.948  0.00  0.00    +0.277 C 
ENDBRANCH  21  25
BRANCH  22  27
ATOM     27  O   LIG A   1      -2.963   7.940 132.351  0.00  0.00    -0.491 OA
ATOM     28  C   LIG A   1      -1.618   7.475 132.352  0.00  0.00    +0.277 C 
ENDBRANCH  22  27
ENDBRANCH   6  19
TORSDOF 6
ENDMDL
MODEL 4
REMARK VINA RESULT:      -6.9      4.635      8.024
REMARK  Name = NuBBE_1421
REMARK  10 active torsions:
REMARK  status: ('A' for Active; 'I' for Inactive)
REMARK    1  A    between atoms: O_1  and  C_2
REMARK    2  A    between atoms: O_1  and  C_3
REMARK    3  A    between atoms: C_5  and  C_11
REMARK    4  A    between atoms: C_8  and  O_9
REMARK    5  A    between atoms: O_9  and  C_10
REMARK    6  A    between atoms: C_19  and  C_23
REMARK    7  A    between atoms: C_25  and  O_26
REMARK    8  A    between atoms: O_26  and  C_27
REMARK    9  A    between atoms: C_28  and  O_31
REMARK   10  A    between atoms: O_31  and  C_32
REMARK                            x       y       z     vdW  Elec       q    Type
REMARK                         _______ _______ _______ _____ _____    ______ ____
ROOT
ATOM      1  C   LIG A   1      -6.599   3.060 124.193  0.00  0.00    +0.154 C 
ATOM      2  C   LIG A   1      -6.731   4.136 125.270  0.00  0.00    +0.056 C 
ATOM      3  C   LIG A   1      -6.173   3.466 126.495  0.00  0.00    +0.056 C 
ATOM      4  C   LIG A   1      -5.122   2.548 125.932  0.00  0.00    +0.167 C 
ATOM      5  O   LIG A   1      -5.593   2.129 124.649  0.00  0.00    -0.371 OA
ATOM      6  C   LIG A   1      -7.409   2.871 127.179  0.00  0.00    +0.154 C 
ATOM      7  O   LIG A   1      -8.499   3.745 126.819  0.00  0.00    -0.371 OA
ATOM      8  C   LIG A   1      -8.153   4.486 125.642  0.00  0.00    +0.167 C 
ENDROOT
BRANCH   1  11
ATOM      9  C   LIG A   1      -6.777   4.060 120.509  0.00  0.00    +0.162 A 
ATOM     10  C   LIG A   1      -7.087   3.515 121.760  0.00  0.00    +0.055 A 
ATOM     11  C   LIG A   1      -6.211   3.631 122.850  0.00  0.00    -0.015 A 
ATOM     12  C   LIG A   1      -4.995   4.272 122.670  0.00  0.00    +0.010 A 
ATOM     13  C   LIG A   1      -4.662   4.813 121.427  0.00  0.00    +0.050 A 
ATOM     14  C   LIG A   1      -5.548   4.714 120.338  0.00  0.00    +0.162 A 
BRANCH   9  15
ATOM     15  O   LIG A   1      -7.642   3.979 119.438  0.00  0.00    -0.491 OA
ATOM     16  C   LIG A   1      -9.034   4.031 119.742  0.00  0.00    +0.277 C 
ENDBRANCH   9  15
BRANCH  14  17
ATOM     17  O   LIG A   1      -5.263   5.235 119.095  0.00  0.00    -0.491 OA
ATOM     18  C   LIG A   1      -5.934   6.441 118.745  0.00  0.00    +0.277 C 
ENDBRANCH  14  17
ENDBRANCH   1  11
BRANCH   6  19
ATOM     19  C   LIG A   1      -7.810   1.428 126.939  0.00  0.00    -0.015 A 
ATOM     20  C   LIG A   1      -8.638   1.035 125.873  0.00  0.00    +0.055 A 
ATOM     21  C   LIG A   1      -9.037  -0.299 125.685  0.00  0.00    +0.162 A 
ATOM     22  C   LIG A   1      -8.632  -1.276 126.603  0.00  0.00    +0.162 A 
ATOM     23  C   LIG A   1      -7.805  -0.894 127.672  0.00  0.00    +0.050 A 
ATOM     24  C   LIG A   1      -7.393   0.435 127.829  0.00  0.00    +0.010 A 
BRANCH  21  25
ATOM     25  O   LIG A   1      -9.773  -0.478 124.540  0.00  0.00    -0.491 OA
ATOM     26  C   LIG A   1      -9.060  -0.668 123.326  0.00  0.00    +0.277 C 
ENDBRANCH  21  25
BRANCH  22  27
ATOM     27  O   LIG A   1      -8.989  -2.580 126.390  0.00  0.00    -0.491 OA
ATOM     28  C   LIG A   1      -8.674  -3.506 127.424  0.00  0.00    +0.277 C 
ENDBRANCH  22  27
ENDBRANCH   6  19
TORSDOF 6
ENDMDL
MODEL 5
REMARK VINA RESULT:      -6.9      2.866      7.623
REMARK  Name = NuBBE_1421
REMARK  10 active torsions:
REMARK  status: ('A' for Active; 'I' for Inactive)
REMARK    1  A    between atoms: O_1  and  C_2
REMARK    2  A    between atoms: O_1  and  C_3
REMARK    3  A    between atoms: C_5  and  C_11
REMARK    4  A    between atoms: C_8  and  O_9
REMARK    5  A    between atoms: O_9  and  C_10
REMARK    6  A    between atoms: C_19  and  C_23
REMARK    7  A    between atoms: C_25  and  O_26
REMARK    8  A    between atoms: O_26  and  C_27
REMARK    9  A    between atoms: C_28  and  O_31
REMARK   10  A    between atoms: O_31  and  C_32
REMARK                            x       y       z     vdW  Elec       q    Type
REMARK                         _______ _______ _______ _____ _____    ______ ____
ROOT
ATOM      1  C   LIG A   1      -9.083   5.500 131.292  0.00  0.00    +0.154 C 
ATOM      2  C   LIG A   1      -8.214   6.161 132.361  0.00  0.00    +0.056 C 
ATOM      3  C   LIG A   1      -6.836   5.639 132.055  0.00  0.00    +0.056 C 
ATOM      4  C   LIG A   1      -6.863   5.468 130.560  0.00  0.00    +0.167 C 
ATOM      5  O   LIG A   1      -8.202   5.111 130.214  0.00  0.00    -0.371 OA
ATOM      6  C   LIG A   1      -6.706   4.406 132.955  0.00  0.00    +0.154 C 
ATOM      7  O   LIG A   1      -7.531   4.687 134.105  0.00  0.00    -0.371 OA
ATOM      8  C   LIG A   1      -8.489   5.700 133.773  0.00  0.00    +0.167 C 
ENDROOT
BRANCH   1  11
ATOM      9  C   LIG A   1     -10.963   7.964 129.058  0.00  0.00    +0.162 A 
ATOM     10  C   LIG A   1      -9.971   7.128 129.583  0.00  0.00    +0.055 A 
ATOM     11  C   LIG A   1     -10.164   6.418 130.778  0.00  0.00    -0.015 A 
ATOM     12  C   LIG A   1     -11.355   6.579 131.470  0.00  0.00    +0.010 A 
ATOM     13  C   LIG A   1     -12.353   7.417 130.969  0.00  0.00    +0.050 A 
ATOM     14  C   LIG A   1     -12.168   8.114 129.761  0.00  0.00    +0.162 A 
BRANCH   9  15
ATOM     15  O   LIG A   1     -10.798   8.644 127.870  0.00  0.00    -0.491 OA
ATOM     16  C   LIG A   1     -10.936   7.876 126.676  0.00  0.00    +0.277 C 
ENDBRANCH   9  15
BRANCH  14  17
ATOM     17  O   LIG A   1     -13.126   8.949 129.227  0.00  0.00    -0.491 OA
ATOM     18  C   LIG A   1     -13.225  10.247 129.801  0.00  0.00    +0.277 C 
ENDBRANCH  14  17
ENDBRANCH   1  11
BRANCH   6  19
ATOM     19  C   LIG A   1      -7.023   3.020 132.424  0.00  0.00    -0.015 A 
ATOM     20  C   LIG A   1      -6.206   2.357 131.492  0.00  0.00    +0.055 A 
ATOM     21  C   LIG A   1      -6.532   1.092 130.975  0.00  0.00    +0.162 A 
ATOM     22  C   LIG A   1      -7.725   0.473 131.367  0.00  0.00    +0.162 A 
ATOM     23  C   LIG A   1      -8.548   1.127 132.297  0.00  0.00    +0.050 A 
ATOM     24  C   LIG A   1      -8.195   2.375 132.824  0.00  0.00    +0.010 A 
BRANCH  21  25
ATOM     25  O   LIG A   1      -5.560   0.590 130.145  0.00  0.00    -0.491 OA
ATOM     26  C   LIG A   1      -4.371   0.103 130.749  0.00  0.00    +0.277 C 
ENDBRANCH  21  25
BRANCH  22  27
ATOM     27  O   LIG A   1      -8.015  -0.778 130.893  0.00  0.00    -0.491 OA
ATOM     28  C   LIG A   1      -7.541  -1.878 131.659  0.00  0.00    +0.277 C 
ENDBRANCH  22  27
ENDBRANCH   6  19
TORSDOF 6
ENDMDL
MODEL 6
REMARK VINA RESULT:      -6.8      5.057      8.510
REMARK  Name = NuBBE_1421
REMARK  10 active torsions:
REMARK  status: ('A' for Active; 'I' for Inactive)
REMARK    1  A    between atoms: O_1  and  C_2
REMARK    2  A    between atoms: O_1  and  C_3
REMARK    3  A    between atoms: C_5  and  C_11
REMARK    4  A    between atoms: C_8  and  O_9
REMARK    5  A    between atoms: O_9  and  C_10
REMARK    6  A    between atoms: C_19  and  C_23
REMARK    7  A    between atoms: C_25  and  O_26
REMARK    8  A    between atoms: O_26  and  C_27
REMARK    9  A    between atoms: C_28  and  O_31
REMARK   10  A    between atoms: O_31  and  C_32
REMARK                            x       y       z     vdW  Elec       q    Type
REMARK                         _______ _______ _______ _____ _____    ______ ____
ROOT
ATOM      1  C   LIG A   1      -7.411  -1.873 127.428  0.00  0.00    +0.154 C 
ATOM      2  C   LIG A   1      -7.996  -2.982 126.554  0.00  0.00    +0.056 C 
ATOM      3  C   LIG A   1      -7.230  -2.844 125.267  0.00  0.00    +0.056 C 
ATOM      4  C   LIG A   1      -5.885  -2.350 125.724  0.00  0.00    +0.167 C 
ATOM      5  O   LIG A   1      -6.117  -1.541 126.877  0.00  0.00    -0.371 OA
ATOM      6  C   LIG A   1      -8.120  -1.936 124.410  0.00  0.00    +0.154 C 
ATOM      7  O   LIG A   1      -9.468  -2.200 124.851  0.00  0.00    -0.371 OA
ATOM      8  C   LIG A   1      -9.441  -2.781 126.161  0.00  0.00    +0.167 C 
ENDROOT
BRANCH   1  11
ATOM      9  C   LIG A   1      -7.699  -1.830 131.238  0.00  0.00    +0.162 A 
ATOM     10  C   LIG A   1      -7.779  -1.464 129.890  0.00  0.00    +0.055 A 
ATOM     11  C   LIG A   1      -7.273  -2.288 128.873  0.00  0.00    -0.015 A 
ATOM     12  C   LIG A   1      -6.649  -3.476 129.219  0.00  0.00    +0.010 A 
ATOM     13  C   LIG A   1      -6.549  -3.855 130.559  0.00  0.00    +0.050 A 
ATOM     14  C   LIG A   1      -7.074  -3.038 131.578  0.00  0.00    +0.162 A 
BRANCH   9  15
ATOM     15  O   LIG A   1      -8.219  -1.044 132.245  0.00  0.00    -0.491 OA
ATOM     16  C   LIG A   1      -8.783   0.204 131.847  0.00  0.00    +0.277 C 
ENDBRANCH   9  15
BRANCH  14  17
ATOM     17  O   LIG A   1      -7.001  -3.373 132.913  0.00  0.00    -0.491 OA
ATOM     18  C   LIG A   1      -5.985  -4.301 133.279  0.00  0.00    +0.277 C 
ENDBRANCH  14  17
ENDBRANCH   1  11
BRANCH   6  19
ATOM     19  C   LIG A   1      -7.881  -0.438 124.363  0.00  0.00    -0.015 A 
ATOM     20  C   LIG A   1      -8.400   0.446 125.325  0.00  0.00    +0.055 A 
ATOM     21  C   LIG A   1      -8.208   1.836 125.248  0.00  0.00    +0.162 A 
ATOM     22  C   LIG A   1      -7.508   2.376 124.162  0.00  0.00    +0.162 A 
ATOM     23  C   LIG A   1      -6.986   1.502 123.195  0.00  0.00    +0.050 A 
ATOM     24  C   LIG A   1      -7.162   0.117 123.302  0.00  0.00    +0.010 A 
BRANCH  21  25
ATOM     25  O   LIG A   1      -8.724   2.506 126.329  0.00  0.00    -0.491 OA
ATOM     26  C   LIG A   1      -8.394   2.017 127.621  0.00  0.00    +0.277 C 
ENDBRANCH  21  25
BRANCH  22  27
ATOM     27  O   LIG A   1      -7.288   3.726 124.115  0.00  0.00    -0.491 OA
ATOM     28  C   LIG A   1      -5.960   4.148 123.829  0.00  0.00    +0.277 C 
ENDBRANCH  22  27
ENDBRANCH   6  19
TORSDOF 6
ENDMDL
MODEL 7
REMARK VINA RESULT:      -6.8      1.259      2.121
REMARK  Name = NuBBE_1421
REMARK  10 active torsions:
REMARK  status: ('A' for Active; 'I' for Inactive)
REMARK    1  A    between atoms: O_1  and  C_2
REMARK    2  A    between atoms: O_1  and  C_3
REMARK    3  A    between atoms: C_5  and  C_11
REMARK    4  A    between atoms: C_8  and  O_9
REMARK    5  A    between atoms: O_9  and  C_10
REMARK    6  A    between atoms: C_19  and  C_23
REMARK    7  A    between atoms: C_25  and  O_26
REMARK    8  A    between atoms: O_26  and  C_27
REMARK    9  A    between atoms: C_28  and  O_31
REMARK   10  A    between atoms: O_31  and  C_32
REMARK                            x       y       z     vdW  Elec       q    Type
REMARK                         _______ _______ _______ _____ _____    ______ ____
ROOT
ATOM      1  C   LIG A   1      -8.684   3.716 129.718  0.00  0.00    +0.154 C 
ATOM      2  C   LIG A   1      -7.847   3.944 130.977  0.00  0.00    +0.056 C 
ATOM      3  C   LIG A   1      -8.882   4.246 132.026  0.00  0.00    +0.056 C 
ATOM      4  C   LIG A   1     -10.065   3.428 131.582  0.00  0.00    +0.167 C 
ATOM      5  O   LIG A   1     -10.022   3.393 130.154  0.00  0.00    -0.371 OA
ATOM      6  C   LIG A   1      -8.974   5.776 132.017  0.00  0.00    +0.154 C 
ATOM      7  O   LIG A   1      -7.664   6.231 131.619  0.00  0.00    -0.371 OA
ATOM      8  C   LIG A   1      -6.973   5.174 130.940  0.00  0.00    +0.167 C 
ENDROOT
BRANCH   1  11
ATOM      9  C   LIG A   1      -7.178   0.364 128.670  0.00  0.00    +0.162 A 
ATOM     10  C   LIG A   1      -7.664   1.426 129.442  0.00  0.00    +0.055 A 
ATOM     11  C   LIG A   1      -8.134   2.609 128.852  0.00  0.00    -0.015 A 
ATOM     12  C   LIG A   1      -8.081   2.739 127.472  0.00  0.00    +0.010 A 
ATOM     13  C   LIG A   1      -7.589   1.696 126.685  0.00  0.00    +0.050 A 
ATOM     14  C   LIG A   1      -7.136   0.501 127.276  0.00  0.00    +0.162 A 
BRANCH   9  15
ATOM     15  O   LIG A   1      -6.741  -0.815 129.236  0.00  0.00    -0.491 OA
ATOM     16  C   LIG A   1      -7.746  -1.669 129.778  0.00  0.00    +0.277 C 
ENDBRANCH   9  15
BRANCH  14  17
ATOM     17  O   LIG A   1      -6.645  -0.555 126.538  0.00  0.00    -0.491 OA
ATOM     18  C   LIG A   1      -6.104  -0.238 125.260  0.00  0.00    +0.277 C 
ENDBRANCH  14  17
ENDBRANCH   1  11
BRANCH   6  19
ATOM     19  C   LIG A   1     -10.034   6.485 131.196  0.00  0.00    -0.015 A 
ATOM     20  C   LIG A   1      -9.744   7.159 129.996  0.00  0.00    +0.055 A 
ATOM     21  C   LIG A   1     -10.727   7.848 129.266  0.00  0.00    +0.162 A 
ATOM     22  C   LIG A   1     -12.037   7.903 129.756  0.00  0.00    +0.162 A 
ATOM     23  C   LIG A   1     -12.338   7.234 130.954  0.00  0.00    +0.050 A 
ATOM     24  C   LIG A   1     -11.353   6.528 131.654  0.00  0.00    +0.010 A 
BRANCH  21  25
ATOM     25  O   LIG A   1     -10.250   8.363 128.087  0.00  0.00    -0.491 OA
ATOM     26  C   LIG A   1     -10.696   7.760 126.881  0.00  0.00    +0.277 C 
ENDBRANCH  21  25
BRANCH  22  27
ATOM     27  O   LIG A   1     -12.999   8.540 129.019  0.00  0.00    -0.491 OA
ATOM     28  C   LIG A   1     -13.173   9.931 129.259  0.00  0.00    +0.277 C 
ENDBRANCH  22  27
ENDBRANCH   6  19
TORSDOF 6
ENDMDL
MODEL 8
REMARK VINA RESULT:      -6.8      3.204      7.572
REMARK  Name = NuBBE_1421
REMARK  10 active torsions:
REMARK  status: ('A' for Active; 'I' for Inactive)
REMARK    1  A    between atoms: O_1  and  C_2
REMARK    2  A    between atoms: O_1  and  C_3
REMARK    3  A    between atoms: C_5  and  C_11
REMARK    4  A    between atoms: C_8  and  O_9
REMARK    5  A    between atoms: O_9  and  C_10
REMARK    6  A    between atoms: C_19  and  C_23
REMARK    7  A    between atoms: C_25  and  O_26
REMARK    8  A    between atoms: O_26  and  C_27
REMARK    9  A    between atoms: C_28  and  O_31
REMARK   10  A    between atoms: O_31  and  C_32
REMARK                            x       y       z     vdW  Elec       q    Type
REMARK                         _______ _______ _______ _____ _____    ______ ____
ROOT
ATOM      1  C   LIG A   1      -9.250   5.838 131.239  0.00  0.00    +0.154 C 
ATOM      2  C   LIG A   1      -9.815   4.567 131.875  0.00  0.00    +0.056 C 
ATOM      3  C   LIG A   1      -8.962   4.389 133.101  0.00  0.00    +0.056 C 
ATOM      4  C   LIG A   1      -8.631   5.803 133.494  0.00  0.00    +0.167 C 
ATOM      5  O   LIG A   1      -8.551   6.555 132.281  0.00  0.00    -0.371 OA
ATOM      6  C   LIG A   1      -7.843   3.452 132.633  0.00  0.00    +0.154 C 
ATOM      7  O   LIG A   1      -8.434   2.646 131.593  0.00  0.00    -0.371 OA
ATOM      8  C   LIG A   1      -9.594   3.308 131.071  0.00  0.00    +0.167 C 
ENDROOT
BRANCH   1  11
ATOM      9  C   LIG A   1     -11.109   8.092 128.777  0.00  0.00    +0.162 A 
ATOM     10  C   LIG A   1     -10.123   7.304 129.382  0.00  0.00    +0.055 A 
ATOM     11  C   LIG A   1     -10.325   6.709 130.637  0.00  0.00    -0.015 A 
ATOM     12  C   LIG A   1     -11.519   6.938 131.304  0.00  0.00    +0.010 A 
ATOM     13  C   LIG A   1     -12.511   7.729 130.722  0.00  0.00    +0.050 A 
ATOM     14  C   LIG A   1     -12.316   8.310 129.455  0.00  0.00    +0.162 A 
BRANCH   9  15
ATOM     15  O   LIG A   1     -10.934   8.658 127.532  0.00  0.00    -0.491 OA
ATOM     16  C   LIG A   1     -10.972   7.767 126.419  0.00  0.00    +0.277 C 
ENDBRANCH   9  15
BRANCH  14  17
ATOM     17  O   LIG A   1     -13.268   9.095 128.842  0.00  0.00    -0.491 OA
ATOM     18  C   LIG A   1     -13.433  10.411 129.359  0.00  0.00    +0.277 C 
ENDBRANCH  14  17
ENDBRANCH   1  11
BRANCH   6  19
ATOM     19  C   LIG A   1      -6.514   4.008 132.156  0.00  0.00    -0.015 A 
ATOM     20  C   LIG A   1      -5.506   4.434 133.040  0.00  0.00    +0.055 A 
ATOM     21  C   LIG A   1      -4.296   4.987 132.587  0.00  0.00    +0.162 A 
ATOM     22  C   LIG A   1      -4.087   5.157 131.213  0.00  0.00    +0.162 A 
ATOM     23  C   LIG A   1      -5.088   4.735 130.322  0.00  0.00    +0.050 A 
ATOM     24  C   LIG A   1      -6.276   4.160 130.789  0.00  0.00    +0.010 A 
BRANCH  21  25
ATOM     25  O   LIG A   1      -3.420   5.258 133.608  0.00  0.00    -0.491 OA
ATOM     26  C   LIG A   1      -3.763   4.794 134.906  0.00  0.00    +0.277 C 
ENDBRANCH  21  25
BRANCH  22  27
ATOM     27  O   LIG A   1      -2.890   5.656 130.777  0.00  0.00    -0.491 OA
ATOM     28  C   LIG A   1      -2.672   5.659 129.371  0.00  0.00    +0.277 C 
ENDBRANCH  22  27
ENDBRANCH   6  19
TORSDOF 6
ENDMDL
MODEL 9
REMARK VINA RESULT:      -6.8      6.633      9.962
REMARK  Name = NuBBE_1421
REMARK  10 active torsions:
REMARK  status: ('A' for Active; 'I' for Inactive)
REMARK    1  A    between atoms: O_1  and  C_2
REMARK    2  A    between atoms: O_1  and  C_3
REMARK    3  A    between atoms: C_5  and  C_11
REMARK    4  A    between atoms: C_8  and  O_9
REMARK    5  A    between atoms: O_9  and  C_10
REMARK    6  A    between atoms: C_19  and  C_23
REMARK    7  A    between atoms: C_25  and  O_26
REMARK    8  A    between atoms: O_26  and  C_27
REMARK    9  A    between atoms: C_28  and  O_31
REMARK   10  A    between atoms: O_31  and  C_32
REMARK                            x       y       z     vdW  Elec       q    Type
REMARK                         _______ _______ _______ _____ _____    ______ ____
ROOT
ATOM      1  C   LIG A   1      -7.143  -2.750 129.846  0.00  0.00    +0.154 C 
ATOM      2  C   LIG A   1      -5.849  -1.939 129.908  0.00  0.00    +0.056 C 
ATOM      3  C   LIG A   1      -4.930  -2.821 130.708  0.00  0.00    +0.056 C 
ATOM      4  C   LIG A   1      -5.384  -4.207 130.341  0.00  0.00    +0.167 C 
ATOM      5  O   LIG A   1      -6.791  -4.127 130.106  0.00  0.00    -0.371 OA
ATOM      6  C   LIG A   1      -5.109  -2.322 132.146  0.00  0.00    +0.154 C 
ATOM      7  O   LIG A   1      -5.440  -0.923 132.024  0.00  0.00    -0.371 OA
ATOM      8  C   LIG A   1      -5.941  -0.661 130.706  0.00  0.00    +0.167 C 
ENDROOT
BRANCH   1  11
ATOM      9  C   LIG A   1      -8.309  -1.318 126.501  0.00  0.00    +0.162 A 
ATOM     10  C   LIG A   1      -7.708  -1.454 127.758  0.00  0.00    +0.055 A 
ATOM     11  C   LIG A   1      -7.836  -2.630 128.511  0.00  0.00    -0.015 A 
ATOM     12  C   LIG A   1      -8.607  -3.668 128.009  0.00  0.00    +0.010 A 
ATOM     13  C   LIG A   1      -9.224  -3.549 126.762  0.00  0.00    +0.050 A 
ATOM     14  C   LIG A   1      -9.079  -2.376 125.998  0.00  0.00    +0.162 A 
BRANCH   9  15
ATOM     15  O   LIG A   1      -8.166  -0.178 125.738  0.00  0.00    -0.491 OA
ATOM     16  C   LIG A   1      -8.880   0.974 126.180  0.00  0.00    +0.277 C 
ENDBRANCH   9  15
BRANCH  14  17
ATOM     17  O   LIG A   1      -9.667  -2.215 124.762  0.00  0.00    -0.491 OA
ATOM     18  C   LIG A   1      -9.215  -3.084 123.728  0.00  0.00    +0.277 C 
ENDBRANCH  14  17
ENDBRANCH   1  11
BRANCH   6  19
ATOM     19  C   LIG A   1      -6.088  -2.999 133.087  0.00  0.00    -0.015 A 
ATOM     20  C   LIG A   1      -5.837  -4.251 133.675  0.00  0.00    +0.055 A 
ATOM     21  C   LIG A   1      -6.770  -4.888 134.510  0.00  0.00    +0.162 A 
ATOM     22  C   LIG A   1      -8.010  -4.283 134.746  0.00  0.00    +0.162 A 
ATOM     23  C   LIG A   1      -8.272  -3.033 134.163  0.00  0.00    +0.050 A 
ATOM     24  C   LIG A   1      -7.320  -2.398 133.356  0.00  0.00    +0.010 A 
BRANCH  21  25
ATOM     25  O   LIG A   1      -6.294  -6.060 135.044  0.00  0.00    -0.491 OA
ATOM     26  C   LIG A   1      -4.888  -6.181 135.208  0.00  0.00    +0.277 C 
ENDBRANCH  21  25
BRANCH  22  27
ATOM     27  O   LIG A   1      -8.898  -4.888 135.595  0.00  0.00    -0.491 OA
ATOM     28  C   LIG A   1      -8.964  -4.378 136.921  0.00  0.00    +0.277 C 
ENDBRANCH  22  27
ENDBRANCH   6  19
TORSDOF 6
ENDMDL
