MODEL 1
REMARK VINA RESULT:      -7.1      0.000      0.000
REMARK  Name = NuBBE_2046
REMARK  6 active torsions:
REMARK  status: ('A' for Active; 'I' for Inactive)
REMARK    1  A    between atoms: O_1  and  C_2
REMARK    2  A    between atoms: C_13  and  O_17
REMARK    3  A    between atoms: C_14  and  O_16
REMARK    4  A    between atoms: O_17  and  C_18
REMARK    5  A    between atoms: C_23  and  O_24
REMARK    6  A    between atoms: O_24  and  C_25
REMARK                            x       y       z     vdW  Elec       q    Type
REMARK                         _______ _______ _______ _____ _____    ______ ____
ROOT
ATOM      1  C   LIG A   1      -3.631   4.002 127.284  0.00  0.00    +0.159 A 
ATOM      2  C   LIG A   1      -4.067   3.529 126.041  0.00  0.00    +0.060 A 
ATOM      3  C   LIG A   1      -5.437   3.472 125.741  0.00  0.00    +0.039 A 
ATOM      4  C   LIG A   1      -5.908   2.919 124.422  0.00  0.00    +0.218 C 
ATOM      5  C   LIG A   1      -7.436   2.959 124.251  0.00  0.00    +0.105 C 
ATOM      6  C   LIG A   1      -7.510   3.271 122.801  0.00  0.00    +0.008 A 
ATOM      7  C   LIG A   1      -6.264   3.693 122.361  0.00  0.00    +0.129 A 
ATOM      8  O   LIG A   1      -5.297   3.665 123.334  0.00  0.00    -0.483 OA
ATOM      9  C   LIG A   1      -6.043   4.144 121.071  0.00  0.00    +0.095 A 
ATOM     10  C   LIG A   1      -7.127   4.155 120.194  0.00  0.00    +0.165 A 
ATOM     11  C   LIG A   1      -8.386   3.704 120.644  0.00  0.00    +0.159 A 
ATOM     12  C   LIG A   1      -8.595   3.260 121.948  0.00  0.00    +0.057 A 
ATOM     13  C   LIG A   1      -8.045   4.057 125.110  0.00  0.00    +0.241 C 
ATOM     14  O   LIG A   1      -7.707   3.886 126.489  0.00  0.00    -0.491 OA
ATOM     15  C   LIG A   1      -6.353   3.908 126.698  0.00  0.00    +0.131 A 
ATOM     16  C   LIG A   1      -5.918   4.360 127.943  0.00  0.00    +0.095 A 
ATOM     17  C   LIG A   1      -4.555   4.404 128.253  0.00  0.00    +0.165 A 
ENDROOT
BRANCH   1  18
ATOM     18  O   LIG A   1      -2.284   4.077 127.514  0.00  0.00    -0.503 OA
ATOM     19  H   LIG A   1      -1.827   4.240 126.673  0.00  0.00    +0.292 HD
ENDBRANCH   1  18
BRANCH  11  20
ATOM     20  O   LIG A   1      -9.458   3.712 119.792  0.00  0.00    -0.503 OA
ATOM     21  H   LIG A   1     -10.227   3.927 120.356  0.00  0.00    +0.292 HD
ENDBRANCH  11  20
BRANCH  10  22
ATOM     22  O   LIG A   1      -7.103   4.582 118.889  0.00  0.00    -0.491 OA
ATOM     23  C   LIG A   1      -6.122   5.560 118.562  0.00  0.00    +0.277 C 
ENDBRANCH  10  22
BRANCH  17  24
ATOM     24  O   LIG A   1      -4.294   4.895 129.504  0.00  0.00    -0.491 OA
ATOM     25  C   LIG A   1      -4.160   6.304 129.625  0.00  0.00    +0.277 C 
ENDBRANCH  17  24
TORSDOF 4
ENDMDL
MODEL 2
REMARK VINA RESULT:      -7.0      7.962     11.708
REMARK  Name = NuBBE_2046
REMARK  6 active torsions:
REMARK  status: ('A' for Active; 'I' for Inactive)
REMARK    1  A    between atoms: O_1  and  C_2
REMARK    2  A    between atoms: C_13  and  O_17
REMARK    3  A    between atoms: C_14  and  O_16
REMARK    4  A    between atoms: O_17  and  C_18
REMARK    5  A    between atoms: C_23  and  O_24
REMARK    6  A    between atoms: O_24  and  C_25
REMARK                            x       y       z     vdW  Elec       q    Type
REMARK                         _______ _______ _______ _____ _____    ______ ____
ROOT
ATOM      1  C   LIG A   1     -12.171   7.101 131.068  0.00  0.00    +0.159 A 
ATOM      2  C   LIG A   1     -11.292   6.392 131.894  0.00  0.00    +0.060 A 
ATOM      3  C   LIG A   1      -9.924   6.322 131.587  0.00  0.00    +0.039 A 
ATOM      4  C   LIG A   1      -8.986   5.522 132.450  0.00  0.00    +0.218 C 
ATOM      5  C   LIG A   1      -7.522   5.579 131.983  0.00  0.00    +0.105 C 
ATOM      6  C   LIG A   1      -6.846   5.581 133.305  0.00  0.00    +0.008 A 
ATOM      7  C   LIG A   1      -7.778   5.855 134.295  0.00  0.00    +0.129 A 
ATOM      8  O   LIG A   1      -9.058   5.998 133.822  0.00  0.00    -0.483 OA
ATOM      9  C   LIG A   1      -7.428   6.015 135.624  0.00  0.00    +0.095 A 
ATOM     10  C   LIG A   1      -6.081   5.880 135.960  0.00  0.00    +0.165 A 
ATOM     11  C   LIG A   1      -5.143   5.580 134.950  0.00  0.00    +0.159 A 
ATOM     12  C   LIG A   1      -5.509   5.429 133.615  0.00  0.00    +0.057 A 
ATOM     13  C   LIG A   1      -7.258   6.855 131.197  0.00  0.00    +0.241 C 
ATOM     14  O   LIG A   1      -8.139   6.968 130.077  0.00  0.00    -0.491 OA
ATOM     15  C   LIG A   1      -9.456   6.984 130.451  0.00  0.00    +0.131 A 
ATOM     16  C   LIG A   1     -10.336   7.672 129.617  0.00  0.00    +0.095 A 
ATOM     17  C   LIG A   1     -11.703   7.732 129.911  0.00  0.00    +0.165 A 
ENDROOT
BRANCH   1  18
ATOM     18  O   LIG A   1     -13.488   7.173 131.431  0.00  0.00    -0.503 OA
ATOM     19  H   LIG A   1     -14.027   6.730 130.757  0.00  0.00    +0.292 HD
ENDBRANCH   1  18
BRANCH  11  20
ATOM     20  O   LIG A   1      -3.817   5.446 135.269  0.00  0.00    -0.503 OA
ATOM     21  H   LIG A   1      -3.807   5.246 136.225  0.00  0.00    +0.292 HD
ENDBRANCH  11  20
BRANCH  10  22
ATOM     22  O   LIG A   1      -5.547   6.020 137.217  0.00  0.00    -0.491 OA
ATOM     23  C   LIG A   1      -6.470   6.270 138.272  0.00  0.00    +0.277 C 
ENDBRANCH  10  22
BRANCH  17  24
ATOM     24  O   LIG A   1     -12.425   8.466 129.009  0.00  0.00    -0.491 OA
ATOM     25  C   LIG A   1     -13.079   7.745 127.973  0.00  0.00    +0.277 C 
ENDBRANCH  17  24
TORSDOF 4
ENDMDL
MODEL 3
REMARK VINA RESULT:      -6.8      6.830      9.367
REMARK  Name = NuBBE_2046
REMARK  6 active torsions:
REMARK  status: ('A' for Active; 'I' for Inactive)
REMARK    1  A    between atoms: O_1  and  C_2
REMARK    2  A    between atoms: C_13  and  O_17
REMARK    3  A    between atoms: C_14  and  O_16
REMARK    4  A    between atoms: O_17  and  C_18
REMARK    5  A    between atoms: C_23  and  O_24
REMARK    6  A    between atoms: O_24  and  C_25
REMARK                            x       y       z     vdW  Elec       q    Type
REMARK                         _______ _______ _______ _____ _____    ______ ____
ROOT
ATOM      1  C   LIG A   1     -11.229   7.964 127.784  0.00  0.00    +0.159 A 
ATOM      2  C   LIG A   1     -10.260   7.042 128.195  0.00  0.00    +0.060 A 
ATOM      3  C   LIG A   1     -10.176   6.646 129.539  0.00  0.00    +0.039 A 
ATOM      4  C   LIG A   1      -9.105   5.690 129.989  0.00  0.00    +0.218 C 
ATOM      5  C   LIG A   1      -9.180   5.345 131.487  0.00  0.00    +0.105 C 
ATOM      6  C   LIG A   1      -8.772   3.918 131.427  0.00  0.00    +0.008 A 
ATOM      7  C   LIG A   1      -8.835   3.480 130.112  0.00  0.00    +0.129 A 
ATOM      8  O   LIG A   1      -9.194   4.459 129.221  0.00  0.00    -0.483 OA
ATOM      9  C   LIG A   1      -8.601   2.163 129.754  0.00  0.00    +0.095 A 
ATOM     10  C   LIG A   1      -8.282   1.262 130.770  0.00  0.00    +0.165 A 
ATOM     11  C   LIG A   1      -8.200   1.722 132.101  0.00  0.00    +0.159 A 
ATOM     12  C   LIG A   1      -8.445   3.048 132.448  0.00  0.00    +0.057 A 
ATOM     13  C   LIG A   1     -10.598   5.520 132.008  0.00  0.00    +0.241 C 
ATOM     14  O   LIG A   1     -11.075   6.849 131.783  0.00  0.00    -0.491 OA
ATOM     15  C   LIG A   1     -11.086   7.178 130.454  0.00  0.00    +0.131 A 
ATOM     16  C   LIG A   1     -12.037   8.113 130.047  0.00  0.00    +0.095 A 
ATOM     17  C   LIG A   1     -12.114   8.522 128.712  0.00  0.00    +0.165 A 
ENDROOT
BRANCH   1  18
ATOM     18  O   LIG A   1     -11.296   8.288 126.457  0.00  0.00    -0.503 OA
ATOM     19  H   LIG A   1     -10.944   7.551 125.933  0.00  0.00    +0.292 HD
ENDBRANCH   1  18
BRANCH  11  20
ATOM     20  O   LIG A   1      -7.888   0.845 133.107  0.00  0.00    -0.503 OA
ATOM     21  H   LIG A   1      -7.255   0.218 132.706  0.00  0.00    +0.292 HD
ENDBRANCH  11  20
BRANCH  10  22
ATOM     22  O   LIG A   1      -8.036  -0.079 130.608  0.00  0.00    -0.491 OA
ATOM     23  C   LIG A   1      -7.443  -0.469 129.374  0.00  0.00    +0.277 C 
ENDBRANCH  10  22
BRANCH  17  24
ATOM     24  O   LIG A   1     -13.116   9.424 128.473  0.00  0.00    -0.491 OA
ATOM     25  C   LIG A   1     -13.357  10.397 129.480  0.00  0.00    +0.277 C 
ENDBRANCH  17  24
TORSDOF 4
ENDMDL
MODEL 4
REMARK VINA RESULT:      -6.8      3.920      5.419
REMARK  Name = NuBBE_2046
REMARK  6 active torsions:
REMARK  status: ('A' for Active; 'I' for Inactive)
REMARK    1  A    between atoms: O_1  and  C_2
REMARK    2  A    between atoms: C_13  and  O_17
REMARK    3  A    between atoms: C_14  and  O_16
REMARK    4  A    between atoms: O_17  and  C_18
REMARK    5  A    between atoms: C_23  and  O_24
REMARK    6  A    between atoms: O_24  and  C_25
REMARK                            x       y       z     vdW  Elec       q    Type
REMARK                         _______ _______ _______ _____ _____    ______ ____
ROOT
ATOM      1  C   LIG A   1      -9.156  -1.894 125.997  0.00  0.00    +0.159 A 
ATOM      2  C   LIG A   1      -9.060  -0.656 125.352  0.00  0.00    +0.060 A 
ATOM      3  C   LIG A   1      -7.999   0.217 125.638  0.00  0.00    +0.039 A 
ATOM      4  C   LIG A   1      -7.922   1.568 124.979  0.00  0.00    +0.218 C 
ATOM      5  C   LIG A   1      -6.680   2.380 125.387  0.00  0.00    +0.105 C 
ATOM      6  C   LIG A   1      -6.389   3.044 124.092  0.00  0.00    +0.008 A 
ATOM      7  C   LIG A   1      -7.107   2.417 123.084  0.00  0.00    +0.129 A 
ATOM      8  O   LIG A   1      -7.921   1.407 123.534  0.00  0.00    -0.483 OA
ATOM      9  C   LIG A   1      -6.970   2.755 121.749  0.00  0.00    +0.095 A 
ATOM     10  C   LIG A   1      -6.076   3.777 121.428  0.00  0.00    +0.165 A 
ATOM     11  C   LIG A   1      -5.365   4.423 122.461  0.00  0.00    +0.159 A 
ATOM     12  C   LIG A   1      -5.508   4.067 123.800  0.00  0.00    +0.057 A 
ATOM     13  C   LIG A   1      -5.556   1.456 125.829  0.00  0.00    +0.241 C 
ATOM     14  O   LIG A   1      -5.969   0.611 126.906  0.00  0.00    -0.491 OA
ATOM     15  C   LIG A   1      -7.035  -0.178 126.566  0.00  0.00    +0.131 A 
ATOM     16  C   LIG A   1      -7.143  -1.403 127.224  0.00  0.00    +0.095 A 
ATOM     17  C   LIG A   1      -8.207  -2.270 126.953  0.00  0.00    +0.165 A 
ENDROOT
BRANCH   1  18
ATOM     18  O   LIG A   1     -10.186  -2.727 125.655  0.00  0.00    -0.503 OA
ATOM     19  H   LIG A   1     -10.342  -3.352 126.380  0.00  0.00    +0.292 HD
ENDBRANCH   1  18
BRANCH  11  20
ATOM     20  O   LIG A   1      -4.484   5.428 122.158  0.00  0.00    -0.503 OA
ATOM     21  H   LIG A   1      -3.604   5.065 122.378  0.00  0.00    +0.292 HD
ENDBRANCH  11  20
BRANCH  10  22
ATOM     22  O   LIG A   1      -5.797   4.234 120.164  0.00  0.00    -0.491 OA
ATOM     23  C   LIG A   1      -6.908   4.396 119.290  0.00  0.00    +0.277 C 
ENDBRANCH  10  22
BRANCH  17  24
ATOM     24  O   LIG A   1      -8.154  -3.440 127.662  0.00  0.00    -0.491 OA
ATOM     25  C   LIG A   1      -8.353  -3.348 129.066  0.00  0.00    +0.277 C 
ENDBRANCH  17  24
TORSDOF 4
ENDMDL
MODEL 5
REMARK VINA RESULT:      -6.7      6.614      9.917
REMARK  Name = NuBBE_2046
REMARK  6 active torsions:
REMARK  status: ('A' for Active; 'I' for Inactive)
REMARK    1  A    between atoms: O_1  and  C_2
REMARK    2  A    between atoms: C_13  and  O_17
REMARK    3  A    between atoms: C_14  and  O_16
REMARK    4  A    between atoms: O_17  and  C_18
REMARK    5  A    between atoms: C_23  and  O_24
REMARK    6  A    between atoms: O_24  and  C_25
REMARK                            x       y       z     vdW  Elec       q    Type
REMARK                         _______ _______ _______ _____ _____    ______ ____
ROOT
ATOM      1  C   LIG A   1     -12.234   7.036 130.815  0.00  0.00    +0.159 A 
ATOM      2  C   LIG A   1     -11.775   5.742 131.087  0.00  0.00    +0.060 A 
ATOM      3  C   LIG A   1     -10.725   5.186 130.339  0.00  0.00    +0.039 A 
ATOM      4  C   LIG A   1     -10.262   3.778 130.599  0.00  0.00    +0.218 C 
ATOM      5  C   LIG A   1      -9.086   3.344 129.708  0.00  0.00    +0.105 C 
ATOM      6  C   LIG A   1      -8.338   2.511 130.683  0.00  0.00    +0.008 A 
ATOM      7  C   LIG A   1      -8.819   2.759 131.960  0.00  0.00    +0.129 A 
ATOM      8  O   LIG A   1      -9.867   3.644 131.992  0.00  0.00    -0.483 OA
ATOM      9  C   LIG A   1      -8.254   2.198 133.092  0.00  0.00    +0.095 A 
ATOM     10  C   LIG A   1      -7.165   1.343 132.917  0.00  0.00    +0.165 A 
ATOM     11  C   LIG A   1      -6.695   1.080 131.613  0.00  0.00    +0.159 A 
ATOM     12  C   LIG A   1      -7.270   1.659 130.483  0.00  0.00    +0.057 A 
ATOM     13  C   LIG A   1      -8.286   4.553 129.247  0.00  0.00    +0.241 C 
ATOM     14  O   LIG A   1      -9.113   5.490 128.552  0.00  0.00    -0.491 OA
ATOM     15  C   LIG A   1     -10.140   5.953 129.330  0.00  0.00    +0.131 A 
ATOM     16  C   LIG A   1     -10.612   7.234 129.047  0.00  0.00    +0.095 A 
ATOM     17  C   LIG A   1     -11.669   7.786 129.780  0.00  0.00    +0.165 A 
ENDROOT
BRANCH   1  18
ATOM     18  O   LIG A   1     -13.233   7.547 131.598  0.00  0.00    -0.503 OA
ATOM     19  H   LIG A   1     -13.230   8.515 131.522  0.00  0.00    +0.292 HD
ENDBRANCH   1  18
BRANCH  11  20
ATOM     20  O   LIG A   1      -5.626   0.244 131.429  0.00  0.00    -0.503 OA
ATOM     21  H   LIG A   1      -5.513  -0.211 132.286  0.00  0.00    +0.292 HD
ENDBRANCH  11  20
BRANCH  10  22
ATOM     22  O   LIG A   1      -6.468   0.712 133.917  0.00  0.00    -0.491 OA
ATOM     23  C   LIG A   1      -5.664   1.542 134.748  0.00  0.00    +0.277 C 
ENDBRANCH  10  22
BRANCH  17  24
ATOM     24  O   LIG A   1     -11.996   9.058 129.394  0.00  0.00    -0.491 OA
ATOM     25  C   LIG A   1     -13.166   9.207 128.603  0.00  0.00    +0.277 C 
ENDBRANCH  17  24
TORSDOF 4
ENDMDL
MODEL 6
REMARK VINA RESULT:      -6.7      6.920      9.668
REMARK  Name = NuBBE_2046
REMARK  6 active torsions:
REMARK  status: ('A' for Active; 'I' for Inactive)
REMARK    1  A    between atoms: O_1  and  C_2
REMARK    2  A    between atoms: C_13  and  O_17
REMARK    3  A    between atoms: C_14  and  O_16
REMARK    4  A    between atoms: O_17  and  C_18
REMARK    5  A    between atoms: C_23  and  O_24
REMARK    6  A    between atoms: O_24  and  C_25
REMARK                            x       y       z     vdW  Elec       q    Type
REMARK                         _______ _______ _______ _____ _____    ______ ____
ROOT
ATOM      1  C   LIG A   1     -10.951   8.105 128.592  0.00  0.00    +0.159 A 
ATOM      2  C   LIG A   1      -9.711   7.788 129.160  0.00  0.00    +0.060 A 
ATOM      3  C   LIG A   1      -9.642   7.130 130.398  0.00  0.00    +0.039 A 
ATOM      4  C   LIG A   1      -8.310   6.830 131.030  0.00  0.00    +0.218 C 
ATOM      5  C   LIG A   1      -8.420   6.080 132.370  0.00  0.00    +0.105 C 
ATOM      6  C   LIG A   1      -7.233   5.198 132.252  0.00  0.00    +0.008 A 
ATOM      7  C   LIG A   1      -6.787   5.202 130.939  0.00  0.00    +0.129 A 
ATOM      8  O   LIG A   1      -7.503   6.037 130.117  0.00  0.00    -0.483 OA
ATOM      9  C   LIG A   1      -5.749   4.398 130.500  0.00  0.00    +0.095 A 
ATOM     10  C   LIG A   1      -5.134   3.567 131.437  0.00  0.00    +0.165 A 
ATOM     11  C   LIG A   1      -5.580   3.585 132.775  0.00  0.00    +0.159 A 
ATOM     12  C   LIG A   1      -6.631   4.394 133.200  0.00  0.00    +0.057 A 
ATOM     13  C   LIG A   1      -9.721   5.294 132.439  0.00  0.00    +0.241 C 
ATOM     14  O   LIG A   1     -10.854   6.145 132.254  0.00  0.00    -0.491 OA
ATOM     15  C   LIG A   1     -10.830   6.786 131.044  0.00  0.00    +0.131 A 
ATOM     16  C   LIG A   1     -12.063   7.122 130.488  0.00  0.00    +0.095 A 
ATOM     17  C   LIG A   1     -12.138   7.791 129.261  0.00  0.00    +0.165 A 
ENDROOT
BRANCH   1  18
ATOM     18  O   LIG A   1     -10.967   8.710 127.366  0.00  0.00    -0.503 OA
ATOM     19  H   LIG A   1     -11.862   9.041 127.187  0.00  0.00    +0.292 HD
ENDBRANCH   1  18
BRANCH  11  20
ATOM     20  O   LIG A   1      -4.983   2.772 133.703  0.00  0.00    -0.503 OA
ATOM     21  H   LIG A   1      -4.317   3.337 134.141  0.00  0.00    +0.292 HD
ENDBRANCH  11  20
BRANCH  10  22
ATOM     22  O   LIG A   1      -4.106   2.693 131.185  0.00  0.00    -0.491 OA
ATOM     23  C   LIG A   1      -4.241   1.874 130.028  0.00  0.00    +0.277 C 
ENDBRANCH  10  22
BRANCH  17  24
ATOM     24  O   LIG A   1     -13.420   8.025 128.842  0.00  0.00    -0.491 OA
ATOM     25  C   LIG A   1     -13.887   7.250 127.747  0.00  0.00    +0.277 C 
ENDBRANCH  17  24
TORSDOF 4
ENDMDL
MODEL 7
REMARK VINA RESULT:      -6.6      5.272      7.803
REMARK  Name = NuBBE_2046
REMARK  6 active torsions:
REMARK  status: ('A' for Active; 'I' for Inactive)
REMARK    1  A    between atoms: O_1  and  C_2
REMARK    2  A    between atoms: C_13  and  O_17
REMARK    3  A    between atoms: C_14  and  O_16
REMARK    4  A    between atoms: O_17  and  C_18
REMARK    5  A    between atoms: C_23  and  O_24
REMARK    6  A    between atoms: O_24  and  C_25
REMARK                            x       y       z     vdW  Elec       q    Type
REMARK                         _______ _______ _______ _____ _____    ______ ____
ROOT
ATOM      1  C   LIG A   1      -5.038   4.310 128.150  0.00  0.00    +0.159 A 
ATOM      2  C   LIG A   1      -6.420   4.294 128.371  0.00  0.00    +0.060 A 
ATOM      3  C   LIG A   1      -6.951   4.727 129.596  0.00  0.00    +0.039 A 
ATOM      4  C   LIG A   1      -8.433   4.666 129.851  0.00  0.00    +0.218 C 
ATOM      5  C   LIG A   1      -8.842   5.206 131.232  0.00  0.00    +0.105 C 
ATOM      6  C   LIG A   1     -10.127   5.853 130.869  0.00  0.00    +0.008 A 
ATOM      7  C   LIG A   1     -10.208   5.966 129.488  0.00  0.00    +0.129 A 
ATOM      8  O   LIG A   1      -9.137   5.421 128.827  0.00  0.00    -0.483 OA
ATOM      9  C   LIG A   1     -11.253   6.615 128.854  0.00  0.00    +0.095 A 
ATOM     10  C   LIG A   1     -12.259   7.159 129.653  0.00  0.00    +0.165 A 
ATOM     11  C   LIG A   1     -12.180   7.020 131.054  0.00  0.00    +0.159 A 
ATOM     12  C   LIG A   1     -11.118   6.371 131.680  0.00  0.00    +0.057 A 
ATOM     13  C   LIG A   1      -7.815   6.206 131.743  0.00  0.00    +0.241 C 
ATOM     14  O   LIG A   1      -6.510   5.626 131.805  0.00  0.00    -0.491 OA
ATOM     15  C   LIG A   1      -6.078   5.187 130.582  0.00  0.00    +0.131 A 
ATOM     16  C   LIG A   1      -4.700   5.183 130.369  0.00  0.00    +0.095 A 
ATOM     17  C   LIG A   1      -4.165   4.738 129.155  0.00  0.00    +0.165 A 
ENDROOT
BRANCH   1  18
ATOM     18  O   LIG A   1      -4.572   3.916 126.926  0.00  0.00    -0.503 OA
ATOM     19  H   LIG A   1      -3.891   3.235 127.050  0.00  0.00    +0.292 HD
ENDBRANCH   1  18
BRANCH  11  20
ATOM     20  O   LIG A   1     -13.162   7.551 131.849  0.00  0.00    -0.503 OA
ATOM     21  H   LIG A   1     -12.709   8.227 132.390  0.00  0.00    +0.292 HD
ENDBRANCH  11  20
BRANCH  10  22
ATOM     22  O   LIG A   1     -13.358   7.848 129.205  0.00  0.00    -0.491 OA
ATOM     23  C   LIG A   1     -13.107   9.107 128.589  0.00  0.00    +0.277 C 
ENDBRANCH  10  22
BRANCH  17  24
ATOM     24  O   LIG A   1      -2.799   4.821 129.096  0.00  0.00    -0.491 OA
ATOM     25  C   LIG A   1      -2.243   6.119 128.937  0.00  0.00    +0.277 C 
ENDBRANCH  17  24
TORSDOF 4
ENDMDL
MODEL 8
REMARK VINA RESULT:      -6.6      4.473      7.578
REMARK  Name = NuBBE_2046
REMARK  6 active torsions:
REMARK  status: ('A' for Active; 'I' for Inactive)
REMARK    1  A    between atoms: O_1  and  C_2
REMARK    2  A    between atoms: C_13  and  O_17
REMARK    3  A    between atoms: C_14  and  O_16
REMARK    4  A    between atoms: O_17  and  C_18
REMARK    5  A    between atoms: C_23  and  O_24
REMARK    6  A    between atoms: O_24  and  C_25
REMARK                            x       y       z     vdW  Elec       q    Type
REMARK                         _______ _______ _______ _____ _____    ______ ____
ROOT
ATOM      1  C   LIG A   1      -6.619   4.215 124.283  0.00  0.00    +0.159 A 
ATOM      2  C   LIG A   1      -7.307   3.333 125.125  0.00  0.00    +0.060 A 
ATOM      3  C   LIG A   1      -7.588   2.023 124.707  0.00  0.00    +0.039 A 
ATOM      4  C   LIG A   1      -8.368   1.089 125.594  0.00  0.00    +0.218 C 
ATOM      5  C   LIG A   1      -8.559  -0.313 124.991  0.00  0.00    +0.105 C 
ATOM      6  C   LIG A   1      -8.453  -1.126 126.228  0.00  0.00    +0.008 A 
ATOM      7  C   LIG A   1      -7.927  -0.343 127.246  0.00  0.00    +0.129 A 
ATOM      8  O   LIG A   1      -7.695   0.958 126.876  0.00  0.00    -0.483 OA
ATOM      9  C   LIG A   1      -7.623  -0.851 128.497  0.00  0.00    +0.095 A 
ATOM     10  C   LIG A   1      -7.875  -2.205 128.724  0.00  0.00    +0.165 A 
ATOM     11  C   LIG A   1      -8.430  -2.988 127.691  0.00  0.00    +0.159 A 
ATOM     12  C   LIG A   1      -8.723  -2.464 126.434  0.00  0.00    +0.057 A 
ATOM     13  C   LIG A   1      -7.451  -0.626 123.996  0.00  0.00    +0.241 C 
ATOM     14  O   LIG A   1      -7.392   0.355 122.958  0.00  0.00    -0.491 OA
ATOM     15  C   LIG A   1      -7.159   1.613 123.445  0.00  0.00    +0.131 A 
ATOM     16  C   LIG A   1      -6.493   2.499 122.599  0.00  0.00    +0.095 A 
ATOM     17  C   LIG A   1      -6.223   3.811 123.005  0.00  0.00    +0.165 A 
ENDROOT
BRANCH   1  18
ATOM     18  O   LIG A   1      -6.333   5.469 124.750  0.00  0.00    -0.503 OA
ATOM     19  H   LIG A   1      -5.584   5.414 125.365  0.00  0.00    +0.292 HD
ENDBRANCH   1  18
BRANCH  11  20
ATOM     20  O   LIG A   1      -8.680  -4.319 127.903  0.00  0.00    -0.503 OA
ATOM     21  H   LIG A   1      -7.798  -4.740 127.922  0.00  0.00    +0.292 HD
ENDBRANCH  11  20
BRANCH  10  22
ATOM     22  O   LIG A   1      -7.623  -2.885 129.890  0.00  0.00    -0.491 OA
ATOM     23  C   LIG A   1      -6.258  -3.169 130.174  0.00  0.00    +0.277 C 
ENDBRANCH  10  22
BRANCH  17  24
ATOM     24  O   LIG A   1      -5.542   4.543 122.070  0.00  0.00    -0.491 OA
ATOM     25  C   LIG A   1      -5.647   4.116 120.719  0.00  0.00    +0.277 C 
ENDBRANCH  17  24
TORSDOF 4
ENDMDL
MODEL 9
REMARK VINA RESULT:      -6.4      5.612      9.141
REMARK  Name = NuBBE_2046
REMARK  6 active torsions:
REMARK  status: ('A' for Active; 'I' for Inactive)
REMARK    1  A    between atoms: O_1  and  C_2
REMARK    2  A    between atoms: C_13  and  O_17
REMARK    3  A    between atoms: C_14  and  O_16
REMARK    4  A    between atoms: O_17  and  C_18
REMARK    5  A    between atoms: C_23  and  O_24
REMARK    6  A    between atoms: O_24  and  C_25
REMARK                            x       y       z     vdW  Elec       q    Type
REMARK                         _______ _______ _______ _____ _____    ______ ____
ROOT
ATOM      1  C   LIG A   1      -9.585   1.132 124.466  0.00  0.00    +0.159 A 
ATOM      2  C   LIG A   1      -9.210  -0.019 125.170  0.00  0.00    +0.060 A 
ATOM      3  C   LIG A   1      -7.863  -0.255 125.486  0.00  0.00    +0.039 A 
ATOM      4  C   LIG A   1      -7.455  -1.514 126.201  0.00  0.00    +0.218 C 
ATOM      5  C   LIG A   1      -5.947  -1.594 126.492  0.00  0.00    +0.105 C 
ATOM      6  C   LIG A   1      -5.990  -2.264 127.816  0.00  0.00    +0.008 A 
ATOM      7  C   LIG A   1      -7.284  -2.211 128.313  0.00  0.00    +0.129 A 
ATOM      8  O   LIG A   1      -8.179  -1.618 127.458  0.00  0.00    -0.483 OA
ATOM      9  C   LIG A   1      -7.617  -2.671 129.575  0.00  0.00    +0.095 A 
ATOM     10  C   LIG A   1      -6.597  -3.216 130.356  0.00  0.00    +0.165 A 
ATOM     11  C   LIG A   1      -5.288  -3.285 129.834  0.00  0.00    +0.159 A 
ATOM     12  C   LIG A   1      -4.966  -2.811 128.564  0.00  0.00    +0.057 A 
ATOM     13  C   LIG A   1      -5.340  -0.201 126.567  0.00  0.00    +0.241 C 
ATOM     14  O   LIG A   1      -5.573   0.534 125.364  0.00  0.00    -0.491 OA
ATOM     15  C   LIG A   1      -6.908   0.685 125.098  0.00  0.00    +0.131 A 
ATOM     16  C   LIG A   1      -7.279   1.820 124.379  0.00  0.00    +0.095 A 
ATOM     17  C   LIG A   1      -8.619   2.052 124.048  0.00  0.00    +0.165 A 
ENDROOT
BRANCH   1  18
ATOM     18  O   LIG A   1     -10.914   1.337 124.217  0.00  0.00    -0.503 OA
ATOM     19  H   LIG A   1     -11.016   1.707 123.325  0.00  0.00    +0.292 HD
ENDBRANCH   1  18
BRANCH  11  20
ATOM     20  O   LIG A   1      -4.279  -3.818 130.592  0.00  0.00    -0.503 OA
ATOM     21  H   LIG A   1      -4.482  -3.544 131.508  0.00  0.00    +0.292 HD
ENDBRANCH  11  20
BRANCH  10  22
ATOM     22  O   LIG A   1      -6.734  -3.705 131.631  0.00  0.00    -0.491 OA
ATOM     23  C   LIG A   1      -7.310  -2.822 132.588  0.00  0.00    +0.277 C 
ENDBRANCH  10  22
BRANCH  17  24
ATOM     24  O   LIG A   1      -8.819   3.221 123.364  0.00  0.00    -0.491 OA
ATOM     25  C   LIG A   1      -8.497   3.217 121.980  0.00  0.00    +0.277 C 
ENDBRANCH  17  24
TORSDOF 4
ENDMDL
