MODEL 1
REMARK VINA RESULT:      -7.8      0.000      0.000
REMARK  Name = NuBBE_2000
REMARK  10 active torsions:
REMARK  status: ('A' for Active; 'I' for Inactive)
REMARK    1  A    between atoms: C_1  and  C_2
REMARK    2  A    between atoms: C_7  and  C_9
REMARK    3  A    between atoms: C_12  and  O_13
REMARK    4  A    between atoms: C_14  and  O_15
REMARK    5  A    between atoms: O_15  and  C_16
REMARK    6  A    between atoms: C_20  and  O_21
REMARK    7  A    between atoms: C_22  and  C_23
REMARK    8  A    between atoms: C_24  and  O_25
REMARK    9  A    between atoms: O_25  and  C_26
REMARK   10  A    between atoms: C_26  and  C_27
REMARK                            x       y       z     vdW  Elec       q    Type
REMARK                         _______ _______ _______ _____ _____    ______ ____
ROOT
ATOM      1  C   LIG A   1      -5.179  -0.321 125.937  0.00  0.00    +0.051 C 
ATOM      2  C   LIG A   1      -6.429  -0.382 125.096  0.00  0.00    +0.034 A 
ATOM      3  C   LIG A   1      -7.240   0.754 124.934  0.00  0.00    +0.142 A 
ATOM      4  C   LIG A   1      -8.451   0.655 124.243  0.00  0.00    +0.101 A 
ATOM      5  C   LIG A   1      -9.345   1.820 124.255  0.00  0.00    +0.174 C 
ATOM      6  C   LIG A   1      -8.917   3.030 125.019  0.00  0.00    +0.129 C 
ATOM      7  C   LIG A   1      -7.402   3.128 124.930  0.00  0.00    +0.211 C 
ATOM      8  O   LIG A   1      -6.797   1.936 125.476  0.00  0.00    -0.483 OA
ATOM      9  O   LIG A   1     -10.451   1.757 123.684  0.00  0.00    -0.292 OA
ATOM     10  C   LIG A   1      -8.815  -0.547 123.623  0.00  0.00    +0.137 A 
ATOM     11  C   LIG A   1      -8.001  -1.683 123.722  0.00  0.00    +0.034 A 
ATOM     12  C   LIG A   1      -8.435  -2.962 123.058  0.00  0.00    +0.051 C 
ATOM     13  C   LIG A   1      -6.788  -1.575 124.432  0.00  0.00    +0.133 A 
ENDROOT
BRANCH   7  14
ATOM     14  C   LIG A   1      -6.793   3.514 123.578  0.00  0.00    -0.003 A 
ATOM     15  C   LIG A   1      -5.467   3.974 123.548  0.00  0.00    +0.011 A 
ATOM     16  C   LIG A   1      -4.869   4.376 122.351  0.00  0.00    +0.049 A 
ATOM     17  C   LIG A   1      -5.586   4.325 121.160  0.00  0.00    +0.159 A 
ATOM     18  C   LIG A   1      -6.899   3.849 121.144  0.00  0.00    +0.162 A 
ATOM     19  C   LIG A   1      -7.501   3.470 122.358  0.00  0.00    +0.056 A 
BRANCH  17  20
ATOM     20  O   LIG A   1      -4.984   4.770 120.017  0.00  0.00    -0.503 OA
ATOM     21  H   LIG A   1      -5.630   4.814 119.297  0.00  0.00    +0.292 HD
ENDBRANCH  17  20
BRANCH  18  22
ATOM     22  O   LIG A   1      -7.696   3.728 120.030  0.00  0.00    -0.491 OA
ATOM     23  C   LIG A   1      -9.099   3.806 120.285  0.00  0.00    +0.277 C 
ENDBRANCH  18  22
ENDBRANCH   7  14
BRANCH  10  24
ATOM     24  O   LIG A   1      -9.975  -0.653 122.892  0.00  0.00    -0.506 OA
ATOM     25  H   LIG A   1      -9.757  -1.036 122.013  0.00  0.00    +0.292 HD
ENDBRANCH  10  24
BRANCH  13  26
ATOM     26  O   LIG A   1      -5.954  -2.660 124.582  0.00  0.00    -0.491 OA
BRANCH  26  27
ATOM     27  C   LIG A   1      -5.086  -2.859 123.457  0.00  0.00    +0.226 C 
ATOM     28  C   LIG A   1      -4.390  -4.205 123.549  0.00  0.00    +0.048 C 
ENDBRANCH  26  27
ENDBRANCH  13  26
TORSDOF 6
ENDMDL
MODEL 2
REMARK VINA RESULT:      -7.7      1.373      2.010
REMARK  Name = NuBBE_2000
REMARK  10 active torsions:
REMARK  status: ('A' for Active; 'I' for Inactive)
REMARK    1  A    between atoms: C_1  and  C_2
REMARK    2  A    between atoms: C_7  and  C_9
REMARK    3  A    between atoms: C_12  and  O_13
REMARK    4  A    between atoms: C_14  and  O_15
REMARK    5  A    between atoms: O_15  and  C_16
REMARK    6  A    between atoms: C_20  and  O_21
REMARK    7  A    between atoms: C_22  and  C_23
REMARK    8  A    between atoms: C_24  and  O_25
REMARK    9  A    between atoms: O_25  and  C_26
REMARK   10  A    between atoms: C_26  and  C_27
REMARK                            x       y       z     vdW  Elec       q    Type
REMARK                         _______ _______ _______ _____ _____    ______ ____
ROOT
ATOM      1  C   LIG A   1      -6.384   0.892 127.024  0.00  0.00    +0.051 C 
ATOM      2  C   LIG A   1      -6.863   0.092 125.839  0.00  0.00    +0.034 A 
ATOM      3  C   LIG A   1      -7.871   0.592 124.997  0.00  0.00    +0.142 A 
ATOM      4  C   LIG A   1      -8.381  -0.205 123.969  0.00  0.00    +0.101 A 
ATOM      5  C   LIG A   1      -9.552   0.289 123.234  0.00  0.00    +0.174 C 
ATOM      6  C   LIG A   1     -10.138   1.603 123.640  0.00  0.00    +0.129 C 
ATOM      7  C   LIG A   1      -9.002   2.492 124.120  0.00  0.00    +0.211 C 
ATOM      8  O   LIG A   1      -8.320   1.869 125.229  0.00  0.00    -0.483 OA
ATOM      9  O   LIG A   1     -10.061  -0.410 122.337  0.00  0.00    -0.292 OA
ATOM     10  C   LIG A   1      -7.825  -1.464 123.707  0.00  0.00    +0.137 A 
ATOM     11  C   LIG A   1      -6.783  -1.968 124.496  0.00  0.00    +0.034 A 
ATOM     12  C   LIG A   1      -6.223  -3.333 124.196  0.00  0.00    +0.051 C 
ATOM     13  C   LIG A   1      -6.284  -1.161 125.539  0.00  0.00    +0.133 A 
ENDROOT
BRANCH   7  14
ATOM     14  C   LIG A   1      -8.023   3.023 123.068  0.00  0.00    -0.003 A 
ATOM     15  C   LIG A   1      -6.694   3.264 123.451  0.00  0.00    +0.011 A 
ATOM     16  C   LIG A   1      -5.764   3.782 122.547  0.00  0.00    +0.049 A 
ATOM     17  C   LIG A   1      -6.145   4.070 121.240  0.00  0.00    +0.159 A 
ATOM     18  C   LIG A   1      -7.451   3.820 120.813  0.00  0.00    +0.162 A 
ATOM     19  C   LIG A   1      -8.387   3.322 121.737  0.00  0.00    +0.056 A 
BRANCH  17  20
ATOM     20  O   LIG A   1      -5.221   4.619 120.397  0.00  0.00    -0.503 OA
ATOM     21  H   LIG A   1      -4.390   4.123 120.447  0.00  0.00    +0.292 HD
ENDBRANCH  17  20
BRANCH  18  22
ATOM     22  O   LIG A   1      -7.937   4.040 119.545  0.00  0.00    -0.491 OA
ATOM     23  C   LIG A   1      -9.357   4.166 119.461  0.00  0.00    +0.277 C 
ENDBRANCH  18  22
ENDBRANCH   7  14
BRANCH  10  24
ATOM     24  O   LIG A   1      -8.274  -2.243 122.667  0.00  0.00    -0.506 OA
ATOM     25  H   LIG A   1      -9.248  -2.135 122.592  0.00  0.00    +0.292 HD
ENDBRANCH  10  24
BRANCH  13  26
ATOM     26  O   LIG A   1      -5.275  -1.606 126.362  0.00  0.00    -0.491 OA
BRANCH  26  27
ATOM     27  C   LIG A   1      -5.761  -2.329 127.502  0.00  0.00    +0.226 C 
ATOM     28  C   LIG A   1      -4.721  -2.347 128.607  0.00  0.00    +0.048 C 
ENDBRANCH  26  27
ENDBRANCH  13  26
TORSDOF 6
ENDMDL
MODEL 3
REMARK VINA RESULT:      -7.2      2.073      3.156
REMARK  Name = NuBBE_2000
REMARK  10 active torsions:
REMARK  status: ('A' for Active; 'I' for Inactive)
REMARK    1  A    between atoms: C_1  and  C_2
REMARK    2  A    between atoms: C_7  and  C_9
REMARK    3  A    between atoms: C_12  and  O_13
REMARK    4  A    between atoms: C_14  and  O_15
REMARK    5  A    between atoms: O_15  and  C_16
REMARK    6  A    between atoms: C_20  and  O_21
REMARK    7  A    between atoms: C_22  and  C_23
REMARK    8  A    between atoms: C_24  and  O_25
REMARK    9  A    between atoms: O_25  and  C_26
REMARK   10  A    between atoms: C_26  and  C_27
REMARK                            x       y       z     vdW  Elec       q    Type
REMARK                         _______ _______ _______ _____ _____    ______ ____
ROOT
ATOM      1  C   LIG A   1      -7.862   0.297 127.837  0.00  0.00    +0.051 C 
ATOM      2  C   LIG A   1      -8.022  -0.367 126.493  0.00  0.00    +0.034 A 
ATOM      3  C   LIG A   1      -8.742   0.264 125.463  0.00  0.00    +0.142 A 
ATOM      4  C   LIG A   1      -8.974  -0.409 124.260  0.00  0.00    +0.101 A 
ATOM      5  C   LIG A   1      -9.880   0.216 123.289  0.00  0.00    +0.174 C 
ATOM      6  C   LIG A   1     -10.512   1.521 123.650  0.00  0.00    +0.129 C 
ATOM      7  C   LIG A   1      -9.524   2.297 124.507  0.00  0.00    +0.211 C 
ATOM      8  O   LIG A   1      -9.195   1.540 125.691  0.00  0.00    -0.483 OA
ATOM      9  O   LIG A   1     -10.144  -0.371 122.222  0.00  0.00    -0.292 OA
ATOM     10  C   LIG A   1      -8.409  -1.671 124.035  0.00  0.00    +0.137 A 
ATOM     11  C   LIG A   1      -7.641  -2.302 125.022  0.00  0.00    +0.034 A 
ATOM     12  C   LIG A   1      -7.066  -3.667 124.750  0.00  0.00    +0.051 C 
ATOM     13  C   LIG A   1      -7.423  -1.620 126.236  0.00  0.00    +0.133 A 
ENDROOT
BRANCH   7  14
ATOM     14  C   LIG A   1      -8.276   2.859 123.819  0.00  0.00    -0.003 A 
ATOM     15  C   LIG A   1      -8.279   2.982 122.420  0.00  0.00    +0.011 A 
ATOM     16  C   LIG A   1      -7.158   3.453 121.733  0.00  0.00    +0.049 A 
ATOM     17  C   LIG A   1      -6.010   3.812 122.433  0.00  0.00    +0.159 A 
ATOM     18  C   LIG A   1      -5.975   3.728 123.826  0.00  0.00    +0.162 A 
ATOM     19  C   LIG A   1      -7.100   3.229 124.507  0.00  0.00    +0.056 A 
BRANCH  17  20
ATOM     20  O   LIG A   1      -4.917   4.223 121.723  0.00  0.00    -0.503 OA
ATOM     21  H   LIG A   1      -4.382   4.827 122.259  0.00  0.00    +0.292 HD
ENDBRANCH  17  20
BRANCH  18  22
ATOM     22  O   LIG A   1      -4.911   4.076 124.625  0.00  0.00    -0.491 OA
ATOM     23  C   LIG A   1      -4.782   3.306 125.821  0.00  0.00    +0.277 C 
ENDBRANCH  18  22
ENDBRANCH   7  14
BRANCH  10  24
ATOM     24  O   LIG A   1      -8.578  -2.329 122.839  0.00  0.00    -0.506 OA
ATOM     25  H   LIG A   1      -8.668  -1.660 122.124  0.00  0.00    +0.292 HD
ENDBRANCH  10  24
BRANCH  13  26
ATOM     26  O   LIG A   1      -6.696  -2.195 127.253  0.00  0.00    -0.491 OA
BRANCH  26  27
ATOM     27  C   LIG A   1      -7.510  -2.932 128.177  0.00  0.00    +0.226 C 
ATOM     28  C   LIG A   1      -6.728  -3.260 129.436  0.00  0.00    +0.048 C 
ENDBRANCH  26  27
ENDBRANCH  13  26
TORSDOF 6
ENDMDL
MODEL 4
REMARK VINA RESULT:      -7.1      6.562      8.958
REMARK  Name = NuBBE_2000
REMARK  10 active torsions:
REMARK  status: ('A' for Active; 'I' for Inactive)
REMARK    1  A    between atoms: C_1  and  C_2
REMARK    2  A    between atoms: C_7  and  C_9
REMARK    3  A    between atoms: C_12  and  O_13
REMARK    4  A    between atoms: C_14  and  O_15
REMARK    5  A    between atoms: O_15  and  C_16
REMARK    6  A    between atoms: C_20  and  O_21
REMARK    7  A    between atoms: C_22  and  C_23
REMARK    8  A    between atoms: C_24  and  O_25
REMARK    9  A    between atoms: O_25  and  C_26
REMARK   10  A    between atoms: C_26  and  C_27
REMARK                            x       y       z     vdW  Elec       q    Type
REMARK                         _______ _______ _______ _____ _____    ______ ____
ROOT
ATOM      1  C   LIG A   1      -5.542   6.798 130.851  0.00  0.00    +0.051 C 
ATOM      2  C   LIG A   1      -6.332   5.592 130.413  0.00  0.00    +0.034 A 
ATOM      3  C   LIG A   1      -7.484   5.196 131.115  0.00  0.00    +0.142 A 
ATOM      4  C   LIG A   1      -8.145   4.015 130.763  0.00  0.00    +0.101 A 
ATOM      5  C   LIG A   1      -9.231   3.552 131.636  0.00  0.00    +0.174 C 
ATOM      6  C   LIG A   1      -9.552   4.358 132.852  0.00  0.00    +0.129 C 
ATOM      7  C   LIG A   1      -9.295   5.820 132.525  0.00  0.00    +0.211 C 
ATOM      8  O   LIG A   1      -7.917   6.005 132.136  0.00  0.00    -0.483 OA
ATOM      9  O   LIG A   1      -9.817   2.483 131.379  0.00  0.00    -0.292 OA
ATOM     10  C   LIG A   1      -7.724   3.273 129.652  0.00  0.00    +0.137 A 
ATOM     11  C   LIG A   1      -6.611   3.672 128.900  0.00  0.00    +0.034 A 
ATOM     12  C   LIG A   1      -6.179   2.838 127.723  0.00  0.00    +0.051 C 
ATOM     13  C   LIG A   1      -5.945   4.857 129.270  0.00  0.00    +0.133 A 
ENDROOT
BRANCH   7  14
ATOM     14  C   LIG A   1     -10.263   6.513 131.561  0.00  0.00    -0.003 A 
ATOM     15  C   LIG A   1     -11.630   6.531 131.881  0.00  0.00    +0.011 A 
ATOM     16  C   LIG A   1     -12.566   7.115 131.024  0.00  0.00    +0.049 A 
ATOM     17  C   LIG A   1     -12.152   7.694 129.828  0.00  0.00    +0.159 A 
ATOM     18  C   LIG A   1     -10.798   7.719 129.486  0.00  0.00    +0.162 A 
ATOM     19  C   LIG A   1      -9.867   7.107 130.343  0.00  0.00    +0.056 A 
BRANCH  17  20
ATOM     20  O   LIG A   1     -13.100   8.214 128.994  0.00  0.00    -0.503 OA
ATOM     21  H   LIG A   1     -12.764   9.016 128.567  0.00  0.00    +0.292 HD
ENDBRANCH  17  20
BRANCH  18  22
ATOM     22  O   LIG A   1     -10.268   8.282 128.348  0.00  0.00    -0.491 OA
ATOM     23  C   LIG A   1     -10.528   7.559 127.144  0.00  0.00    +0.277 C 
ENDBRANCH  18  22
ENDBRANCH   7  14
BRANCH  10  24
ATOM     24  O   LIG A   1      -8.391   2.138 129.255  0.00  0.00    -0.506 OA
ATOM     25  H   LIG A   1      -8.831   2.318 128.395  0.00  0.00    +0.292 HD
ENDBRANCH  10  24
BRANCH  13  26
ATOM     26  O   LIG A   1      -4.834   5.291 128.585  0.00  0.00    -0.491 OA
BRANCH  26  27
ATOM     27  C   LIG A   1      -3.632   4.614 128.981  0.00  0.00    +0.226 C 
ATOM     28  C   LIG A   1      -2.659   4.526 127.819  0.00  0.00    +0.048 C 
ENDBRANCH  26  27
ENDBRANCH  13  26
TORSDOF 6
ENDMDL
MODEL 5
REMARK VINA RESULT:      -7.1      2.277      3.490
REMARK  Name = NuBBE_2000
REMARK  10 active torsions:
REMARK  status: ('A' for Active; 'I' for Inactive)
REMARK    1  A    between atoms: C_1  and  C_2
REMARK    2  A    between atoms: C_7  and  C_9
REMARK    3  A    between atoms: C_12  and  O_13
REMARK    4  A    between atoms: C_14  and  O_15
REMARK    5  A    between atoms: O_15  and  C_16
REMARK    6  A    between atoms: C_20  and  O_21
REMARK    7  A    between atoms: C_22  and  C_23
REMARK    8  A    between atoms: C_24  and  O_25
REMARK    9  A    between atoms: O_25  and  C_26
REMARK   10  A    between atoms: C_26  and  C_27
REMARK                            x       y       z     vdW  Elec       q    Type
REMARK                         _______ _______ _______ _____ _____    ______ ____
ROOT
ATOM      1  C   LIG A   1      -8.578   2.033 128.144  0.00  0.00    +0.051 C 
ATOM      2  C   LIG A   1      -8.174   0.957 127.169  0.00  0.00    +0.034 A 
ATOM      3  C   LIG A   1      -8.605   1.003 125.832  0.00  0.00    +0.142 A 
ATOM      4  C   LIG A   1      -8.314  -0.057 124.968  0.00  0.00    +0.101 A 
ATOM      5  C   LIG A   1      -8.936  -0.048 123.638  0.00  0.00    +0.174 C 
ATOM      6  C   LIG A   1      -9.855   1.079 123.296  0.00  0.00    +0.129 C 
ATOM      7  C   LIG A   1      -9.347   2.327 124.000  0.00  0.00    +0.211 C 
ATOM      8  O   LIG A   1      -9.310   2.109 125.427  0.00  0.00    -0.483 OA
ATOM      9  O   LIG A   1      -8.733  -0.995 122.854  0.00  0.00    -0.292 OA
ATOM     10  C   LIG A   1      -7.508  -1.119 125.398  0.00  0.00    +0.137 A 
ATOM     11  C   LIG A   1      -7.019  -1.166 126.710  0.00  0.00    +0.034 A 
ATOM     12  C   LIG A   1      -6.172  -2.334 127.140  0.00  0.00    +0.051 C 
ATOM     13  C   LIG A   1      -7.329  -0.099 127.576  0.00  0.00    +0.133 A 
ENDROOT
BRANCH   7  14
ATOM     14  C   LIG A   1      -8.051   2.957 123.481  0.00  0.00    -0.003 A 
ATOM     15  C   LIG A   1      -7.190   3.576 124.402  0.00  0.00    +0.011 A 
ATOM     16  C   LIG A   1      -6.012   4.200 123.985  0.00  0.00    +0.049 A 
ATOM     17  C   LIG A   1      -5.671   4.216 122.635  0.00  0.00    +0.159 A 
ATOM     18  C   LIG A   1      -6.487   3.589 121.691  0.00  0.00    +0.162 A 
ATOM     19  C   LIG A   1      -7.683   2.985 122.118  0.00  0.00    +0.056 A 
BRANCH  17  20
ATOM     20  O   LIG A   1      -4.535   4.876 122.259  0.00  0.00    -0.503 OA
ATOM     21  H   LIG A   1      -4.482   5.730 122.713  0.00  0.00    +0.292 HD
ENDBRANCH  17  20
BRANCH  18  22
ATOM     22  O   LIG A   1      -6.242   3.518 120.340  0.00  0.00    -0.491 OA
ATOM     23  C   LIG A   1      -7.171   4.234 119.524  0.00  0.00    +0.277 C 
ENDBRANCH  18  22
ENDBRANCH   7  14
BRANCH  10  24
ATOM     24  O   LIG A   1      -7.164  -2.145 124.550  0.00  0.00    -0.506 OA
ATOM     25  H   LIG A   1      -7.858  -2.839 124.599  0.00  0.00    +0.292 HD
ENDBRANCH  10  24
BRANCH  13  26
ATOM     26  O   LIG A   1      -6.895  -0.095 128.882  0.00  0.00    -0.491 OA
BRANCH  26  27
ATOM     27  C   LIG A   1      -7.640  -0.990 129.722  0.00  0.00    +0.226 C 
ATOM     28  C   LIG A   1      -8.147  -0.268 130.957  0.00  0.00    +0.048 C 
ENDBRANCH  26  27
ENDBRANCH  13  26
TORSDOF 6
ENDMDL
MODEL 6
REMARK VINA RESULT:      -7.1      3.330      5.877
REMARK  Name = NuBBE_2000
REMARK  10 active torsions:
REMARK  status: ('A' for Active; 'I' for Inactive)
REMARK    1  A    between atoms: C_1  and  C_2
REMARK    2  A    between atoms: C_7  and  C_9
REMARK    3  A    between atoms: C_12  and  O_13
REMARK    4  A    between atoms: C_14  and  O_15
REMARK    5  A    between atoms: O_15  and  C_16
REMARK    6  A    between atoms: C_20  and  O_21
REMARK    7  A    between atoms: C_22  and  C_23
REMARK    8  A    between atoms: C_24  and  O_25
REMARK    9  A    between atoms: O_25  and  C_26
REMARK   10  A    between atoms: C_26  and  C_27
REMARK                            x       y       z     vdW  Elec       q    Type
REMARK                         _______ _______ _______ _____ _____    ______ ____
ROOT
ATOM      1  C   LIG A   1      -4.705  -2.352 128.520  0.00  0.00    +0.051 C 
ATOM      2  C   LIG A   1      -5.800  -1.319 128.595  0.00  0.00    +0.034 A 
ATOM      3  C   LIG A   1      -6.077  -0.487 127.497  0.00  0.00    +0.142 A 
ATOM      4  C   LIG A   1      -7.020   0.539 127.618  0.00  0.00    +0.101 A 
ATOM      5  C   LIG A   1      -7.144   1.491 126.508  0.00  0.00    +0.174 C 
ATOM      6  C   LIG A   1      -6.246   1.319 125.326  0.00  0.00    +0.129 C 
ATOM      7  C   LIG A   1      -5.997  -0.170 125.141  0.00  0.00    +0.211 C 
ATOM      8  O   LIG A   1      -5.394  -0.723 126.330  0.00  0.00    -0.483 OA
ATOM      9  O   LIG A   1      -7.945   2.442 126.594  0.00  0.00    -0.292 OA
ATOM     10  C   LIG A   1      -7.764   0.680 128.797  0.00  0.00    +0.137 A 
ATOM     11  C   LIG A   1      -7.548  -0.169 129.890  0.00  0.00    +0.034 A 
ATOM     12  C   LIG A   1      -8.354   0.026 131.146  0.00  0.00    +0.051 C 
ATOM     13  C   LIG A   1      -6.586  -1.191 129.762  0.00  0.00    +0.133 A 
ENDROOT
BRANCH   7  14
ATOM     14  C   LIG A   1      -7.163  -1.027 124.636  0.00  0.00    -0.003 A 
ATOM     15  C   LIG A   1      -7.209  -2.380 125.007  0.00  0.00    +0.011 A 
ATOM     16  C   LIG A   1      -8.226  -3.221 124.548  0.00  0.00    +0.049 A 
ATOM     17  C   LIG A   1      -9.219  -2.723 123.710  0.00  0.00    +0.159 A 
ATOM     18  C   LIG A   1      -9.223  -1.377 123.339  0.00  0.00    +0.162 A 
ATOM     19  C   LIG A   1      -8.181  -0.544 123.786  0.00  0.00    +0.056 A 
BRANCH  17  20
ATOM     20  O   LIG A   1     -10.171  -3.586 123.244  0.00  0.00    -0.503 OA
ATOM     21  H   LIG A   1      -9.750  -4.382 122.885  0.00  0.00    +0.292 HD
ENDBRANCH  17  20
BRANCH  18  22
ATOM     22  O   LIG A   1     -10.161  -0.767 122.539  0.00  0.00    -0.491 OA
ATOM     23  C   LIG A   1     -10.168   0.660 122.604  0.00  0.00    +0.277 C 
ENDBRANCH  18  22
ENDBRANCH   7  14
BRANCH  10  24
ATOM     24  O   LIG A   1      -8.734   1.646 128.919  0.00  0.00    -0.506 OA
ATOM     25  H   LIG A   1      -9.448   1.457 128.270  0.00  0.00    +0.292 HD
ENDBRANCH  10  24
BRANCH  13  26
ATOM     26  O   LIG A   1      -6.313  -2.044 130.806  0.00  0.00    -0.491 OA
BRANCH  26  27
ATOM     27  C   LIG A   1      -6.972  -3.313 130.681  0.00  0.00    +0.226 C 
ATOM     28  C   LIG A   1      -6.021  -4.447 131.016  0.00  0.00    +0.048 C 
ENDBRANCH  26  27
ENDBRANCH  13  26
TORSDOF 6
ENDMDL
MODEL 7
REMARK VINA RESULT:      -7.0      3.169      5.817
REMARK  Name = NuBBE_2000
REMARK  10 active torsions:
REMARK  status: ('A' for Active; 'I' for Inactive)
REMARK    1  A    between atoms: C_1  and  C_2
REMARK    2  A    between atoms: C_7  and  C_9
REMARK    3  A    between atoms: C_12  and  O_13
REMARK    4  A    between atoms: C_14  and  O_15
REMARK    5  A    between atoms: O_15  and  C_16
REMARK    6  A    between atoms: C_20  and  O_21
REMARK    7  A    between atoms: C_22  and  C_23
REMARK    8  A    between atoms: C_24  and  O_25
REMARK    9  A    between atoms: O_25  and  C_26
REMARK   10  A    between atoms: C_26  and  C_27
REMARK                            x       y       z     vdW  Elec       q    Type
REMARK                         _______ _______ _______ _____ _____    ______ ____
ROOT
ATOM      1  C   LIG A   1      -5.507   0.534 128.222  0.00  0.00    +0.051 C 
ATOM      2  C   LIG A   1      -6.396   1.747 128.120  0.00  0.00    +0.034 A 
ATOM      3  C   LIG A   1      -6.433   2.512 126.942  0.00  0.00    +0.142 A 
ATOM      4  C   LIG A   1      -7.178   3.694 126.900  0.00  0.00    +0.101 A 
ATOM      5  C   LIG A   1      -7.042   4.548 125.714  0.00  0.00    +0.174 C 
ATOM      6  C   LIG A   1      -6.104   4.114 124.634  0.00  0.00    +0.129 C 
ATOM      7  C   LIG A   1      -6.120   2.594 124.585  0.00  0.00    +0.211 C 
ATOM      8  O   LIG A   1      -5.719   2.054 125.862  0.00  0.00    -0.483 OA
ATOM      9  O   LIG A   1      -7.658   5.629 125.656  0.00  0.00    -0.292 OA
ATOM     10  C   LIG A   1      -7.970   4.071 127.992  0.00  0.00    +0.137 A 
ATOM     11  C   LIG A   1      -7.995   3.300 129.162  0.00  0.00    +0.034 A 
ATOM     12  C   LIG A   1      -8.844   3.747 130.322  0.00  0.00    +0.051 C 
ATOM     13  C   LIG A   1      -7.231   2.116 129.198  0.00  0.00    +0.133 A 
ENDROOT
BRANCH   7  14
ATOM     14  C   LIG A   1      -7.381   1.914 124.044  0.00  0.00    -0.003 A 
ATOM     15  C   LIG A   1      -8.180   2.616 123.126  0.00  0.00    +0.011 A 
ATOM     16  C   LIG A   1      -9.361   2.064 122.626  0.00  0.00    +0.049 A 
ATOM     17  C   LIG A   1      -9.767   0.797 123.033  0.00  0.00    +0.159 A 
ATOM     18  C   LIG A   1      -8.988   0.056 123.924  0.00  0.00    +0.162 A 
ATOM     19  C   LIG A   1      -7.813   0.631 124.442  0.00  0.00    +0.056 A 
BRANCH  17  20
ATOM     20  O   LIG A   1     -10.952   0.309 122.558  0.00  0.00    -0.503 OA
ATOM     21  H   LIG A   1     -10.903   0.196 121.597  0.00  0.00    +0.292 HD
ENDBRANCH  17  20
BRANCH  18  22
ATOM     22  O   LIG A   1      -9.272  -1.210 124.378  0.00  0.00    -0.491 OA
ATOM     23  C   LIG A   1      -8.738  -2.267 123.580  0.00  0.00    +0.277 C 
ENDBRANCH  18  22
ENDBRANCH   7  14
BRANCH  10  24
ATOM     24  O   LIG A   1      -8.753   5.200 127.954  0.00  0.00    -0.506 OA
ATOM     25  H   LIG A   1      -8.165   5.988 127.953  0.00  0.00    +0.292 HD
ENDBRANCH  10  24
BRANCH  13  26
ATOM     26  O   LIG A   1      -7.198   1.326 130.325  0.00  0.00    -0.491 OA
BRANCH  26  27
ATOM     27  C   LIG A   1      -8.189   0.289 130.311  0.00  0.00    +0.226 C 
ATOM     28  C   LIG A   1      -8.926   0.235 131.637  0.00  0.00    +0.048 C 
ENDBRANCH  26  27
ENDBRANCH  13  26
TORSDOF 6
ENDMDL
MODEL 8
REMARK VINA RESULT:      -7.0      6.540      8.615
REMARK  Name = NuBBE_2000
REMARK  10 active torsions:
REMARK  status: ('A' for Active; 'I' for Inactive)
REMARK    1  A    between atoms: C_1  and  C_2
REMARK    2  A    between atoms: C_7  and  C_9
REMARK    3  A    between atoms: C_12  and  O_13
REMARK    4  A    between atoms: C_14  and  O_15
REMARK    5  A    between atoms: O_15  and  C_16
REMARK    6  A    between atoms: C_20  and  O_21
REMARK    7  A    between atoms: C_22  and  C_23
REMARK    8  A    between atoms: C_24  and  O_25
REMARK    9  A    between atoms: O_25  and  C_26
REMARK   10  A    between atoms: C_26  and  C_27
REMARK                            x       y       z     vdW  Elec       q    Type
REMARK                         _______ _______ _______ _____ _____    ______ ____
ROOT
ATOM      1  C   LIG A   1      -6.123   4.194 128.906  0.00  0.00    +0.051 C 
ATOM      2  C   LIG A   1      -7.015   3.506 129.907  0.00  0.00    +0.034 A 
ATOM      3  C   LIG A   1      -7.605   4.229 130.958  0.00  0.00    +0.142 A 
ATOM      4  C   LIG A   1      -8.341   3.559 131.940  0.00  0.00    +0.101 A 
ATOM      5  C   LIG A   1      -8.782   4.328 133.110  0.00  0.00    +0.174 C 
ATOM      6  C   LIG A   1      -8.405   5.772 133.189  0.00  0.00    +0.129 C 
ATOM      7  C   LIG A   1      -8.377   6.326 131.774  0.00  0.00    +0.211 C 
ATOM      8  O   LIG A   1      -7.427   5.590 130.973  0.00  0.00    -0.483 OA
ATOM      9  O   LIG A   1      -9.406   3.758 134.026  0.00  0.00    -0.292 OA
ATOM     10  C   LIG A   1      -8.578   2.183 131.831  0.00  0.00    +0.137 A 
ATOM     11  C   LIG A   1      -8.048   1.444 130.765  0.00  0.00    +0.034 A 
ATOM     12  C   LIG A   1      -8.310  -0.037 130.691  0.00  0.00    +0.051 C 
ATOM     13  C   LIG A   1      -7.298   2.127 129.787  0.00  0.00    +0.133 A 
ENDROOT
BRANCH   7  14
ATOM     14  C   LIG A   1      -9.718   6.505 131.054  0.00  0.00    -0.003 A 
ATOM     15  C   LIG A   1     -10.887   6.585 131.827  0.00  0.00    +0.011 A 
ATOM     16  C   LIG A   1     -12.143   6.712 131.228  0.00  0.00    +0.049 A 
ATOM     17  C   LIG A   1     -12.253   6.762 129.841  0.00  0.00    +0.159 A 
ATOM     18  C   LIG A   1     -11.111   6.712 129.038  0.00  0.00    +0.162 A 
ATOM     19  C   LIG A   1      -9.854   6.559 129.651  0.00  0.00    +0.056 A 
BRANCH  17  20
ATOM     20  O   LIG A   1     -13.500   6.839 129.289  0.00  0.00    -0.503 OA
ATOM     21  H   LIG A   1     -13.452   6.672 128.336  0.00  0.00    +0.292 HD
ENDBRANCH  17  20
BRANCH  18  22
ATOM     22  O   LIG A   1     -11.092   6.777 127.665  0.00  0.00    -0.491 OA
ATOM     23  C   LIG A   1     -10.941   8.093 127.129  0.00  0.00    +0.277 C 
ENDBRANCH  18  22
ENDBRANCH   7  14
BRANCH  10  24
ATOM     24  O   LIG A   1      -9.344   1.513 132.755  0.00  0.00    -0.506 OA
ATOM     25  H   LIG A   1     -10.147   1.167 132.306  0.00  0.00    +0.292 HD
ENDBRANCH  10  24
BRANCH  13  26
ATOM     26  O   LIG A   1      -6.734   1.455 128.727  0.00  0.00    -0.491 OA
BRANCH  26  27
ATOM     27  C   LIG A   1      -7.589   1.407 127.575  0.00  0.00    +0.226 C 
ATOM     28  C   LIG A   1      -7.698  -0.012 127.047  0.00  0.00    +0.048 C 
ENDBRANCH  26  27
ENDBRANCH  13  26
TORSDOF 6
ENDMDL
MODEL 9
REMARK VINA RESULT:      -7.0      4.172      5.893
REMARK  Name = NuBBE_2000
REMARK  10 active torsions:
REMARK  status: ('A' for Active; 'I' for Inactive)
REMARK    1  A    between atoms: C_1  and  C_2
REMARK    2  A    between atoms: C_7  and  C_9
REMARK    3  A    between atoms: C_12  and  O_13
REMARK    4  A    between atoms: C_14  and  O_15
REMARK    5  A    between atoms: O_15  and  C_16
REMARK    6  A    between atoms: C_20  and  O_21
REMARK    7  A    between atoms: C_22  and  C_23
REMARK    8  A    between atoms: C_24  and  O_25
REMARK    9  A    between atoms: O_25  and  C_26
REMARK   10  A    between atoms: C_26  and  C_27
REMARK                            x       y       z     vdW  Elec       q    Type
REMARK                         _______ _______ _______ _____ _____    ______ ____
ROOT
ATOM      1  C   LIG A   1      -5.500   0.114 126.166  0.00  0.00    +0.051 C 
ATOM      2  C   LIG A   1      -6.341   1.345 125.945  0.00  0.00    +0.034 A 
ATOM      3  C   LIG A   1      -6.641   2.210 127.012  0.00  0.00    +0.142 A 
ATOM      4  C   LIG A   1      -7.510   3.287 126.814  0.00  0.00    +0.101 A 
ATOM      5  C   LIG A   1      -7.934   4.050 127.994  0.00  0.00    +0.174 C 
ATOM      6  C   LIG A   1      -7.426   3.622 129.333  0.00  0.00    +0.129 C 
ATOM      7  C   LIG A   1      -6.024   3.064 129.144  0.00  0.00    +0.211 C 
ATOM      8  O   LIG A   1      -6.054   1.951 128.226  0.00  0.00    -0.483 OA
ATOM      9  O   LIG A   1      -8.739   4.992 127.866  0.00  0.00    -0.292 OA
ATOM     10  C   LIG A   1      -8.007   3.570 125.536  0.00  0.00    +0.137 A 
ATOM     11  C   LIG A   1      -7.683   2.757 124.442  0.00  0.00    +0.034 A 
ATOM     12  C   LIG A   1      -8.252   3.083 123.086  0.00  0.00    +0.051 C 
ATOM     13  C   LIG A   1      -6.815   1.667 124.653  0.00  0.00    +0.133 A 
ENDROOT
BRANCH   7  14
ATOM     14  C   LIG A   1      -4.905   4.055 128.810  0.00  0.00    -0.003 A 
ATOM     15  C   LIG A   1      -3.710   3.558 128.264  0.00  0.00    +0.011 A 
ATOM     16  C   LIG A   1      -2.640   4.406 127.973  0.00  0.00    +0.049 A 
ATOM     17  C   LIG A   1      -2.744   5.772 128.222  0.00  0.00    +0.159 A 
ATOM     18  C   LIG A   1      -3.924   6.309 128.740  0.00  0.00    +0.162 A 
ATOM     19  C   LIG A   1      -4.987   5.443 129.053  0.00  0.00    +0.056 A 
BRANCH  17  20
ATOM     20  O   LIG A   1      -1.660   6.564 127.968  0.00  0.00    -0.503 OA
ATOM     21  H   LIG A   1      -1.025   6.089 127.411  0.00  0.00    +0.292 HD
ENDBRANCH  17  20
BRANCH  18  22
ATOM     22  O   LIG A   1      -4.153   7.639 129.003  0.00  0.00    -0.491 OA
ATOM     23  C   LIG A   1      -3.859   8.045 130.341  0.00  0.00    +0.277 C 
ENDBRANCH  18  22
ENDBRANCH   7  14
BRANCH  10  24
ATOM     24  O   LIG A   1      -8.820   4.654 125.308  0.00  0.00    -0.506 OA
ATOM     25  H   LIG A   1      -8.821   5.220 126.112  0.00  0.00    +0.292 HD
ENDBRANCH  10  24
BRANCH  13  26
ATOM     26  O   LIG A   1      -6.475   0.820 123.624  0.00  0.00    -0.491 OA
BRANCH  26  27
ATOM     27  C   LIG A   1      -7.420  -0.244 123.438  0.00  0.00    +0.226 C 
ATOM     28  C   LIG A   1      -6.748  -1.455 122.816  0.00  0.00    +0.048 C 
ENDBRANCH  26  27
ENDBRANCH  13  26
TORSDOF 6
ENDMDL
