MODEL 1
REMARK VINA RESULT:      -7.5      0.000      0.000
REMARK  Name = NuBBE_2284
REMARK  8 active torsions:
REMARK  status: ('A' for Active; 'I' for Inactive)
REMARK    1  A    between atoms: C_1  and  C_2
REMARK    2  A    between atoms: C_1  and  C_4
REMARK    3  A    between atoms: C_6  and  O_7
REMARK    4  A    between atoms: O_7  and  C_8
REMARK    5  A    between atoms: C_11  and  O_14
REMARK    6  A    between atoms: O_14  and  C_15
REMARK    7  A    between atoms: C_17  and  C_22
REMARK    8  A    between atoms: C_19  and  C_21
REMARK                            x       y       z     vdW  Elec       q    Type
REMARK                         _______ _______ _______ _____ _____    ______ ____
ROOT
ATOM      1  C   LIG A   1      -6.548  -0.004 125.411  0.00  0.00    +0.044 C 
ATOM      2  C   LIG A   1      -7.056   1.282 124.792  0.00  0.00    +0.150 C 
ATOM      3  C   LIG A   1      -8.310   1.533 124.399  0.00  0.00    +0.203 C 
ATOM      4  C   LIG A   1      -9.327   0.425 124.480  0.00  0.00    +0.229 C 
ATOM      5  O   LIG A   1     -10.462   0.587 124.021  0.00  0.00    -0.286 OA
ATOM      6  C   LIG A   1      -8.894  -0.937 125.075  0.00  0.00    +0.193 C 
ATOM      7  C   LIG A   1      -7.736  -0.736 126.063  0.00  0.00    +0.055 C 
ATOM      8  O   LIG A   1      -6.101   2.290 124.822  0.00  0.00    -0.484 OA
ATOM      9  C   LIG A   1      -4.956   1.780 125.537  0.00  0.00    +0.207 C 
ATOM     10  C   LIG A   1      -5.487   0.598 126.380  0.00  0.00    +0.045 C 
ATOM     11  C   LIG A   1      -6.034   1.019 127.750  0.00  0.00    +0.012 C 
ENDROOT
BRANCH   9  12
ATOM     12  C   LIG A   1      -4.180   2.891 126.219  0.00  0.00    -0.003 A 
ATOM     13  C   LIG A   1      -4.786   4.139 126.454  0.00  0.00    +0.056 A 
ATOM     14  C   LIG A   1      -4.096   5.075 127.199  0.00  0.00    +0.167 A 
ATOM     15  C   LIG A   1      -2.845   4.820 127.708  0.00  0.00    +0.166 A 
ATOM     16  C   LIG A   1      -2.207   3.622 127.491  0.00  0.00    +0.050 A 
ATOM     17  C   LIG A   1      -2.884   2.653 126.743  0.00  0.00    +0.011 A 
ATOM     18  O   LIG A   1      -2.358   5.856 128.441  0.00  0.00    -0.453 OA
ATOM     19  C   LIG A   1      -3.462   6.782 128.365  0.00  0.00    +0.466 C 
ATOM     20  O   LIG A   1      -4.552   6.309 127.543  0.00  0.00    -0.453 OA
ENDBRANCH   9  12
BRANCH   3  21
ATOM     21  O   LIG A   1      -8.626   2.795 123.899  0.00  0.00    -0.489 OA
ATOM     22  C   LIG A   1      -8.487   2.976 122.495  0.00  0.00    +0.277 C 
ENDBRANCH   3  21
BRANCH   6  23
ATOM     23  O   LIG A   1      -9.903  -1.662 125.785  0.00  0.00    -0.372 OA
ATOM     24  C   LIG A   1      -9.517  -2.981 126.163  0.00  0.00    +0.195 C 
ENDBRANCH   6  23
BRANCH   1  25
ATOM     25  C   LIG A   1      -5.857  -0.883 124.314  0.00  0.00    +0.041 C 
BRANCH  25  26
ATOM     26  C   LIG A   1      -5.475  -2.265 124.776  0.00  0.00    -0.034 C 
ATOM     27  C   LIG A   1      -5.222  -3.292 123.954  0.00  0.00    +0.004 C 
ENDBRANCH  25  26
ENDBRANCH   1  25
TORSDOF 5
ENDMDL
MODEL 2
REMARK VINA RESULT:      -7.4      2.900      6.080
REMARK  Name = NuBBE_2284
REMARK  8 active torsions:
REMARK  status: ('A' for Active; 'I' for Inactive)
REMARK    1  A    between atoms: C_1  and  C_2
REMARK    2  A    between atoms: C_1  and  C_4
REMARK    3  A    between atoms: C_6  and  O_7
REMARK    4  A    between atoms: O_7  and  C_8
REMARK    5  A    between atoms: C_11  and  O_14
REMARK    6  A    between atoms: O_14  and  C_15
REMARK    7  A    between atoms: C_17  and  C_22
REMARK    8  A    between atoms: C_19  and  C_21
REMARK                            x       y       z     vdW  Elec       q    Type
REMARK                         _______ _______ _______ _____ _____    ______ ____
ROOT
ATOM      1  C   LIG A   1      -5.633   2.921 126.389  0.00  0.00    +0.044 C 
ATOM      2  C   LIG A   1      -6.589   1.864 125.876  0.00  0.00    +0.150 C 
ATOM      3  C   LIG A   1      -7.407   1.106 126.616  0.00  0.00    +0.203 C 
ATOM      4  C   LIG A   1      -7.339   1.223 128.116  0.00  0.00    +0.229 C 
ATOM      5  O   LIG A   1      -7.996   0.459 128.830  0.00  0.00    -0.286 OA
ATOM      6  C   LIG A   1      -6.371   2.260 128.736  0.00  0.00    +0.193 C 
ATOM      7  C   LIG A   1      -6.141   3.419 127.756  0.00  0.00    +0.055 C 
ATOM      8  O   LIG A   1      -6.672   1.862 124.490  0.00  0.00    -0.484 OA
ATOM      9  C   LIG A   1      -5.870   2.960 124.007  0.00  0.00    +0.207 C 
ATOM     10  C   LIG A   1      -5.729   3.928 125.205  0.00  0.00    +0.045 C 
ATOM     11  C   LIG A   1      -6.878   4.940 125.312  0.00  0.00    +0.012 C 
ENDROOT
BRANCH   9  12
ATOM     12  C   LIG A   1      -6.382   3.487 122.680  0.00  0.00    -0.003 A 
ATOM     13  C   LIG A   1      -5.517   4.175 121.809  0.00  0.00    +0.056 A 
ATOM     14  C   LIG A   1      -5.983   4.516 120.554  0.00  0.00    +0.167 A 
ATOM     15  C   LIG A   1      -7.257   4.204 120.142  0.00  0.00    +0.166 A 
ATOM     16  C   LIG A   1      -8.142   3.547 120.964  0.00  0.00    +0.050 A 
ATOM     17  C   LIG A   1      -7.696   3.186 122.239  0.00  0.00    +0.011 A 
ATOM     18  O   LIG A   1      -7.502   4.595 118.863  0.00  0.00    -0.453 OA
ATOM     19  C   LIG A   1      -6.224   5.157 118.504  0.00  0.00    +0.466 C 
ATOM     20  O   LIG A   1      -5.268   5.148 119.586  0.00  0.00    -0.453 OA
ENDBRANCH   9  12
BRANCH   3  21
ATOM     21  O   LIG A   1      -8.269   0.215 125.979  0.00  0.00    -0.489 OA
ATOM     22  C   LIG A   1      -9.601   0.665 125.762  0.00  0.00    +0.277 C 
ENDBRANCH   3  21
BRANCH   6  23
ATOM     23  O   LIG A   1      -6.791   2.855 129.967  0.00  0.00    -0.372 OA
ATOM     24  C   LIG A   1      -7.406   4.132 129.819  0.00  0.00    +0.195 C 
ENDBRANCH   6  23
BRANCH   1  25
ATOM     25  C   LIG A   1      -4.189   2.325 126.490  0.00  0.00    +0.041 C 
BRANCH  25  26
ATOM     26  C   LIG A   1      -3.094   3.359 126.559  0.00  0.00    -0.034 C 
ATOM     27  C   LIG A   1      -1.785   3.074 126.546  0.00  0.00    +0.004 C 
ENDBRANCH  25  26
ENDBRANCH   1  25
TORSDOF 5
ENDMDL
MODEL 3
REMARK VINA RESULT:      -7.4      4.051      6.407
REMARK  Name = NuBBE_2284
REMARK  8 active torsions:
REMARK  status: ('A' for Active; 'I' for Inactive)
REMARK    1  A    between atoms: C_1  and  C_2
REMARK    2  A    between atoms: C_1  and  C_4
REMARK    3  A    between atoms: C_6  and  O_7
REMARK    4  A    between atoms: O_7  and  C_8
REMARK    5  A    between atoms: C_11  and  O_14
REMARK    6  A    between atoms: O_14  and  C_15
REMARK    7  A    between atoms: C_17  and  C_22
REMARK    8  A    between atoms: C_19  and  C_21
REMARK                            x       y       z     vdW  Elec       q    Type
REMARK                         _______ _______ _______ _____ _____    ______ ____
ROOT
ATOM      1  C   LIG A   1      -7.562  -1.495 125.916  0.00  0.00    +0.044 C 
ATOM      2  C   LIG A   1      -7.821  -0.344 126.865  0.00  0.00    +0.150 C 
ATOM      3  C   LIG A   1      -8.594   0.722 126.628  0.00  0.00    +0.203 C 
ATOM      4  C   LIG A   1      -9.214   0.875 125.265  0.00  0.00    +0.229 C 
ATOM      5  O   LIG A   1      -9.838   1.901 124.976  0.00  0.00    -0.286 OA
ATOM      6  C   LIG A   1      -8.984  -0.240 124.216  0.00  0.00    +0.193 C 
ATOM      7  C   LIG A   1      -8.733  -1.581 124.919  0.00  0.00    +0.055 C 
ATOM      8  O   LIG A   1      -7.298  -0.580 128.130  0.00  0.00    -0.484 OA
ATOM      9  C   LIG A   1      -6.755  -1.918 128.130  0.00  0.00    +0.207 C 
ATOM     10  C   LIG A   1      -7.452  -2.647 126.958  0.00  0.00    +0.045 C 
ATOM     11  C   LIG A   1      -8.788  -3.293 127.347  0.00  0.00    +0.012 C 
ENDROOT
BRANCH   9  12
ATOM     12  C   LIG A   1      -6.786  -2.535 129.516  0.00  0.00    -0.003 A 
ATOM     13  C   LIG A   1      -5.984  -3.652 129.813  0.00  0.00    +0.056 A 
ATOM     14  C   LIG A   1      -5.935  -4.097 131.120  0.00  0.00    +0.167 A 
ATOM     15  C   LIG A   1      -6.646  -3.483 132.123  0.00  0.00    +0.166 A 
ATOM     16  C   LIG A   1      -7.455  -2.399 131.878  0.00  0.00    +0.050 A 
ATOM     17  C   LIG A   1      -7.520  -1.924 130.565  0.00  0.00    +0.011 A 
ATOM     18  O   LIG A   1      -6.430  -4.053 133.339  0.00  0.00    -0.453 OA
ATOM     19  C   LIG A   1      -5.474  -5.075 132.991  0.00  0.00    +0.466 C 
ATOM     20  O   LIG A   1      -5.186  -5.135 131.577  0.00  0.00    -0.453 OA
ENDBRANCH   9  12
BRANCH   3  21
ATOM     21  O   LIG A   1      -8.773   1.669 127.636  0.00  0.00    -0.489 OA
ATOM     22  C   LIG A   1      -7.852   2.752 127.662  0.00  0.00    +0.277 C 
ENDBRANCH   3  21
BRANCH   6  23
ATOM     23  O   LIG A   1     -10.053  -0.466 123.294  0.00  0.00    -0.372 OA
ATOM     24  C   LIG A   1     -10.091   0.452 122.205  0.00  0.00    +0.195 C 
ENDBRANCH   6  23
BRANCH   1  25
ATOM     25  C   LIG A   1      -6.193  -1.281 125.185  0.00  0.00    +0.041 C 
BRANCH  25  26
ATOM     26  C   LIG A   1      -5.516  -2.555 124.750  0.00  0.00    -0.034 C 
ATOM     27  C   LIG A   1      -5.217  -2.854 123.479  0.00  0.00    +0.004 C 
ENDBRANCH  25  26
ENDBRANCH   1  25
TORSDOF 5
ENDMDL
MODEL 4
REMARK VINA RESULT:      -7.3      6.192      9.368
REMARK  Name = NuBBE_2284
REMARK  8 active torsions:
REMARK  status: ('A' for Active; 'I' for Inactive)
REMARK    1  A    between atoms: C_1  and  C_2
REMARK    2  A    between atoms: C_1  and  C_4
REMARK    3  A    between atoms: C_6  and  O_7
REMARK    4  A    between atoms: O_7  and  C_8
REMARK    5  A    between atoms: C_11  and  O_14
REMARK    6  A    between atoms: O_14  and  C_15
REMARK    7  A    between atoms: C_17  and  C_22
REMARK    8  A    between atoms: C_19  and  C_21
REMARK                            x       y       z     vdW  Elec       q    Type
REMARK                         _______ _______ _______ _____ _____    ______ ____
ROOT
ATOM      1  C   LIG A   1      -6.560   5.033 132.291  0.00  0.00    +0.044 C 
ATOM      2  C   LIG A   1      -6.209   6.070 131.245  0.00  0.00    +0.150 C 
ATOM      3  C   LIG A   1      -5.088   6.116 130.517  0.00  0.00    +0.203 C 
ATOM      4  C   LIG A   1      -4.004   5.109 130.796  0.00  0.00    +0.229 C 
ATOM      5  O   LIG A   1      -2.913   5.193 130.224  0.00  0.00    -0.286 OA
ATOM      6  C   LIG A   1      -4.259   4.023 131.869  0.00  0.00    +0.193 C 
ATOM      7  C   LIG A   1      -5.765   3.748 131.993  0.00  0.00    +0.055 C 
ATOM      8  O   LIG A   1      -7.275   6.917 130.969  0.00  0.00    -0.484 OA
ATOM      9  C   LIG A   1      -8.409   6.444 131.727  0.00  0.00    +0.207 C 
ATOM     10  C   LIG A   1      -8.099   4.967 132.059  0.00  0.00    +0.045 C 
ATOM     11  C   LIG A   1      -8.543   3.987 130.966  0.00  0.00    +0.012 C 
ENDROOT
BRANCH   9  12
ATOM     12  C   LIG A   1      -9.721   6.795 131.050  0.00  0.00    -0.003 A 
ATOM     13  C   LIG A   1      -9.729   7.294 129.734  0.00  0.00    +0.056 A 
ATOM     14  C   LIG A   1     -10.947   7.469 129.106  0.00  0.00    +0.167 A 
ATOM     15  C   LIG A   1     -12.136   7.174 129.729  0.00  0.00    +0.166 A 
ATOM     16  C   LIG A   1     -12.178   6.700 131.018  0.00  0.00    +0.050 A 
ATOM     17  C   LIG A   1     -10.960   6.508 131.678  0.00  0.00    +0.011 A 
ATOM     18  O   LIG A   1     -13.213   7.382 128.925  0.00  0.00    -0.453 OA
ATOM     19  C   LIG A   1     -12.562   7.810 127.710  0.00  0.00    +0.466 C 
ATOM     20  O   LIG A   1     -11.127   7.907 127.831  0.00  0.00    -0.453 OA
ENDBRANCH   9  12
BRANCH   3  21
ATOM     21  O   LIG A   1      -4.945   7.110 129.549  0.00  0.00    -0.489 OA
ATOM     22  C   LIG A   1      -4.213   8.269 129.930  0.00  0.00    +0.277 C 
ENDBRANCH   3  21
BRANCH   6  23
ATOM     23  O   LIG A   1      -3.639   2.755 131.642  0.00  0.00    -0.372 OA
ATOM     24  C   LIG A   1      -4.347   1.911 130.738  0.00  0.00    +0.195 C 
ENDBRANCH   6  23
BRANCH   1  25
ATOM     25  C   LIG A   1      -6.241   5.593 133.719  0.00  0.00    +0.041 C 
BRANCH  25  26
ATOM     26  C   LIG A   1      -7.083   5.002 134.820  0.00  0.00    -0.034 C 
ATOM     27  C   LIG A   1      -7.568   5.699 135.856  0.00  0.00    +0.004 C 
ENDBRANCH  25  26
ENDBRANCH   1  25
TORSDOF 5
ENDMDL
MODEL 5
REMARK VINA RESULT:      -7.2      4.292      6.435
REMARK  Name = NuBBE_2284
REMARK  8 active torsions:
REMARK  status: ('A' for Active; 'I' for Inactive)
REMARK    1  A    between atoms: C_1  and  C_2
REMARK    2  A    between atoms: C_1  and  C_4
REMARK    3  A    between atoms: C_6  and  O_7
REMARK    4  A    between atoms: O_7  and  C_8
REMARK    5  A    between atoms: C_11  and  O_14
REMARK    6  A    between atoms: O_14  and  C_15
REMARK    7  A    between atoms: C_17  and  C_22
REMARK    8  A    between atoms: C_19  and  C_21
REMARK                            x       y       z     vdW  Elec       q    Type
REMARK                         _______ _______ _______ _____ _____    ______ ____
ROOT
ATOM      1  C   LIG A   1      -8.242  -1.555 126.538  0.00  0.00    +0.044 C 
ATOM      2  C   LIG A   1      -6.897  -1.863 125.914  0.00  0.00    +0.150 C 
ATOM      3  C   LIG A   1      -6.403  -1.332 124.789  0.00  0.00    +0.203 C 
ATOM      4  C   LIG A   1      -7.272  -0.399 123.989  0.00  0.00    +0.229 C 
ATOM      5  O   LIG A   1      -6.892   0.018 122.890  0.00  0.00    -0.286 OA
ATOM      6  C   LIG A   1      -8.677  -0.044 124.533  0.00  0.00    +0.193 C 
ATOM      7  C   LIG A   1      -8.694  -0.160 126.064  0.00  0.00    +0.055 C 
ATOM      8  O   LIG A   1      -6.108  -2.657 126.736  0.00  0.00    -0.484 OA
ATOM      9  C   LIG A   1      -6.825  -2.841 127.975  0.00  0.00    +0.207 C 
ATOM     10  C   LIG A   1      -7.847  -1.683 128.039  0.00  0.00    +0.045 C 
ATOM     11  C   LIG A   1      -7.283  -0.402 128.667  0.00  0.00    +0.012 C 
ENDROOT
BRANCH   9  12
ATOM     12  C   LIG A   1      -5.880  -3.066 129.141  0.00  0.00    -0.003 A 
ATOM     13  C   LIG A   1      -6.320  -3.748 130.290  0.00  0.00    +0.056 A 
ATOM     14  C   LIG A   1      -5.394  -4.054 131.268  0.00  0.00    +0.167 A 
ATOM     15  C   LIG A   1      -4.069  -3.709 131.147  0.00  0.00    +0.166 A 
ATOM     16  C   LIG A   1      -3.596  -3.029 130.051  0.00  0.00    +0.050 A 
ATOM     17  C   LIG A   1      -4.510  -2.709 129.043  0.00  0.00    +0.011 A 
ATOM     18  O   LIG A   1      -3.321  -4.135 132.200  0.00  0.00    -0.453 OA
ATOM     19  C   LIG A   1      -4.322  -4.819 132.982  0.00  0.00    +0.466 C 
ATOM     20  O   LIG A   1      -5.648  -4.736 132.417  0.00  0.00    -0.453 OA
ENDBRANCH   9  12
BRANCH   3  21
ATOM     21  O   LIG A   1      -5.117  -1.682 124.380  0.00  0.00    -0.489 OA
ATOM     22  C   LIG A   1      -5.001  -2.849 123.575  0.00  0.00    +0.277 C 
ENDBRANCH   3  21
BRANCH   6  23
ATOM     23  O   LIG A   1      -9.157   1.268 124.227  0.00  0.00    -0.372 OA
ATOM     24  C   LIG A   1     -10.154   1.303 123.209  0.00  0.00    +0.195 C 
ENDBRANCH   6  23
BRANCH   1  25
ATOM     25  C   LIG A   1      -9.276  -2.663 126.143  0.00  0.00    +0.041 C 
BRANCH  25  26
ATOM     26  C   LIG A   1      -8.862  -3.506 124.965  0.00  0.00    -0.034 C 
ATOM     27  C   LIG A   1      -9.437  -3.448 123.756  0.00  0.00    +0.004 C 
ENDBRANCH  25  26
ENDBRANCH   1  25
TORSDOF 5
ENDMDL
MODEL 6
REMARK VINA RESULT:      -7.0      3.453      4.646
REMARK  Name = NuBBE_2284
REMARK  8 active torsions:
REMARK  status: ('A' for Active; 'I' for Inactive)
REMARK    1  A    between atoms: C_1  and  C_2
REMARK    2  A    between atoms: C_1  and  C_4
REMARK    3  A    between atoms: C_6  and  O_7
REMARK    4  A    between atoms: O_7  and  C_8
REMARK    5  A    between atoms: C_11  and  O_14
REMARK    6  A    between atoms: O_14  and  C_15
REMARK    7  A    between atoms: C_17  and  C_22
REMARK    8  A    between atoms: C_19  and  C_21
REMARK                            x       y       z     vdW  Elec       q    Type
REMARK                         _______ _______ _______ _____ _____    ______ ____
ROOT
ATOM      1  C   LIG A   1      -6.551  -1.918 125.335  0.00  0.00    +0.044 C 
ATOM      2  C   LIG A   1      -6.542  -0.420 125.561  0.00  0.00    +0.150 C 
ATOM      3  C   LIG A   1      -7.313   0.481 124.941  0.00  0.00    +0.203 C 
ATOM      4  C   LIG A   1      -8.230   0.013 123.843  0.00  0.00    +0.229 C 
ATOM      5  O   LIG A   1      -8.870   0.831 123.174  0.00  0.00    -0.286 OA
ATOM      6  C   LIG A   1      -8.290  -1.500 123.520  0.00  0.00    +0.193 C 
ATOM      7  C   LIG A   1      -7.926  -2.319 124.767  0.00  0.00    +0.055 C 
ATOM      8  O   LIG A   1      -5.745  -0.058 126.639  0.00  0.00    -0.484 OA
ATOM      9  C   LIG A   1      -5.263  -1.275 127.247  0.00  0.00    +0.207 C 
ATOM     10  C   LIG A   1      -6.239  -2.383 126.788  0.00  0.00    +0.045 C 
ATOM     11  C   LIG A   1      -7.467  -2.530 127.695  0.00  0.00    +0.012 C 
ENDROOT
BRANCH   9  12
ATOM     12  C   LIG A   1      -4.989  -1.090 128.728  0.00  0.00    -0.003 A 
ATOM     13  C   LIG A   1      -4.229  -2.042 129.433  0.00  0.00    +0.056 A 
ATOM     14  C   LIG A   1      -3.884  -1.768 130.742  0.00  0.00    +0.167 A 
ATOM     15  C   LIG A   1      -4.264  -0.604 131.366  0.00  0.00    +0.166 A 
ATOM     16  C   LIG A   1      -5.020   0.347 130.723  0.00  0.00    +0.050 A 
ATOM     17  C   LIG A   1      -5.380   0.099 129.395  0.00  0.00    +0.011 A 
ATOM     18  O   LIG A   1      -3.792  -0.515 132.638  0.00  0.00    -0.453 OA
ATOM     19  C   LIG A   1      -3.041  -1.743 132.732  0.00  0.00    +0.466 C 
ATOM     20  O   LIG A   1      -3.129  -2.563 131.547  0.00  0.00    -0.453 OA
ENDBRANCH   9  12
BRANCH   3  21
ATOM     21  O   LIG A   1      -7.220   1.823 125.308  0.00  0.00    -0.489 OA
ATOM     22  C   LIG A   1      -8.176   2.292 126.251  0.00  0.00    +0.277 C 
ENDBRANCH   3  21
BRANCH   6  23
ATOM     23  O   LIG A   1      -9.552  -1.998 123.070  0.00  0.00    -0.372 OA
ATOM     24  C   LIG A   1      -9.768  -3.380 123.344  0.00  0.00    +0.195 C 
ENDBRANCH   6  23
BRANCH   1  25
ATOM     25  C   LIG A   1      -5.386  -2.314 124.367  0.00  0.00    +0.041 C 
BRANCH  25  26
ATOM     26  C   LIG A   1      -5.334  -3.781 124.026  0.00  0.00    -0.034 C 
ATOM     27  C   LIG A   1      -4.231  -4.423 123.620  0.00  0.00    +0.004 C 
ENDBRANCH  25  26
ENDBRANCH   1  25
TORSDOF 5
ENDMDL
MODEL 7
REMARK VINA RESULT:      -7.0      7.260      9.692
REMARK  Name = NuBBE_2284
REMARK  8 active torsions:
REMARK  status: ('A' for Active; 'I' for Inactive)
REMARK    1  A    between atoms: C_1  and  C_2
REMARK    2  A    between atoms: C_1  and  C_4
REMARK    3  A    between atoms: C_6  and  O_7
REMARK    4  A    between atoms: O_7  and  C_8
REMARK    5  A    between atoms: C_11  and  O_14
REMARK    6  A    between atoms: O_14  and  C_15
REMARK    7  A    between atoms: C_17  and  C_22
REMARK    8  A    between atoms: C_19  and  C_21
REMARK                            x       y       z     vdW  Elec       q    Type
REMARK                         _______ _______ _______ _____ _____    ______ ____
ROOT
ATOM      1  C   LIG A   1      -7.964   4.128 133.611  0.00  0.00    +0.044 C 
ATOM      2  C   LIG A   1      -7.068   5.024 132.781  0.00  0.00    +0.150 C 
ATOM      3  C   LIG A   1      -5.795   4.782 132.444  0.00  0.00    +0.203 C 
ATOM      4  C   LIG A   1      -5.123   3.553 132.997  0.00  0.00    +0.229 C 
ATOM      5  O   LIG A   1      -3.920   3.360 132.800  0.00  0.00    -0.286 OA
ATOM      6  C   LIG A   1      -5.952   2.588 133.879  0.00  0.00    +0.193 C 
ATOM      7  C   LIG A   1      -7.439   2.683 133.510  0.00  0.00    +0.055 C 
ATOM      8  O   LIG A   1      -7.762   6.092 132.230  0.00  0.00    -0.484 OA
ATOM      9  C   LIG A   1      -9.155   5.924 132.569  0.00  0.00    +0.207 C 
ATOM     10  C   LIG A   1      -9.321   4.424 132.906  0.00  0.00    +0.045 C 
ATOM     11  C   LIG A   1      -9.613   3.549 131.679  0.00  0.00    +0.012 C 
ENDROOT
BRANCH   9  12
ATOM     12  C   LIG A   1     -10.065   6.559 131.534  0.00  0.00    -0.003 A 
ATOM     13  C   LIG A   1      -9.532   7.055 130.330  0.00  0.00    +0.056 A 
ATOM     14  C   LIG A   1     -10.407   7.498 129.357  0.00  0.00    +0.167 A 
ATOM     15  C   LIG A   1     -11.770   7.469 129.538  0.00  0.00    +0.166 A 
ATOM     16  C   LIG A   1     -12.335   7.009 130.703  0.00  0.00    +0.050 A 
ATOM     17  C   LIG A   1     -11.473   6.549 131.704  0.00  0.00    +0.011 A 
ATOM     18  O   LIG A   1     -12.450   7.914 128.448  0.00  0.00    -0.453 OA
ATOM     19  C   LIG A   1     -11.360   8.194 127.546  0.00  0.00    +0.466 C 
ATOM     20  O   LIG A   1     -10.059   7.972 128.131  0.00  0.00    -0.453 OA
ENDBRANCH   9  12
BRANCH   3  21
ATOM     21  O   LIG A   1      -5.126   5.688 131.623  0.00  0.00    -0.489 OA
ATOM     22  C   LIG A   1      -4.308   6.653 132.273  0.00  0.00    +0.277 C 
ENDBRANCH   3  21
BRANCH   6  23
ATOM     23  O   LIG A   1      -5.606   1.203 133.792  0.00  0.00    -0.372 OA
ATOM     24  C   LIG A   1      -6.613   0.385 133.203  0.00  0.00    +0.195 C 
ENDBRANCH   6  23
BRANCH   1  25
ATOM     25  C   LIG A   1      -7.991   4.632 135.093  0.00  0.00    +0.041 C 
BRANCH  25  26
ATOM     26  C   LIG A   1      -6.982   5.708 135.402  0.00  0.00    -0.034 C 
ATOM     27  C   LIG A   1      -6.007   5.589 136.312  0.00  0.00    +0.004 C 
ENDBRANCH  25  26
ENDBRANCH   1  25
TORSDOF 5
ENDMDL
MODEL 8
REMARK VINA RESULT:      -7.0      4.888      8.206
REMARK  Name = NuBBE_2284
REMARK  8 active torsions:
REMARK  status: ('A' for Active; 'I' for Inactive)
REMARK    1  A    between atoms: C_1  and  C_2
REMARK    2  A    between atoms: C_1  and  C_4
REMARK    3  A    between atoms: C_6  and  O_7
REMARK    4  A    between atoms: O_7  and  C_8
REMARK    5  A    between atoms: C_11  and  O_14
REMARK    6  A    between atoms: O_14  and  C_15
REMARK    7  A    between atoms: C_17  and  C_22
REMARK    8  A    between atoms: C_19  and  C_21
REMARK                            x       y       z     vdW  Elec       q    Type
REMARK                         _______ _______ _______ _____ _____    ______ ____
ROOT
ATOM      1  C   LIG A   1      -6.933  -1.991 130.622  0.00  0.00    +0.044 C 
ATOM      2  C   LIG A   1      -5.568  -2.008 129.966  0.00  0.00    +0.150 C 
ATOM      3  C   LIG A   1      -4.438  -2.494 130.494  0.00  0.00    +0.203 C 
ATOM      4  C   LIG A   1      -4.465  -3.004 131.911  0.00  0.00    +0.229 C 
ATOM      5  O   LIG A   1      -3.419  -3.353 132.466  0.00  0.00    -0.286 OA
ATOM      6  C   LIG A   1      -5.811  -3.002 132.675  0.00  0.00    +0.193 C 
ATOM      7  C   LIG A   1      -6.979  -3.107 131.684  0.00  0.00    +0.055 C 
ATOM      8  O   LIG A   1      -5.621  -1.609 128.637  0.00  0.00    -0.484 OA
ATOM      9  C   LIG A   1      -7.010  -1.401 128.304  0.00  0.00    +0.207 C 
ATOM     10  C   LIG A   1      -7.813  -2.202 129.355  0.00  0.00    +0.045 C 
ATOM     11  C   LIG A   1      -8.039  -3.669 128.965  0.00  0.00    +0.012 C 
ENDROOT
BRANCH   9  12
ATOM     12  C   LIG A   1      -7.274  -1.635 126.828  0.00  0.00    -0.003 A 
ATOM     13  C   LIG A   1      -8.455  -1.155 126.234  0.00  0.00    +0.056 A 
ATOM     14  C   LIG A   1      -8.593  -1.266 124.864  0.00  0.00    +0.167 A 
ATOM     15  C   LIG A   1      -7.617  -1.830 124.078  0.00  0.00    +0.166 A 
ATOM     16  C   LIG A   1      -6.454  -2.327 124.616  0.00  0.00    +0.050 A 
ATOM     17  C   LIG A   1      -6.285  -2.224 126.000  0.00  0.00    +0.011 A 
ATOM     18  O   LIG A   1      -7.933  -1.808 122.756  0.00  0.00    -0.453 OA
ATOM     19  C   LIG A   1      -9.207  -1.133 122.795  0.00  0.00    +0.466 C 
ATOM     20  O   LIG A   1      -9.652  -0.822 124.134  0.00  0.00    -0.453 OA
ENDBRANCH   9  12
BRANCH   3  21
ATOM     21  O   LIG A   1      -3.272  -2.485 129.730  0.00  0.00    -0.489 OA
ATOM     22  C   LIG A   1      -2.941  -3.695 129.060  0.00  0.00    +0.277 C 
ENDBRANCH   3  21
BRANCH   6  23
ATOM     23  O   LIG A   1      -5.997  -4.056 133.624  0.00  0.00    -0.372 OA
ATOM     24  C   LIG A   1      -5.973  -3.629 134.983  0.00  0.00    +0.195 C 
ENDBRANCH   6  23
BRANCH   1  25
ATOM     25  C   LIG A   1      -7.200  -0.582 131.252  0.00  0.00    +0.041 C 
BRANCH  25  26
ATOM     26  C   LIG A   1      -8.623  -0.360 131.695  0.00  0.00    -0.034 C 
ATOM     27  C   LIG A   1      -9.211   0.841 131.772  0.00  0.00    +0.004 C 
ENDBRANCH  25  26
ENDBRANCH   1  25
TORSDOF 5
ENDMDL
MODEL 9
REMARK VINA RESULT:      -6.9      5.707      7.665
REMARK  Name = NuBBE_2284
REMARK  8 active torsions:
REMARK  status: ('A' for Active; 'I' for Inactive)
REMARK    1  A    between atoms: C_1  and  C_2
REMARK    2  A    between atoms: C_1  and  C_4
REMARK    3  A    between atoms: C_6  and  O_7
REMARK    4  A    between atoms: O_7  and  C_8
REMARK    5  A    between atoms: C_11  and  O_14
REMARK    6  A    between atoms: O_14  and  C_15
REMARK    7  A    between atoms: C_17  and  C_22
REMARK    8  A    between atoms: C_19  and  C_21
REMARK                            x       y       z     vdW  Elec       q    Type
REMARK                         _______ _______ _______ _____ _____    ______ ____
ROOT
ATOM      1  C   LIG A   1      -7.232  -1.984 130.093  0.00  0.00    +0.044 C 
ATOM      2  C   LIG A   1      -7.472  -1.994 131.588  0.00  0.00    +0.150 C 
ATOM      3  C   LIG A   1      -6.879  -2.794 132.482  0.00  0.00    +0.203 C 
ATOM      4  C   LIG A   1      -5.939  -3.860 131.986  0.00  0.00    +0.229 C 
ATOM      5  O   LIG A   1      -5.464  -4.686 132.771  0.00  0.00    -0.286 OA
ATOM      6  C   LIG A   1      -5.650  -3.946 130.467  0.00  0.00    +0.193 C 
ATOM      7  C   LIG A   1      -5.833  -2.566 129.818  0.00  0.00    +0.055 C 
ATOM      8  O   LIG A   1      -8.277  -0.939 131.997  0.00  0.00    -0.484 OA
ATOM      9  C   LIG A   1      -8.536  -0.119 130.837  0.00  0.00    +0.207 C 
ATOM     10  C   LIG A   1      -7.412  -0.459 129.830  0.00  0.00    +0.045 C 
ATOM     11  C   LIG A   1      -6.144   0.381 130.022  0.00  0.00    +0.012 C 
ENDROOT
BRANCH   9  12
ATOM     12  C   LIG A   1      -8.781   1.329 131.218  0.00  0.00    -0.003 A 
ATOM     13  C   LIG A   1      -9.273   2.239 130.264  0.00  0.00    +0.056 A 
ATOM     14  C   LIG A   1      -9.614   3.510 130.684  0.00  0.00    +0.167 A 
ATOM     15  C   LIG A   1      -9.485   3.902 131.995  0.00  0.00    +0.166 A 
ATOM     16  C   LIG A   1      -8.995   3.052 132.958  0.00  0.00    +0.050 A 
ATOM     17  C   LIG A   1      -8.645   1.758 132.563  0.00  0.00    +0.011 A 
ATOM     18  O   LIG A   1      -9.910   5.176 132.204  0.00  0.00    -0.453 OA
ATOM     19  C   LIG A   1     -10.356   5.531 130.879  0.00  0.00    +0.466 C 
ATOM     20  O   LIG A   1     -10.133   4.493 129.901  0.00  0.00    -0.453 OA
ENDBRANCH   9  12
BRANCH   3  21
ATOM     21  O   LIG A   1      -7.172  -2.635 133.836  0.00  0.00    -0.489 OA
ATOM     22  C   LIG A   1      -8.261  -3.396 134.344  0.00  0.00    +0.277 C 
ENDBRANCH   3  21
BRANCH   6  23
ATOM     23  O   LIG A   1      -4.341  -4.390 130.100  0.00  0.00    -0.372 OA
ATOM     24  C   LIG A   1      -3.543  -3.396 129.464  0.00  0.00    +0.195 C 
ENDBRANCH   6  23
BRANCH   1  25
ATOM     25  C   LIG A   1      -8.353  -2.805 129.370  0.00  0.00    +0.041 C 
BRANCH  25  26
ATOM     26  C   LIG A   1      -8.161  -2.941 127.882  0.00  0.00    -0.034 C 
ATOM     27  C   LIG A   1      -8.947  -3.676 127.084  0.00  0.00    +0.004 C 
ENDBRANCH  25  26
ENDBRANCH   1  25
TORSDOF 5
ENDMDL
