MODEL 1
REMARK VINA RESULT:      -5.7      0.000      0.000
REMARK  Name = NuBBE_2176
REMARK  7 active torsions:
REMARK  status: ('A' for Active; 'I' for Inactive)
REMARK    1  A    between atoms: O_1  and  C_2
REMARK    2  A    between atoms: O_1  and  C_3
REMARK    3  A    between atoms: C_4  and  O_5
REMARK    4  A    between atoms: O_5  and  C_6
REMARK    5  A    between atoms: C_8  and  O_14
REMARK    6  A    between atoms: C_9  and  C_11
REMARK    7  A    between atoms: C_11  and  C_12
REMARK                            x       y       z     vdW  Elec       q    Type
REMARK                         _______ _______ _______ _____ _____    ______ ____
ROOT
ATOM      1  C   LIG A   1     -10.661   7.849 129.272  0.00  0.00    +0.162 A 
ATOM      2  C   LIG A   1     -11.900   7.514 129.844  0.00  0.00    +0.165 A 
ATOM      3  C   LIG A   1     -11.935   6.827 131.069  0.00  0.00    +0.095 A 
ATOM      4  C   LIG A   1     -10.747   6.413 131.678  0.00  0.00    +0.124 A 
ATOM      5  C   LIG A   1      -9.510   6.670 131.082  0.00  0.00    +0.001 A 
ATOM      6  C   LIG A   1      -9.486   7.413 129.890  0.00  0.00    +0.057 A 
ENDROOT
BRANCH   1   7
ATOM      7  O   LIG A   1     -10.668   8.625 128.149  0.00  0.00    -0.491 OA
ATOM      8  C   LIG A   1     -10.713   7.991 126.884  0.00  0.00    +0.277 C 
ENDBRANCH   1   7
BRANCH   2   9
ATOM      9  O   LIG A   1     -13.135   7.834 129.325  0.00  0.00    -0.491 OA
ATOM     10  C   LIG A   1     -13.706   6.864 128.446  0.00  0.00    +0.277 C 
ENDBRANCH   2   9
BRANCH   4  11
ATOM     11  O   LIG A   1     -10.777   5.739 132.866  0.00  0.00    -0.506 OA
ATOM     12  H   LIG A   1     -10.374   4.864 132.747  0.00  0.00    +0.292 HD
ENDBRANCH   4  11
BRANCH   5  13
ATOM     13  C   LIG A   1      -8.196   6.204 131.669  0.00  0.00    +0.065 C 
BRANCH  13  14
ATOM     14  C   LIG A   1      -7.026   6.981 131.124  0.00  0.00    -0.030 C 
ATOM     15  C   LIG A   1      -5.732   6.667 131.343  0.00  0.00    +0.004 C 
ENDBRANCH  13  14
ENDBRANCH   5  13
TORSDOF 5
ENDMDL
MODEL 2
REMARK VINA RESULT:      -5.4      1.896      2.409
REMARK  Name = NuBBE_2176
REMARK  7 active torsions:
REMARK  status: ('A' for Active; 'I' for Inactive)
REMARK    1  A    between atoms: O_1  and  C_2
REMARK    2  A    between atoms: O_1  and  C_3
REMARK    3  A    between atoms: C_4  and  O_5
REMARK    4  A    between atoms: O_5  and  C_6
REMARK    5  A    between atoms: C_8  and  O_14
REMARK    6  A    between atoms: C_9  and  C_11
REMARK    7  A    between atoms: C_11  and  C_12
REMARK                            x       y       z     vdW  Elec       q    Type
REMARK                         _______ _______ _______ _____ _____    ______ ____
ROOT
ATOM      1  C   LIG A   1     -11.105   7.815 128.655  0.00  0.00    +0.162 A 
ATOM      2  C   LIG A   1     -12.287   8.213 129.301  0.00  0.00    +0.165 A 
ATOM      3  C   LIG A   1     -12.610   7.664 130.553  0.00  0.00    +0.095 A 
ATOM      4  C   LIG A   1     -11.801   6.673 131.118  0.00  0.00    +0.124 A 
ATOM      5  C   LIG A   1     -10.664   6.212 130.451  0.00  0.00    +0.001 A 
ATOM      6  C   LIG A   1     -10.318   6.814 129.230  0.00  0.00    +0.057 A 
ENDROOT
BRANCH   1   7
ATOM      7  O   LIG A   1     -10.762   8.463 127.503  0.00  0.00    -0.491 OA
ATOM      8  C   LIG A   1     -10.941   7.795 126.267  0.00  0.00    +0.277 C 
ENDBRANCH   1   7
BRANCH   2   9
ATOM      9  O   LIG A   1     -13.181   9.149 128.833  0.00  0.00    -0.491 OA
ATOM     10  C   LIG A   1     -13.289  10.344 129.609  0.00  0.00    +0.277 C 
ENDBRANCH   2   9
BRANCH   4  11
ATOM     11  O   LIG A   1     -12.115   6.133 132.333  0.00  0.00    -0.506 OA
ATOM     12  H   LIG A   1     -12.763   6.704 132.777  0.00  0.00    +0.292 HD
ENDBRANCH   4  11
BRANCH   5  13
ATOM     13  C   LIG A   1      -9.778   5.110 130.989  0.00  0.00    +0.065 C 
BRANCH  13  14
ATOM     14  C   LIG A   1     -10.192   3.753 130.483  0.00  0.00    -0.030 C 
ATOM     15  C   LIG A   1      -9.355   2.865 129.907  0.00  0.00    +0.004 C 
ENDBRANCH  13  14
ENDBRANCH   5  13
TORSDOF 5
ENDMDL
MODEL 3
REMARK VINA RESULT:      -5.4      2.026      4.684
REMARK  Name = NuBBE_2176
REMARK  7 active torsions:
REMARK  status: ('A' for Active; 'I' for Inactive)
REMARK    1  A    between atoms: O_1  and  C_2
REMARK    2  A    between atoms: O_1  and  C_3
REMARK    3  A    between atoms: C_4  and  O_5
REMARK    4  A    between atoms: O_5  and  C_6
REMARK    5  A    between atoms: C_8  and  O_14
REMARK    6  A    between atoms: C_9  and  C_11
REMARK    7  A    between atoms: C_11  and  C_12
REMARK                            x       y       z     vdW  Elec       q    Type
REMARK                         _______ _______ _______ _____ _____    ______ ____
ROOT
ATOM      1  C   LIG A   1      -9.606   6.486 130.229  0.00  0.00    +0.162 A 
ATOM      2  C   LIG A   1     -10.055   5.932 131.439  0.00  0.00    +0.165 A 
ATOM      3  C   LIG A   1     -11.346   6.234 131.902  0.00  0.00    +0.095 A 
ATOM      4  C   LIG A   1     -12.151   7.139 131.203  0.00  0.00    +0.124 A 
ATOM      5  C   LIG A   1     -11.688   7.757 130.039  0.00  0.00    +0.001 A 
ATOM      6  C   LIG A   1     -10.421   7.398 129.553  0.00  0.00    +0.057 A 
ENDROOT
BRANCH   1   7
ATOM      7  O   LIG A   1      -8.397   6.070 129.749  0.00  0.00    -0.491 OA
ATOM      8  C   LIG A   1      -8.319   4.819 129.090  0.00  0.00    +0.277 C 
ENDBRANCH   1   7
BRANCH   2   9
ATOM      9  O   LIG A   1      -9.346   5.060 132.234  0.00  0.00    -0.491 OA
ATOM     10  C   LIG A   1      -8.621   5.656 133.312  0.00  0.00    +0.277 C 
ENDBRANCH   2   9
BRANCH   4  11
ATOM     11  O   LIG A   1     -13.406   7.439 131.653  0.00  0.00    -0.506 OA
ATOM     12  H   LIG A   1     -13.848   6.621 131.933  0.00  0.00    +0.292 HD
ENDBRANCH   4  11
BRANCH   5  13
ATOM     13  C   LIG A   1     -12.495   8.778 129.268  0.00  0.00    +0.065 C 
BRANCH  13  14
ATOM     14  C   LIG A   1     -13.214   8.164 128.095  0.00  0.00    -0.030 C 
ATOM     15  C   LIG A   1     -13.773   6.936 128.100  0.00  0.00    +0.004 C 
ENDBRANCH  13  14
ENDBRANCH   5  13
TORSDOF 5
ENDMDL
MODEL 4
REMARK VINA RESULT:      -5.2     10.672     11.066
REMARK  Name = NuBBE_2176
REMARK  7 active torsions:
REMARK  status: ('A' for Active; 'I' for Inactive)
REMARK    1  A    between atoms: O_1  and  C_2
REMARK    2  A    between atoms: O_1  and  C_3
REMARK    3  A    between atoms: C_4  and  O_5
REMARK    4  A    between atoms: O_5  and  C_6
REMARK    5  A    between atoms: C_8  and  O_14
REMARK    6  A    between atoms: C_9  and  C_11
REMARK    7  A    between atoms: C_11  and  C_12
REMARK                            x       y       z     vdW  Elec       q    Type
REMARK                         _______ _______ _______ _____ _____    ______ ____
ROOT
ATOM      1  C   LIG A   1      -7.511   0.098 124.325  0.00  0.00    +0.162 A 
ATOM      2  C   LIG A   1      -8.778  -0.472 124.114  0.00  0.00    +0.165 A 
ATOM      3  C   LIG A   1      -8.939  -1.862 124.231  0.00  0.00    +0.095 A 
ATOM      4  C   LIG A   1      -7.834  -2.681 124.481  0.00  0.00    +0.124 A 
ATOM      5  C   LIG A   1      -6.556  -2.135 124.617  0.00  0.00    +0.001 A 
ATOM      6  C   LIG A   1      -6.418  -0.739 124.561  0.00  0.00    +0.057 A 
ENDROOT
BRANCH   1   7
ATOM      7  O   LIG A   1      -7.420   1.460 124.328  0.00  0.00    -0.491 OA
ATOM      8  C   LIG A   1      -6.948   2.114 123.164  0.00  0.00    +0.277 C 
ENDBRANCH   1   7
BRANCH   2   9
ATOM      9  O   LIG A   1      -9.932   0.221 123.826  0.00  0.00    -0.491 OA
ATOM     10  C   LIG A   1     -10.221   0.393 122.438  0.00  0.00    +0.277 C 
ENDBRANCH   2   9
BRANCH   4  11
ATOM     11  O   LIG A   1      -7.987  -4.035 124.591  0.00  0.00    -0.506 OA
ATOM     12  H   LIG A   1      -7.220  -4.475 124.187  0.00  0.00    +0.292 HD
ENDBRANCH   4  11
BRANCH   5  13
ATOM     13  C   LIG A   1      -5.317  -2.975 124.841  0.00  0.00    +0.065 C 
BRANCH  13  14
ATOM     14  C   LIG A   1      -4.773  -3.536 123.553  0.00  0.00    -0.030 C 
ATOM     15  C   LIG A   1      -4.210  -4.756 123.429  0.00  0.00    +0.004 C 
ENDBRANCH  13  14
ENDBRANCH   5  13
TORSDOF 5
ENDMDL
MODEL 5
REMARK VINA RESULT:      -5.1      7.512      9.390
REMARK  Name = NuBBE_2176
REMARK  7 active torsions:
REMARK  status: ('A' for Active; 'I' for Inactive)
REMARK    1  A    between atoms: O_1  and  C_2
REMARK    2  A    between atoms: O_1  and  C_3
REMARK    3  A    between atoms: C_4  and  O_5
REMARK    4  A    between atoms: O_5  and  C_6
REMARK    5  A    between atoms: C_8  and  O_14
REMARK    6  A    between atoms: C_9  and  C_11
REMARK    7  A    between atoms: C_11  and  C_12
REMARK                            x       y       z     vdW  Elec       q    Type
REMARK                         _______ _______ _______ _____ _____    ______ ____
ROOT
ATOM      1  C   LIG A   1      -8.448   2.732 123.598  0.00  0.00    +0.162 A 
ATOM      2  C   LIG A   1      -7.911   3.433 124.691  0.00  0.00    +0.165 A 
ATOM      3  C   LIG A   1      -6.725   4.168 124.528  0.00  0.00    +0.095 A 
ATOM      4  C   LIG A   1      -6.043   4.142 123.308  0.00  0.00    +0.124 A 
ATOM      5  C   LIG A   1      -6.524   3.387 122.235  0.00  0.00    +0.001 A 
ATOM      6  C   LIG A   1      -7.743   2.708 122.392  0.00  0.00    +0.057 A 
ENDROOT
BRANCH   1   7
ATOM      7  O   LIG A   1      -9.664   2.135 123.761  0.00  0.00    -0.491 OA
ATOM      8  C   LIG A   1      -9.987   1.015 122.957  0.00  0.00    +0.277 C 
ENDBRANCH   1   7
BRANCH   2   9
ATOM      9  O   LIG A   1      -8.467   3.506 125.948  0.00  0.00    -0.491 OA
ATOM     10  C   LIG A   1      -7.639   4.084 126.959  0.00  0.00    +0.277 C 
ENDBRANCH   2   9
BRANCH   4  11
ATOM     11  O   LIG A   1      -4.886   4.852 123.147  0.00  0.00    -0.506 OA
ATOM     12  H   LIG A   1      -4.138   4.234 123.103  0.00  0.00    +0.292 HD
ENDBRANCH   4  11
BRANCH   5  13
ATOM     13  C   LIG A   1      -5.804   3.283 120.908  0.00  0.00    +0.065 C 
BRANCH  13  14
ATOM     14  C   LIG A   1      -6.223   4.368 119.951  0.00  0.00    -0.030 C 
ATOM     15  C   LIG A   1      -5.436   5.393 119.566  0.00  0.00    +0.004 C 
ENDBRANCH  13  14
ENDBRANCH   5  13
TORSDOF 5
ENDMDL
MODEL 6
REMARK VINA RESULT:      -5.0     10.726     11.138
REMARK  Name = NuBBE_2176
REMARK  7 active torsions:
REMARK  status: ('A' for Active; 'I' for Inactive)
REMARK    1  A    between atoms: O_1  and  C_2
REMARK    2  A    between atoms: O_1  and  C_3
REMARK    3  A    between atoms: C_4  and  O_5
REMARK    4  A    between atoms: O_5  and  C_6
REMARK    5  A    between atoms: C_8  and  O_14
REMARK    6  A    between atoms: C_9  and  C_11
REMARK    7  A    between atoms: C_11  and  C_12
REMARK                            x       y       z     vdW  Elec       q    Type
REMARK                         _______ _______ _______ _____ _____    ______ ____
ROOT
ATOM      1  C   LIG A   1      -8.491  -1.672 124.208  0.00  0.00    +0.162 A 
ATOM      2  C   LIG A   1      -8.564  -0.469 124.931  0.00  0.00    +0.165 A 
ATOM      3  C   LIG A   1      -7.399   0.066 125.505  0.00  0.00    +0.095 A 
ATOM      4  C   LIG A   1      -6.190  -0.631 125.422  0.00  0.00    +0.124 A 
ATOM      5  C   LIG A   1      -6.118  -1.866 124.773  0.00  0.00    +0.001 A 
ATOM      6  C   LIG A   1      -7.276  -2.359 124.150  0.00  0.00    +0.057 A 
ENDROOT
BRANCH   1   7
ATOM      7  O   LIG A   1      -9.617  -2.093 123.560  0.00  0.00    -0.491 OA
ATOM      8  C   LIG A   1      -9.789  -3.479 123.325  0.00  0.00    +0.277 C 
ENDBRANCH   1   7
BRANCH   2   9
ATOM      9  O   LIG A   1      -9.698   0.289 125.113  0.00  0.00    -0.491 OA
ATOM     10  C   LIG A   1      -9.681   1.584 124.509  0.00  0.00    +0.277 C 
ENDBRANCH   2   9
BRANCH   4  11
ATOM     11  O   LIG A   1      -5.055  -0.117 125.984  0.00  0.00    -0.506 OA
ATOM     12  H   LIG A   1      -4.631   0.485 125.350  0.00  0.00    +0.292 HD
ENDBRANCH   4  11
BRANCH   5  13
ATOM     13  C   LIG A   1      -4.850  -2.687 124.694  0.00  0.00    +0.065 C 
BRANCH  13  14
ATOM     14  C   LIG A   1      -4.840  -3.599 123.495  0.00  0.00    -0.030 C 
ATOM     15  C   LIG A   1      -4.274  -4.823 123.470  0.00  0.00    +0.004 C 
ENDBRANCH  13  14
ENDBRANCH   5  13
TORSDOF 5
ENDMDL
MODEL 7
REMARK VINA RESULT:      -5.0      2.500      3.907
REMARK  Name = NuBBE_2176
REMARK  7 active torsions:
REMARK  status: ('A' for Active; 'I' for Inactive)
REMARK    1  A    between atoms: O_1  and  C_2
REMARK    2  A    between atoms: O_1  and  C_3
REMARK    3  A    between atoms: C_4  and  O_5
REMARK    4  A    between atoms: O_5  and  C_6
REMARK    5  A    between atoms: C_8  and  O_14
REMARK    6  A    between atoms: C_9  and  C_11
REMARK    7  A    between atoms: C_11  and  C_12
REMARK                            x       y       z     vdW  Elec       q    Type
REMARK                         _______ _______ _______ _____ _____    ______ ____
ROOT
ATOM      1  C   LIG A   1      -7.331   6.867 131.152  0.00  0.00    +0.162 A 
ATOM      2  C   LIG A   1      -8.654   7.016 130.703  0.00  0.00    +0.165 A 
ATOM      3  C   LIG A   1      -9.702   6.431 131.432  0.00  0.00    +0.095 A 
ATOM      4  C   LIG A   1      -9.426   5.643 132.553  0.00  0.00    +0.124 A 
ATOM      5  C   LIG A   1      -8.111   5.422 132.966  0.00  0.00    +0.001 A 
ATOM      6  C   LIG A   1      -7.076   6.064 132.267  0.00  0.00    +0.057 A 
ENDROOT
BRANCH   1   7
ATOM      7  O   LIG A   1      -6.354   7.554 130.491  0.00  0.00    -0.491 OA
ATOM      8  C   LIG A   1      -5.002   7.191 130.705  0.00  0.00    +0.277 C 
ENDBRANCH   1   7
BRANCH   2   9
ATOM      9  O   LIG A   1      -9.049   7.735 129.598  0.00  0.00    -0.491 OA
ATOM     10  C   LIG A   1     -10.453   7.743 129.335  0.00  0.00    +0.277 C 
ENDBRANCH   2   9
BRANCH   4  11
ATOM     11  O   LIG A   1     -10.444   5.067 133.261  0.00  0.00    -0.506 OA
ATOM     12  H   LIG A   1     -10.602   4.172 132.921  0.00  0.00    +0.292 HD
ENDBRANCH   4  11
BRANCH   5  13
ATOM     13  C   LIG A   1      -7.749   4.540 134.142  0.00  0.00    +0.065 C 
BRANCH  13  14
ATOM     14  C   LIG A   1      -7.674   5.317 135.430  0.00  0.00    -0.030 C 
ATOM     15  C   LIG A   1      -6.530   5.599 136.086  0.00  0.00    +0.004 C 
ENDBRANCH  13  14
ENDBRANCH   5  13
TORSDOF 5
ENDMDL
MODEL 8
REMARK VINA RESULT:      -5.0     10.813     11.636
REMARK  Name = NuBBE_2176
REMARK  7 active torsions:
REMARK  status: ('A' for Active; 'I' for Inactive)
REMARK    1  A    between atoms: O_1  and  C_2
REMARK    2  A    between atoms: O_1  and  C_3
REMARK    3  A    between atoms: C_4  and  O_5
REMARK    4  A    between atoms: O_5  and  C_6
REMARK    5  A    between atoms: C_8  and  O_14
REMARK    6  A    between atoms: C_9  and  C_11
REMARK    7  A    between atoms: C_11  and  C_12
REMARK                            x       y       z     vdW  Elec       q    Type
REMARK                         _______ _______ _______ _____ _____    ______ ____
ROOT
ATOM      1  C   LIG A   1      -6.031  -1.381 126.966  0.00  0.00    +0.162 A 
ATOM      2  C   LIG A   1      -7.275  -1.929 127.320  0.00  0.00    +0.165 A 
ATOM      3  C   LIG A   1      -7.927  -2.799 126.431  0.00  0.00    +0.095 A 
ATOM      4  C   LIG A   1      -7.378  -3.059 125.171  0.00  0.00    +0.124 A 
ATOM      5  C   LIG A   1      -6.180  -2.461 124.775  0.00  0.00    +0.001 A 
ATOM      6  C   LIG A   1      -5.507  -1.643 125.697  0.00  0.00    +0.057 A 
ENDROOT
BRANCH   1   7
ATOM      7  O   LIG A   1      -5.371  -0.643 127.906  0.00  0.00    -0.491 OA
ATOM      8  C   LIG A   1      -5.435   0.770 127.831  0.00  0.00    +0.277 C 
ENDBRANCH   1   7
BRANCH   2   9
ATOM      9  O   LIG A   1      -7.933  -1.721 128.511  0.00  0.00    -0.491 OA
ATOM     10  C   LIG A   1      -8.052  -2.864 129.360  0.00  0.00    +0.277 C 
ENDBRANCH   2   9
BRANCH   4  11
ATOM     11  O   LIG A   1      -8.013  -3.901 124.301  0.00  0.00    -0.506 OA
ATOM     12  H   LIG A   1      -8.253  -3.409 123.500  0.00  0.00    +0.292 HD
ENDBRANCH   4  11
BRANCH   5  13
ATOM     13  C   LIG A   1      -5.564  -2.667 123.408  0.00  0.00    +0.065 C 
BRANCH  13  14
ATOM     14  C   LIG A   1      -4.334  -3.533 123.468  0.00  0.00    -0.030 C 
ATOM     15  C   LIG A   1      -4.346  -4.882 123.434  0.00  0.00    +0.004 C 
ENDBRANCH  13  14
ENDBRANCH   5  13
TORSDOF 5
ENDMDL
MODEL 9
REMARK VINA RESULT:      -5.0      8.970     10.027
REMARK  Name = NuBBE_2176
REMARK  7 active torsions:
REMARK  status: ('A' for Active; 'I' for Inactive)
REMARK    1  A    between atoms: O_1  and  C_2
REMARK    2  A    between atoms: O_1  and  C_3
REMARK    3  A    between atoms: C_4  and  O_5
REMARK    4  A    between atoms: O_5  and  C_6
REMARK    5  A    between atoms: C_8  and  O_14
REMARK    6  A    between atoms: C_9  and  C_11
REMARK    7  A    between atoms: C_11  and  C_12
REMARK                            x       y       z     vdW  Elec       q    Type
REMARK                         _______ _______ _______ _____ _____    ______ ____
ROOT
ATOM      1  C   LIG A   1      -7.701  -0.318 123.481  0.00  0.00    +0.162 A 
ATOM      2  C   LIG A   1      -8.843  -0.272 124.298  0.00  0.00    +0.165 A 
ATOM      3  C   LIG A   1      -9.345   0.971 124.717  0.00  0.00    +0.095 A 
ATOM      4  C   LIG A   1      -8.669   2.150 124.388  0.00  0.00    +0.124 A 
ATOM      5  C   LIG A   1      -7.489   2.114 123.642  0.00  0.00    +0.001 A 
ATOM      6  C   LIG A   1      -7.034   0.871 123.176  0.00  0.00    +0.057 A 
ENDROOT
BRANCH   1   7
ATOM      7  O   LIG A   1      -7.318  -1.534 122.991  0.00  0.00    -0.491 OA
ATOM      8  C   LIG A   1      -6.134  -2.128 123.490  0.00  0.00    +0.277 C 
ENDBRANCH   1   7
BRANCH   2   9
ATOM      9  O   LIG A   1      -9.573  -1.361 124.718  0.00  0.00    -0.491 OA
ATOM     10  C   LIG A   1      -9.115  -1.987 125.918  0.00  0.00    +0.277 C 
ENDBRANCH   2   9
BRANCH   4  11
ATOM     11  O   LIG A   1      -9.152   3.361 124.800  0.00  0.00    -0.506 OA
ATOM     12  H   LIG A   1      -9.808   3.677 124.157  0.00  0.00    +0.292 HD
ENDBRANCH   4  11
BRANCH   5  13
ATOM     13  C   LIG A   1      -6.691   3.352 123.297  0.00  0.00    +0.065 C 
BRANCH  13  14
ATOM     14  C   LIG A   1      -6.579   3.557 121.809  0.00  0.00    -0.030 C 
ATOM     15  C   LIG A   1      -5.415   3.584 121.127  0.00  0.00    +0.004 C 
ENDBRANCH  13  14
ENDBRANCH   5  13
TORSDOF 5
ENDMDL
