MODEL 1
REMARK VINA RESULT:      -7.0      0.000      0.000
REMARK  Name = NuBBE_2045
REMARK  14 active torsions:
REMARK  status: ('A' for Active; 'I' for Inactive)
REMARK    1  A    between atoms: O_1  and  C_2
REMARK    2  A    between atoms: O_1  and  C_3
REMARK    3  A    between atoms: C_4  and  O_5
REMARK    4  A    between atoms: O_5  and  C_6
REMARK    5  A    between atoms: C_7  and  C_24
REMARK    6  A    between atoms: C_9  and  C_12
REMARK    7  A    between atoms: C_14  and  O_15
REMARK    8  A    between atoms: O_15  and  C_16
REMARK    9  A    between atoms: C_17  and  O_22
REMARK   10  A    between atoms: C_18  and  O_20
REMARK   11  A    between atoms: O_20  and  C_21
REMARK   12  A    between atoms: O_22  and  C_23
REMARK   13  A    between atoms: C_26  and  C_30
REMARK   14  A    between atoms: C_30  and  C_31
REMARK                            x       y       z     vdW  Elec       q    Type
REMARK                         _______ _______ _______ _____ _____    ______ ____
ROOT
ATOM      1  C   LIG A   1      -8.115   0.167 125.096  0.00  0.00    +0.211 C 
ATOM      2  C   LIG A   1      -7.726  -0.994 126.078  0.00  0.00    +0.147 C 
ATOM      3  C   LIG A   1      -7.327  -0.151 127.295  0.00  0.00    +0.060 C 
ATOM      4  C   LIG A   1      -8.488   0.868 127.289  0.00  0.00    +0.158 C 
ATOM      5  O   LIG A   1      -8.920   1.044 125.902  0.00  0.00    -0.337 OA
ATOM      6  C   LIG A   1      -7.111  -0.873 128.621  0.00  0.00    +0.014 C 
ATOM      7  C   LIG A   1      -6.661  -1.805 125.376  0.00  0.00    +0.020 C 
ATOM      8  C   LIG A   1      -6.703  -2.023 124.037  0.00  0.00    -0.002 C 
ATOM      9  C   LIG A   1      -7.868  -1.471 123.265  0.00  0.00    +0.165 C 
ATOM     10  O   LIG A   1      -8.075  -1.863 122.085  0.00  0.00    -0.292 OA
ATOM     11  C   LIG A   1      -8.800  -0.455 123.886  0.00  0.00    +0.147 C 
ENDROOT
BRANCH   4  12
ATOM     12  C   LIG A   1      -8.206   2.159 127.975  0.00  0.00    -0.011 A 
ATOM     13  C   LIG A   1      -8.920   2.561 129.101  0.00  0.00    +0.056 A 
ATOM     14  C   LIG A   1      -8.569   3.731 129.775  0.00  0.00    +0.166 A 
ATOM     15  C   LIG A   1      -7.473   4.506 129.312  0.00  0.00    +0.203 A 
ATOM     16  C   LIG A   1      -6.821   4.136 128.113  0.00  0.00    +0.166 A 
ATOM     17  C   LIG A   1      -7.206   2.965 127.483  0.00  0.00    +0.056 A 
BRANCH  14  18
ATOM     18  O   LIG A   1      -9.220   4.090 130.924  0.00  0.00    -0.491 OA
ATOM     19  C   LIG A   1     -10.451   4.797 130.823  0.00  0.00    +0.277 C 
ENDBRANCH  14  18
BRANCH  16  20
ATOM     20  O   LIG A   1      -5.801   4.905 127.592  0.00  0.00    -0.491 OA
ATOM     21  C   LIG A   1      -5.361   4.542 126.274  0.00  0.00    +0.277 C 
ENDBRANCH  16  20
BRANCH  15  22
ATOM     22  O   LIG A   1      -6.947   5.614 129.934  0.00  0.00    -0.488 OA
ATOM     23  C   LIG A   1      -6.025   5.428 131.001  0.00  0.00    +0.277 C 
ENDBRANCH  15  22
ENDBRANCH   4  12
BRANCH   1  24
ATOM     24  O   LIG A   1      -6.927   0.901 124.695  0.00  0.00    -0.349 OA
ATOM     25  C   LIG A   1      -7.133   2.054 123.889  0.00  0.00    +0.197 C 
ENDBRANCH   1  24
BRANCH   2  26
ATOM     26  O   LIG A   1      -8.767  -1.960 126.370  0.00  0.00    -0.367 OA
ATOM     27  C   LIG A   1      -8.447  -3.333 126.566  0.00  0.00    +0.195 C 
ENDBRANCH   2  26
BRANCH   8  28
ATOM     28  C   LIG A   1      -5.624  -2.723 123.251  0.00  0.00    +0.065 C 
BRANCH  28  29
ATOM     29  C   LIG A   1      -4.956  -3.818 124.033  0.00  0.00    -0.030 C 
ATOM     30  C   LIG A   1      -4.203  -4.787 123.495  0.00  0.00    +0.004 C 
ENDBRANCH  28  29
ENDBRANCH   8  28
TORSDOF 8
ENDMDL
MODEL 2
REMARK VINA RESULT:      -7.0      0.509      2.329
REMARK  Name = NuBBE_2045
REMARK  14 active torsions:
REMARK  status: ('A' for Active; 'I' for Inactive)
REMARK    1  A    between atoms: O_1  and  C_2
REMARK    2  A    between atoms: O_1  and  C_3
REMARK    3  A    between atoms: C_4  and  O_5
REMARK    4  A    between atoms: O_5  and  C_6
REMARK    5  A    between atoms: C_7  and  C_24
REMARK    6  A    between atoms: C_9  and  C_12
REMARK    7  A    between atoms: C_14  and  O_15
REMARK    8  A    between atoms: O_15  and  C_16
REMARK    9  A    between atoms: C_17  and  O_22
REMARK   10  A    between atoms: C_18  and  O_20
REMARK   11  A    between atoms: O_20  and  C_21
REMARK   12  A    between atoms: O_22  and  C_23
REMARK   13  A    between atoms: C_26  and  C_30
REMARK   14  A    between atoms: C_30  and  C_31
REMARK                            x       y       z     vdW  Elec       q    Type
REMARK                         _______ _______ _______ _____ _____    ______ ____
ROOT
ATOM      1  C   LIG A   1      -8.034   0.157 125.207  0.00  0.00    +0.211 C 
ATOM      2  C   LIG A   1      -7.663  -1.021 126.176  0.00  0.00    +0.147 C 
ATOM      3  C   LIG A   1      -7.261  -0.197 127.405  0.00  0.00    +0.060 C 
ATOM      4  C   LIG A   1      -8.409   0.836 127.406  0.00  0.00    +0.158 C 
ATOM      5  O   LIG A   1      -8.833   1.034 126.019  0.00  0.00    -0.337 OA
ATOM      6  C   LIG A   1      -7.059  -0.937 128.723  0.00  0.00    +0.014 C 
ATOM      7  C   LIG A   1      -6.605  -1.835 125.469  0.00  0.00    +0.020 C 
ATOM      8  C   LIG A   1      -6.644  -2.036 124.127  0.00  0.00    -0.002 C 
ATOM      9  C   LIG A   1      -7.798  -1.461 123.357  0.00  0.00    +0.165 C 
ATOM     10  O   LIG A   1      -8.004  -1.836 122.171  0.00  0.00    -0.292 OA
ATOM     11  C   LIG A   1      -8.721  -0.441 123.986  0.00  0.00    +0.147 C 
ENDROOT
BRANCH   4  12
ATOM     12  C   LIG A   1      -8.115   2.115 128.110  0.00  0.00    -0.011 A 
ATOM     13  C   LIG A   1      -7.065   2.941 127.718  0.00  0.00    +0.056 A 
ATOM     14  C   LIG A   1      -6.873   4.176 128.338  0.00  0.00    +0.166 A 
ATOM     15  C   LIG A   1      -7.760   4.590 129.367  0.00  0.00    +0.203 A 
ATOM     16  C   LIG A   1      -8.760   3.698 129.819  0.00  0.00    +0.166 A 
ATOM     17  C   LIG A   1      -8.911   2.486 129.169  0.00  0.00    +0.056 A 
BRANCH  14  18
ATOM     18  O   LIG A   1      -5.890   5.024 127.905  0.00  0.00    -0.491 OA
ATOM     19  C   LIG A   1      -4.540   4.744 128.256  0.00  0.00    +0.277 C 
ENDBRANCH  14  18
BRANCH  16  20
ATOM     20  O   LIG A   1      -9.593   4.034 130.866  0.00  0.00    -0.491 OA
ATOM     21  C   LIG A   1     -10.903   4.490 130.497  0.00  0.00    +0.277 C 
ENDBRANCH  16  20
BRANCH  15  22
ATOM     22  O   LIG A   1      -7.761   5.817 129.987  0.00  0.00    -0.488 OA
ATOM     23  C   LIG A   1      -6.847   6.048 131.051  0.00  0.00    +0.277 C 
ENDBRANCH  15  22
ENDBRANCH   4  12
BRANCH   1  24
ATOM     24  O   LIG A   1      -6.835   0.882 124.820  0.00  0.00    -0.349 OA
ATOM     25  C   LIG A   1      -7.028   2.084 124.086  0.00  0.00    +0.197 C 
ENDBRANCH   1  24
BRANCH   2  26
ATOM     26  O   LIG A   1      -8.717  -1.977 126.451  0.00  0.00    -0.367 OA
ATOM     27  C   LIG A   1      -8.412  -3.351 126.659  0.00  0.00    +0.195 C 
ENDBRANCH   2  26
BRANCH   8  28
ATOM     28  C   LIG A   1      -5.569  -2.739 123.337  0.00  0.00    +0.065 C 
BRANCH  28  29
ATOM     29  C   LIG A   1      -5.117  -4.017 123.986  0.00  0.00    -0.030 C 
ATOM     30  C   LIG A   1      -4.072  -4.749 123.576  0.00  0.00    +0.004 C 
ENDBRANCH  28  29
ENDBRANCH   8  28
TORSDOF 8
ENDMDL
MODEL 3
REMARK VINA RESULT:      -6.7      1.871      2.504
REMARK  Name = NuBBE_2045
REMARK  14 active torsions:
REMARK  status: ('A' for Active; 'I' for Inactive)
REMARK    1  A    between atoms: O_1  and  C_2
REMARK    2  A    between atoms: O_1  and  C_3
REMARK    3  A    between atoms: C_4  and  O_5
REMARK    4  A    between atoms: O_5  and  C_6
REMARK    5  A    between atoms: C_7  and  C_24
REMARK    6  A    between atoms: C_9  and  C_12
REMARK    7  A    between atoms: C_14  and  O_15
REMARK    8  A    between atoms: O_15  and  C_16
REMARK    9  A    between atoms: C_17  and  O_22
REMARK   10  A    between atoms: C_18  and  O_20
REMARK   11  A    between atoms: O_20  and  C_21
REMARK   12  A    between atoms: O_22  and  C_23
REMARK   13  A    between atoms: C_26  and  C_30
REMARK   14  A    between atoms: C_30  and  C_31
REMARK                            x       y       z     vdW  Elec       q    Type
REMARK                         _______ _______ _______ _____ _____    ______ ____
ROOT
ATOM      1  C   LIG A   1      -7.606   0.045 126.024  0.00  0.00    +0.211 C 
ATOM      2  C   LIG A   1      -6.940  -0.940 127.049  0.00  0.00    +0.147 C 
ATOM      3  C   LIG A   1      -5.884   0.005 127.634  0.00  0.00    +0.060 C 
ATOM      4  C   LIG A   1      -6.749   1.272 127.813  0.00  0.00    +0.158 C 
ATOM      5  O   LIG A   1      -7.783   1.257 126.778  0.00  0.00    -0.337 OA
ATOM      6  C   LIG A   1      -5.137  -0.447 128.884  0.00  0.00    +0.014 C 
ATOM      7  C   LIG A   1      -6.480  -2.137 126.248  0.00  0.00    +0.020 C 
ATOM      8  C   LIG A   1      -7.208  -2.616 125.208  0.00  0.00    -0.002 C 
ATOM      9  C   LIG A   1      -8.517  -1.951 124.892  0.00  0.00    +0.165 C 
ATOM     10  O   LIG A   1      -9.331  -2.516 124.112  0.00  0.00    -0.292 OA
ATOM     11  C   LIG A   1      -8.876  -0.614 125.501  0.00  0.00    +0.147 C 
ENDROOT
BRANCH   4  12
ATOM     12  C   LIG A   1      -5.996   2.556 127.860  0.00  0.00    -0.011 A 
ATOM     13  C   LIG A   1      -6.359   3.587 128.723  0.00  0.00    +0.056 A 
ATOM     14  C   LIG A   1      -5.578   4.740 128.809  0.00  0.00    +0.166 A 
ATOM     15  C   LIG A   1      -4.404   4.853 128.018  0.00  0.00    +0.203 A 
ATOM     16  C   LIG A   1      -4.104   3.841 127.076  0.00  0.00    +0.166 A 
ATOM     17  C   LIG A   1      -4.909   2.717 127.032  0.00  0.00    +0.056 A 
BRANCH  14  18
ATOM     18  O   LIG A   1      -5.889   5.722 129.710  0.00  0.00    -0.491 OA
ATOM     19  C   LIG A   1      -5.575   5.517 131.083  0.00  0.00    +0.277 C 
ENDBRANCH  14  18
BRANCH  16  20
ATOM     20  O   LIG A   1      -3.014   3.951 126.237  0.00  0.00    -0.491 OA
ATOM     21  C   LIG A   1      -1.901   3.100 126.550  0.00  0.00    +0.277 C 
ENDBRANCH  16  20
BRANCH  15  22
ATOM     22  O   LIG A   1      -3.485   5.874 128.078  0.00  0.00    -0.488 OA
ATOM     23  C   LIG A   1      -2.464   5.820 129.066  0.00  0.00    +0.277 C 
ENDBRANCH  15  22
ENDBRANCH   4  12
BRANCH   1  24
ATOM     24  O   LIG A   1      -6.687   0.331 124.936  0.00  0.00    -0.349 OA
ATOM     25  C   LIG A   1      -7.046   1.395 124.063  0.00  0.00    +0.197 C 
ENDBRANCH   1  24
BRANCH   2  26
ATOM     26  O   LIG A   1      -7.817  -1.506 128.054  0.00  0.00    -0.367 OA
ATOM     27  C   LIG A   1      -7.637  -2.845 128.501  0.00  0.00    +0.195 C 
ENDBRANCH   2  26
BRANCH   8  28
ATOM     28  C   LIG A   1      -6.763  -3.731 124.295  0.00  0.00    +0.065 C 
BRANCH  28  29
ATOM     29  C   LIG A   1      -5.307  -3.640 123.938  0.00  0.00    -0.030 C 
ATOM     30  C   LIG A   1      -4.528  -4.689 123.643  0.00  0.00    +0.004 C 
ENDBRANCH  28  29
ENDBRANCH   8  28
TORSDOF 8
ENDMDL
MODEL 4
REMARK VINA RESULT:      -6.6      2.869      4.105
REMARK  Name = NuBBE_2045
REMARK  14 active torsions:
REMARK  status: ('A' for Active; 'I' for Inactive)
REMARK    1  A    between atoms: O_1  and  C_2
REMARK    2  A    between atoms: O_1  and  C_3
REMARK    3  A    between atoms: C_4  and  O_5
REMARK    4  A    between atoms: O_5  and  C_6
REMARK    5  A    between atoms: C_7  and  C_24
REMARK    6  A    between atoms: C_9  and  C_12
REMARK    7  A    between atoms: C_14  and  O_15
REMARK    8  A    between atoms: O_15  and  C_16
REMARK    9  A    between atoms: C_17  and  O_22
REMARK   10  A    between atoms: C_18  and  O_20
REMARK   11  A    between atoms: O_20  and  C_21
REMARK   12  A    between atoms: O_22  and  C_23
REMARK   13  A    between atoms: C_26  and  C_30
REMARK   14  A    between atoms: C_30  and  C_31
REMARK                            x       y       z     vdW  Elec       q    Type
REMARK                         _______ _______ _______ _____ _____    ______ ____
ROOT
ATOM      1  C   LIG A   1      -7.152  -0.293 126.455  0.00  0.00    +0.211 C 
ATOM      2  C   LIG A   1      -7.641  -1.784 126.490  0.00  0.00    +0.147 C 
ATOM      3  C   LIG A   1      -7.453  -2.060 127.986  0.00  0.00    +0.060 C 
ATOM      4  C   LIG A   1      -8.041  -0.752 128.561  0.00  0.00    +0.158 C 
ATOM      5  O   LIG A   1      -7.807   0.311 127.583  0.00  0.00    -0.337 OA
ATOM      6  C   LIG A   1      -8.052  -3.341 128.555  0.00  0.00    +0.014 C 
ATOM      7  C   LIG A   1      -6.782  -2.536 125.499  0.00  0.00    +0.020 C 
ATOM      8  C   LIG A   1      -6.387  -1.969 124.330  0.00  0.00    -0.002 C 
ATOM      9  C   LIG A   1      -6.864  -0.579 124.019  0.00  0.00    +0.165 C 
ATOM     10  O   LIG A   1      -6.734  -0.123 122.852  0.00  0.00    -0.292 OA
ATOM     11  C   LIG A   1      -7.501   0.281 125.088  0.00  0.00    +0.147 C 
ENDROOT
BRANCH   4  12
ATOM     12  C   LIG A   1      -7.577  -0.393 129.930  0.00  0.00    -0.011 A 
ATOM     13  C   LIG A   1      -6.748   0.702 130.158  0.00  0.00    +0.056 A 
ATOM     14  C   LIG A   1      -6.407   1.066 131.461  0.00  0.00    +0.166 A 
ATOM     15  C   LIG A   1      -6.918   0.319 132.555  0.00  0.00    +0.203 A 
ATOM     16  C   LIG A   1      -7.678  -0.846 132.302  0.00  0.00    +0.166 A 
ATOM     17  C   LIG A   1      -7.990  -1.163 130.992  0.00  0.00    +0.056 A 
BRANCH  14  18
ATOM     18  O   LIG A   1      -5.655   2.186 131.693  0.00  0.00    -0.491 OA
ATOM     19  C   LIG A   1      -6.314   3.439 131.829  0.00  0.00    +0.277 C 
ENDBRANCH  14  18
BRANCH  16  20
ATOM     20  O   LIG A   1      -8.127  -1.640 133.337  0.00  0.00    -0.491 OA
ATOM     21  C   LIG A   1      -7.768  -3.028 133.257  0.00  0.00    +0.277 C 
ENDBRANCH  16  20
BRANCH  15  22
ATOM     22  O   LIG A   1      -6.758   0.624 133.886  0.00  0.00    -0.488 OA
ATOM     23  C   LIG A   1      -5.552   0.246 134.536  0.00  0.00    +0.277 C 
ENDBRANCH  15  22
ENDBRANCH   4  12
BRANCH   1  24
ATOM     24  O   LIG A   1      -5.719  -0.231 126.690  0.00  0.00    -0.349 OA
ATOM     25  C   LIG A   1      -5.151   1.066 126.812  0.00  0.00    +0.197 C 
ENDBRANCH   1  24
BRANCH   2  26
ATOM     26  O   LIG A   1      -8.996  -2.023 126.033  0.00  0.00    -0.367 OA
ATOM     27  C   LIG A   1      -9.303  -3.169 125.247  0.00  0.00    +0.195 C 
ENDBRANCH   2  26
BRANCH   8  28
ATOM     28  C   LIG A   1      -5.442  -2.611 123.346  0.00  0.00    +0.065 C 
BRANCH  28  29
ATOM     29  C   LIG A   1      -4.580  -3.667 123.977  0.00  0.00    -0.030 C 
ATOM     30  C   LIG A   1      -4.505  -4.938 123.560  0.00  0.00    +0.004 C 
ENDBRANCH  28  29
ENDBRANCH   8  28
TORSDOF 8
ENDMDL
MODEL 5
REMARK VINA RESULT:      -6.5      2.648      8.449
REMARK  Name = NuBBE_2045
REMARK  14 active torsions:
REMARK  status: ('A' for Active; 'I' for Inactive)
REMARK    1  A    between atoms: O_1  and  C_2
REMARK    2  A    between atoms: O_1  and  C_3
REMARK    3  A    between atoms: C_4  and  O_5
REMARK    4  A    between atoms: O_5  and  C_6
REMARK    5  A    between atoms: C_7  and  C_24
REMARK    6  A    between atoms: C_9  and  C_12
REMARK    7  A    between atoms: C_14  and  O_15
REMARK    8  A    between atoms: O_15  and  C_16
REMARK    9  A    between atoms: C_17  and  O_22
REMARK   10  A    between atoms: C_18  and  O_20
REMARK   11  A    between atoms: O_20  and  C_21
REMARK   12  A    between atoms: O_22  and  C_23
REMARK   13  A    between atoms: C_26  and  C_30
REMARK   14  A    between atoms: C_30  and  C_31
REMARK                            x       y       z     vdW  Elec       q    Type
REMARK                         _______ _______ _______ _____ _____    ______ ____
ROOT
ATOM      1  C   LIG A   1      -7.622   3.736 130.208  0.00  0.00    +0.211 C 
ATOM      2  C   LIG A   1      -8.665   3.413 131.335  0.00  0.00    +0.147 C 
ATOM      3  C   LIG A   1      -9.034   1.986 130.914  0.00  0.00    +0.060 C 
ATOM      4  C   LIG A   1      -7.622   1.439 130.608  0.00  0.00    +0.158 C 
ATOM      5  O   LIG A   1      -6.798   2.559 130.154  0.00  0.00    -0.337 OA
ATOM      6  C   LIG A   1      -9.854   1.145 131.887  0.00  0.00    +0.014 C 
ATOM      7  C   LIG A   1      -9.723   4.490 131.255  0.00  0.00    +0.020 C 
ATOM      8  C   LIG A   1      -9.404   5.777 130.962  0.00  0.00    -0.002 C 
ATOM      9  C   LIG A   1      -7.955   6.120 130.759  0.00  0.00    +0.165 C 
ATOM     10  O   LIG A   1      -7.599   7.328 130.740  0.00  0.00    -0.292 OA
ATOM     11  C   LIG A   1      -6.917   5.034 130.581  0.00  0.00    +0.147 C 
ENDROOT
BRANCH   4  12
ATOM     12  C   LIG A   1      -7.578   0.273 129.681  0.00  0.00    -0.011 A 
ATOM     13  C   LIG A   1      -7.381  -1.025 130.146  0.00  0.00    +0.056 A 
ATOM     14  C   LIG A   1      -7.438  -2.103 129.262  0.00  0.00    +0.166 A 
ATOM     15  C   LIG A   1      -7.705  -1.871 127.887  0.00  0.00    +0.203 A 
ATOM     16  C   LIG A   1      -7.804  -0.541 127.417  0.00  0.00    +0.166 A 
ATOM     17  C   LIG A   1      -7.743   0.493 128.333  0.00  0.00    +0.056 A 
BRANCH  14  18
ATOM     18  O   LIG A   1      -7.321  -3.385 129.727  0.00  0.00    -0.491 OA
ATOM     19  C   LIG A   1      -6.056  -3.829 130.204  0.00  0.00    +0.277 C 
ENDBRANCH  14  18
BRANCH  16  20
ATOM     20  O   LIG A   1      -7.988  -0.273 126.076  0.00  0.00    -0.491 OA
ATOM     21  C   LIG A   1      -9.126   0.542 125.756  0.00  0.00    +0.277 C 
ENDBRANCH  16  20
BRANCH  15  22
ATOM     22  O   LIG A   1      -7.897  -2.837 126.928  0.00  0.00    -0.488 OA
ATOM     23  C   LIG A   1      -9.178  -3.443 126.812  0.00  0.00    +0.277 C 
ENDBRANCH  15  22
ENDBRANCH   4  12
BRANCH   1  24
ATOM     24  O   LIG A   1      -8.294   3.864 128.926  0.00  0.00    -0.349 OA
ATOM     25  C   LIG A   1      -7.463   4.052 127.788  0.00  0.00    +0.197 C 
ENDBRANCH   1  24
BRANCH   2  26
ATOM     26  O   LIG A   1      -8.180   3.497 132.698  0.00  0.00    -0.367 OA
ATOM     27  C   LIG A   1      -9.068   3.815 133.764  0.00  0.00    +0.195 C 
ENDBRANCH   2  26
BRANCH   8  28
ATOM     28  C   LIG A   1     -10.410   6.880 130.755  0.00  0.00    +0.065 C 
BRANCH  28  29
ATOM     29  C   LIG A   1     -11.731   6.588 131.408  0.00  0.00    -0.030 C 
ATOM     30  C   LIG A   1     -12.814   7.371 131.316  0.00  0.00    +0.004 C 
ENDBRANCH  28  29
ENDBRANCH   8  28
TORSDOF 8
ENDMDL
MODEL 6
REMARK VINA RESULT:      -6.5      3.014      3.869
REMARK  Name = NuBBE_2045
REMARK  14 active torsions:
REMARK  status: ('A' for Active; 'I' for Inactive)
REMARK    1  A    between atoms: O_1  and  C_2
REMARK    2  A    between atoms: O_1  and  C_3
REMARK    3  A    between atoms: C_4  and  O_5
REMARK    4  A    between atoms: O_5  and  C_6
REMARK    5  A    between atoms: C_7  and  C_24
REMARK    6  A    between atoms: C_9  and  C_12
REMARK    7  A    between atoms: C_14  and  O_15
REMARK    8  A    between atoms: O_15  and  C_16
REMARK    9  A    between atoms: C_17  and  O_22
REMARK   10  A    between atoms: C_18  and  O_20
REMARK   11  A    between atoms: O_20  and  C_21
REMARK   12  A    between atoms: O_22  and  C_23
REMARK   13  A    between atoms: C_26  and  C_30
REMARK   14  A    between atoms: C_30  and  C_31
REMARK                            x       y       z     vdW  Elec       q    Type
REMARK                         _______ _______ _______ _____ _____    ______ ____
ROOT
ATOM      1  C   LIG A   1      -7.062  -0.363 126.422  0.00  0.00    +0.211 C 
ATOM      2  C   LIG A   1      -7.615  -1.832 126.441  0.00  0.00    +0.147 C 
ATOM      3  C   LIG A   1      -7.369  -2.159 127.918  0.00  0.00    +0.060 C 
ATOM      4  C   LIG A   1      -7.871  -0.844 128.556  0.00  0.00    +0.158 C 
ATOM      5  O   LIG A   1      -7.635   0.235 127.597  0.00  0.00    -0.337 OA
ATOM      6  C   LIG A   1      -7.999  -3.429 128.481  0.00  0.00    +0.014 C 
ATOM      7  C   LIG A   1      -6.839  -2.592 125.390  0.00  0.00    +0.020 C 
ATOM      8  C   LIG A   1      -6.473  -2.010 124.219  0.00  0.00    -0.002 C 
ATOM      9  C   LIG A   1      -6.901  -0.591 123.969  0.00  0.00    +0.165 C 
ATOM     10  O   LIG A   1      -6.805  -0.108 122.809  0.00  0.00    -0.292 OA
ATOM     11  C   LIG A   1      -7.448   0.265 125.089  0.00  0.00    +0.147 C 
ENDROOT
BRANCH   4  12
ATOM     12  C   LIG A   1      -7.328  -0.545 129.910  0.00  0.00    -0.011 A 
ATOM     13  C   LIG A   1      -7.911  -1.063 131.064  0.00  0.00    +0.056 A 
ATOM     14  C   LIG A   1      -7.324  -0.840 132.309  0.00  0.00    +0.166 A 
ATOM     15  C   LIG A   1      -6.121  -0.089 132.394  0.00  0.00    +0.203 A 
ATOM     16  C   LIG A   1      -5.596   0.511 131.225  0.00  0.00    +0.166 A 
ATOM     17  C   LIG A   1      -6.215   0.257 130.014  0.00  0.00    +0.056 A 
BRANCH  14  18
ATOM     18  O   LIG A   1      -7.852  -1.409 133.436  0.00  0.00    -0.491 OA
ATOM     19  C   LIG A   1      -7.843  -2.827 133.556  0.00  0.00    +0.277 C 
ENDBRANCH  14  18
BRANCH  16  20
ATOM     20  O   LIG A   1      -4.472   1.309 131.279  0.00  0.00    -0.491 OA
ATOM     21  C   LIG A   1      -4.256   2.154 130.139  0.00  0.00    +0.277 C 
ENDBRANCH  16  20
BRANCH  15  22
ATOM     22  O   LIG A   1      -5.375   0.116 133.531  0.00  0.00    -0.488 OA
ATOM     23  C   LIG A   1      -4.473  -0.899 133.951  0.00  0.00    +0.277 C 
ENDBRANCH  15  22
ENDBRANCH   4  12
BRANCH   1  24
ATOM     24  O   LIG A   1      -5.618  -0.371 126.590  0.00  0.00    -0.349 OA
ATOM     25  C   LIG A   1      -4.967   0.892 126.555  0.00  0.00    +0.197 C 
ENDBRANCH   1  24
BRANCH   2  26
ATOM     26  O   LIG A   1      -8.999  -1.998 126.043  0.00  0.00    -0.367 OA
ATOM     27  C   LIG A   1      -9.404  -3.133 125.285  0.00  0.00    +0.195 C 
ENDBRANCH   2  26
BRANCH   8  28
ATOM     28  C   LIG A   1      -5.606  -2.663 123.174  0.00  0.00    +0.065 C 
BRANCH  28  29
ATOM     29  C   LIG A   1      -4.527  -3.521 123.772  0.00  0.00    -0.030 C 
ATOM     30  C   LIG A   1      -4.365  -4.826 123.518  0.00  0.00    +0.004 C 
ENDBRANCH  28  29
ENDBRANCH   8  28
TORSDOF 8
ENDMDL
MODEL 7
REMARK VINA RESULT:      -6.5      2.462      8.579
REMARK  Name = NuBBE_2045
REMARK  14 active torsions:
REMARK  status: ('A' for Active; 'I' for Inactive)
REMARK    1  A    between atoms: O_1  and  C_2
REMARK    2  A    between atoms: O_1  and  C_3
REMARK    3  A    between atoms: C_4  and  O_5
REMARK    4  A    between atoms: O_5  and  C_6
REMARK    5  A    between atoms: C_7  and  C_24
REMARK    6  A    between atoms: C_9  and  C_12
REMARK    7  A    between atoms: C_14  and  O_15
REMARK    8  A    between atoms: O_15  and  C_16
REMARK    9  A    between atoms: C_17  and  O_22
REMARK   10  A    between atoms: C_18  and  O_20
REMARK   11  A    between atoms: O_20  and  C_21
REMARK   12  A    between atoms: O_22  and  C_23
REMARK   13  A    between atoms: C_26  and  C_30
REMARK   14  A    between atoms: C_30  and  C_31
REMARK                            x       y       z     vdW  Elec       q    Type
REMARK                         _______ _______ _______ _____ _____    ______ ____
ROOT
ATOM      1  C   LIG A   1      -7.781   3.833 130.053  0.00  0.00    +0.211 C 
ATOM      2  C   LIG A   1      -8.734   3.512 131.258  0.00  0.00    +0.147 C 
ATOM      3  C   LIG A   1      -9.163   2.097 130.850  0.00  0.00    +0.060 C 
ATOM      4  C   LIG A   1      -7.791   1.530 130.422  0.00  0.00    +0.158 C 
ATOM      5  O   LIG A   1      -6.987   2.642 129.915  0.00  0.00    -0.337 OA
ATOM      6  C   LIG A   1      -9.915   1.258 131.877  0.00  0.00    +0.014 C 
ATOM      7  C   LIG A   1      -9.774   4.608 131.281  0.00  0.00    +0.020 C 
ATOM      8  C   LIG A   1      -9.456   5.893 130.979  0.00  0.00    -0.002 C 
ATOM      9  C   LIG A   1      -8.023   6.213 130.661  0.00  0.00    +0.165 C 
ATOM     10  O   LIG A   1      -7.646   7.416 130.628  0.00  0.00    -0.292 OA
ATOM     11  C   LIG A   1      -7.024   5.112 130.383  0.00  0.00    +0.147 C 
ENDROOT
BRANCH   4  12
ATOM     12  C   LIG A   1      -7.845   0.378 129.479  0.00  0.00    -0.011 A 
ATOM     13  C   LIG A   1      -7.949   0.562 128.103  0.00  0.00    +0.056 A 
ATOM     14  C   LIG A   1      -7.903  -0.535 127.242  0.00  0.00    +0.166 A 
ATOM     15  C   LIG A   1      -7.742  -1.840 127.776  0.00  0.00    +0.203 A 
ATOM     16  C   LIG A   1      -7.738  -2.018 129.179  0.00  0.00    +0.166 A 
ATOM     17  C   LIG A   1      -7.783  -0.898 129.990  0.00  0.00    +0.056 A 
BRANCH  14  18
ATOM     18  O   LIG A   1      -7.928  -0.352 125.885  0.00  0.00    -0.491 OA
ATOM     19  C   LIG A   1      -9.042   0.316 125.304  0.00  0.00    +0.277 C 
ENDBRANCH  14  18
BRANCH  16  20
ATOM     20  O   LIG A   1      -7.659  -3.278 129.735  0.00  0.00    -0.491 OA
ATOM     21  C   LIG A   1      -6.788  -3.402 130.870  0.00  0.00    +0.277 C 
ENDBRANCH  16  20
BRANCH  15  22
ATOM     22  O   LIG A   1      -7.572  -2.995 127.049  0.00  0.00    -0.488 OA
ATOM     23  C   LIG A   1      -8.707  -3.593 126.436  0.00  0.00    +0.277 C 
ENDBRANCH  15  22
ENDBRANCH   4  12
BRANCH   1  24
ATOM     24  O   LIG A   1      -8.554   3.991 128.833  0.00  0.00    -0.349 OA
ATOM     25  C   LIG A   1      -7.817   4.154 127.629  0.00  0.00    +0.197 C 
ENDBRANCH   1  24
BRANCH   2  26
ATOM     26  O   LIG A   1      -8.136   3.568 132.578  0.00  0.00    -0.367 OA
ATOM     27  C   LIG A   1      -8.925   3.889 133.717  0.00  0.00    +0.195 C 
ENDBRANCH   2  26
BRANCH   8  28
ATOM     28  C   LIG A   1     -10.455   7.017 130.871  0.00  0.00    +0.065 C 
BRANCH  28  29
ATOM     29  C   LIG A   1     -11.776   6.680 131.502  0.00  0.00    -0.030 C 
ATOM     30  C   LIG A   1     -12.874   7.443 131.422  0.00  0.00    +0.004 C 
ENDBRANCH  28  29
ENDBRANCH   8  28
TORSDOF 8
ENDMDL
MODEL 8
REMARK VINA RESULT:      -6.5      3.596      7.107
REMARK  Name = NuBBE_2045
REMARK  14 active torsions:
REMARK  status: ('A' for Active; 'I' for Inactive)
REMARK    1  A    between atoms: O_1  and  C_2
REMARK    2  A    between atoms: O_1  and  C_3
REMARK    3  A    between atoms: C_4  and  O_5
REMARK    4  A    between atoms: O_5  and  C_6
REMARK    5  A    between atoms: C_7  and  C_24
REMARK    6  A    between atoms: C_9  and  C_12
REMARK    7  A    between atoms: C_14  and  O_15
REMARK    8  A    between atoms: O_15  and  C_16
REMARK    9  A    between atoms: C_17  and  O_22
REMARK   10  A    between atoms: C_18  and  O_20
REMARK   11  A    between atoms: O_20  and  C_21
REMARK   12  A    between atoms: O_22  and  C_23
REMARK   13  A    between atoms: C_26  and  C_30
REMARK   14  A    between atoms: C_30  and  C_31
REMARK                            x       y       z     vdW  Elec       q    Type
REMARK                         _______ _______ _______ _____ _____    ______ ____
ROOT
ATOM      1  C   LIG A   1      -5.126  -1.608 129.523  0.00  0.00    +0.211 C 
ATOM      2  C   LIG A   1      -5.999  -2.789 130.076  0.00  0.00    +0.147 C 
ATOM      3  C   LIG A   1      -7.282  -2.529 129.279  0.00  0.00    +0.060 C 
ATOM      4  C   LIG A   1      -6.665  -2.244 127.891  0.00  0.00    +0.158 C 
ATOM      5  O   LIG A   1      -5.343  -1.655 128.103  0.00  0.00    -0.337 OA
ATOM      6  C   LIG A   1      -8.362  -3.605 129.295  0.00  0.00    +0.014 C 
ATOM      7  C   LIG A   1      -6.031  -2.626 131.579  0.00  0.00    +0.020 C 
ATOM      8  C   LIG A   1      -4.945  -2.193 132.268  0.00  0.00    -0.002 C 
ATOM      9  C   LIG A   1      -3.682  -1.918 131.503  0.00  0.00    +0.165 C 
ATOM     10  O   LIG A   1      -2.598  -1.764 132.126  0.00  0.00    -0.292 OA
ATOM     11  C   LIG A   1      -3.693  -1.826 129.993  0.00  0.00    +0.147 C 
ENDROOT
BRANCH   4  12
ATOM     12  C   LIG A   1      -7.516  -1.442 126.968  0.00  0.00    -0.011 A 
ATOM     13  C   LIG A   1      -8.043  -1.987 125.800  0.00  0.00    +0.056 A 
ATOM     14  C   LIG A   1      -8.911  -1.237 125.005  0.00  0.00    +0.166 A 
ATOM     15  C   LIG A   1      -9.262   0.081 125.399  0.00  0.00    +0.203 A 
ATOM     16  C   LIG A   1      -8.642   0.652 126.535  0.00  0.00    +0.166 A 
ATOM     17  C   LIG A   1      -7.790  -0.133 127.290  0.00  0.00    +0.056 A 
BRANCH  14  18
ATOM     18  O   LIG A   1      -9.491  -1.794 123.897  0.00  0.00    -0.491 OA
ATOM     19  C   LIG A   1      -9.353  -3.194 123.682  0.00  0.00    +0.277 C 
ENDBRANCH  14  18
BRANCH  16  20
ATOM     20  O   LIG A   1      -8.900   1.956 126.905  0.00  0.00    -0.491 OA
ATOM     21  C   LIG A   1      -7.840   2.892 126.659  0.00  0.00    +0.277 C 
ENDBRANCH  16  20
BRANCH  15  22
ATOM     22  O   LIG A   1     -10.184   0.891 124.779  0.00  0.00    -0.488 OA
ATOM     23  C   LIG A   1      -9.791   1.616 123.621  0.00  0.00    +0.277 C 
ENDBRANCH  15  22
ENDBRANCH   4  12
BRANCH   1  24
ATOM     24  O   LIG A   1      -5.639  -0.338 130.008  0.00  0.00    -0.349 OA
ATOM     25  C   LIG A   1      -5.006   0.835 129.513  0.00  0.00    +0.197 C 
ENDBRANCH   1  24
BRANCH   2  26
ATOM     26  O   LIG A   1      -5.467  -4.124 129.879  0.00  0.00    -0.367 OA
ATOM     27  C   LIG A   1      -5.567  -5.102 130.908  0.00  0.00    +0.195 C 
ENDBRANCH   2  26
BRANCH   8  28
ATOM     28  C   LIG A   1      -4.934  -1.899 133.747  0.00  0.00    +0.065 C 
BRANCH  28  29
ATOM     29  C   LIG A   1      -5.729  -0.674 134.100  0.00  0.00    -0.030 C 
ATOM     30  C   LIG A   1      -5.560   0.530 133.537  0.00  0.00    +0.004 C 
ENDBRANCH  28  29
ENDBRANCH   8  28
TORSDOF 8
ENDMDL
MODEL 9
REMARK VINA RESULT:      -6.4      2.240      7.941
REMARK  Name = NuBBE_2045
REMARK  14 active torsions:
REMARK  status: ('A' for Active; 'I' for Inactive)
REMARK    1  A    between atoms: O_1  and  C_2
REMARK    2  A    between atoms: O_1  and  C_3
REMARK    3  A    between atoms: C_4  and  O_5
REMARK    4  A    between atoms: O_5  and  C_6
REMARK    5  A    between atoms: C_7  and  C_24
REMARK    6  A    between atoms: C_9  and  C_12
REMARK    7  A    between atoms: C_14  and  O_15
REMARK    8  A    between atoms: O_15  and  C_16
REMARK    9  A    between atoms: C_17  and  O_22
REMARK   10  A    between atoms: C_18  and  O_20
REMARK   11  A    between atoms: O_20  and  C_21
REMARK   12  A    between atoms: O_22  and  C_23
REMARK   13  A    between atoms: C_26  and  C_30
REMARK   14  A    between atoms: C_30  and  C_31
REMARK                            x       y       z     vdW  Elec       q    Type
REMARK                         _______ _______ _______ _____ _____    ______ ____
ROOT
ATOM      1  C   LIG A   1      -6.601   3.266 128.736  0.00  0.00    +0.211 C 
ATOM      2  C   LIG A   1      -7.057   2.787 130.159  0.00  0.00    +0.147 C 
ATOM      3  C   LIG A   1      -8.009   1.662 129.737  0.00  0.00    +0.060 C 
ATOM      4  C   LIG A   1      -7.148   1.001 128.637  0.00  0.00    +0.158 C 
ATOM      5  O   LIG A   1      -6.315   2.043 128.036  0.00  0.00    -0.337 OA
ATOM      6  C   LIG A   1      -8.512   0.712 130.818  0.00  0.00    +0.014 C 
ATOM      7  C   LIG A   1      -7.631   4.002 130.852  0.00  0.00    +0.020 C 
ATOM      8  C   LIG A   1      -7.091   5.236 130.682  0.00  0.00    -0.002 C 
ATOM      9  C   LIG A   1      -5.871   5.363 129.815  0.00  0.00    +0.165 C 
ATOM     10  O   LIG A   1      -5.200   6.430 129.838  0.00  0.00    -0.292 OA
ATOM     11  C   LIG A   1      -5.434   4.227 128.917  0.00  0.00    +0.147 C 
ENDROOT
BRANCH   4  12
ATOM     12  C   LIG A   1      -7.903   0.209 127.627  0.00  0.00    -0.011 A 
ATOM     13  C   LIG A   1      -8.689   0.823 126.655  0.00  0.00    +0.056 A 
ATOM     14  C   LIG A   1      -9.309   0.057 125.667  0.00  0.00    +0.166 A 
ATOM     15  C   LIG A   1      -9.128  -1.351 125.653  0.00  0.00    +0.203 A 
ATOM     16  C   LIG A   1      -8.408  -1.967 126.703  0.00  0.00    +0.166 A 
ATOM     17  C   LIG A   1      -7.811  -1.163 127.658  0.00  0.00    +0.056 A 
BRANCH  14  18
ATOM     18  O   LIG A   1     -10.020   0.662 124.666  0.00  0.00    -0.491 OA
ATOM     19  C   LIG A   1      -9.607   1.945 124.211  0.00  0.00    +0.277 C 
ENDBRANCH  14  18
BRANCH  16  20
ATOM     20  O   LIG A   1      -8.274  -3.338 126.765  0.00  0.00    -0.491 OA
ATOM     21  C   LIG A   1      -8.847  -3.967 127.922  0.00  0.00    +0.277 C 
ENDBRANCH  16  20
BRANCH  15  22
ATOM     22  O   LIG A   1      -9.583  -2.215 124.685  0.00  0.00    -0.488 OA
ATOM     23  C   LIG A   1      -8.831  -2.361 123.488  0.00  0.00    +0.277 C 
ENDBRANCH  15  22
ENDBRANCH   4  12
BRANCH   1  24
ATOM     24  O   LIG A   1      -7.705   3.919 128.051  0.00  0.00    -0.349 OA
ATOM     25  C   LIG A   1      -7.514   4.213 126.674  0.00  0.00    +0.197 C 
ENDBRANCH   1  24
BRANCH   2  26
ATOM     26  O   LIG A   1      -6.004   2.339 131.050  0.00  0.00    -0.367 OA
ATOM     27  C   LIG A   1      -6.090   2.579 132.450  0.00  0.00    +0.195 C 
ENDBRANCH   2  26
BRANCH   8  28
ATOM     28  C   LIG A   1      -7.672   6.507 131.247  0.00  0.00    +0.065 C 
BRANCH  28  29
ATOM     29  C   LIG A   1      -8.945   6.916 130.563  0.00  0.00    -0.030 C 
ATOM     30  C   LIG A   1     -10.174   6.715 131.058  0.00  0.00    +0.004 C 
ENDBRANCH  28  29
ENDBRANCH   8  28
TORSDOF 8
ENDMDL
