MODEL 1
REMARK VINA RESULT:      -8.7      0.000      0.000
REMARK  Name = NuBBE_953
REMARK  12 active torsions:
REMARK  status: ('A' for Active; 'I' for Inactive)
REMARK    1  A    between atoms: C_7  and  O_8
REMARK    2  A    between atoms: C_9  and  C_10
REMARK    3  A    between atoms: C_10  and  C_11
REMARK    4  A    between atoms: C_12  and  C_13
REMARK    5  A    between atoms: C_12  and  C_14
REMARK    6  A    between atoms: C_15  and  O_16
REMARK    7  A    between atoms: N_17  and  C_18
REMARK    8  A    between atoms: C_20  and  O_21
REMARK    9  A    between atoms: C_24  and  C_25
REMARK   10  A    between atoms: C_25  and  C_26
REMARK   11  A    between atoms: C_27  and  C_28
REMARK   12  A    between atoms: C_27  and  C_29
REMARK                            x       y       z     vdW  Elec       q    Type
REMARK                         _______ _______ _______ _____ _____    ______ ____
ROOT
ATOM      1  O   LIG A   1      -9.485  -1.445 124.336  0.00  0.00    -0.286 OA
ATOM      2  C   LIG A   1      -8.891  -0.828 125.208  0.00  0.00    +0.201 A 
ATOM      3  C   LIG A   1      -8.673   0.622 125.023  0.00  0.00    +0.088 A 
ATOM      4  C   LIG A   1      -8.384   1.385 126.160  0.00  0.00    +0.060 A 
ATOM      5  C   LIG A   1      -8.120   2.747 125.965  0.00  0.00    +0.072 A 
ATOM      6  C   LIG A   1      -8.170   3.317 124.687  0.00  0.00    +0.126 A 
ATOM      7  C   LIG A   1      -8.475   2.559 123.551  0.00  0.00    +0.040 A 
ATOM      8  C   LIG A   1      -8.745   1.198 123.740  0.00  0.00    +0.137 A 
ATOM      9  N   LIG A   1      -8.342   0.761 127.423  0.00  0.00    -0.340 N 
ATOM     10  C   LIG A   1      -8.446   1.596 128.621  0.00  0.00    +0.149 C 
ATOM     11  C   LIG A   1      -8.151  -0.639 127.568  0.00  0.00    +0.095 A 
ATOM     12  C   LIG A   1      -7.700  -1.260 128.750  0.00  0.00    +0.141 A 
ATOM     13  C   LIG A   1      -7.481  -2.637 128.813  0.00  0.00    +0.048 A 
ATOM     14  C   LIG A   1      -7.672  -3.432 127.687  0.00  0.00    +0.008 A 
ATOM     15  C   LIG A   1      -8.092  -2.878 126.470  0.00  0.00    -0.031 A 
ATOM     16  C   LIG A   1      -8.362  -1.482 126.441  0.00  0.00    +0.053 A 
ENDROOT
BRANCH   6  17
ATOM     17  O   LIG A   1      -7.928   4.656 124.553  0.00  0.00    -0.506 OA
ATOM     18  H   LIG A   1      -8.365   5.141 125.271  0.00  0.00    +0.292 HD
ENDBRANCH   6  17
BRANCH   8  19
ATOM     19  O   LIG A   1      -9.078   0.447 122.637  0.00  0.00    -0.506 OA
ATOM     20  H   LIG A   1      -9.644   1.005 122.057  0.00  0.00    +0.292 HD
ENDBRANCH   8  19
BRANCH  12  21
ATOM     21  O   LIG A   1      -7.409  -0.530 129.874  0.00  0.00    -0.505 OA
ATOM     22  H   LIG A   1      -6.618  -0.897 130.300  0.00  0.00    +0.292 HD
ENDBRANCH  12  21
BRANCH   7  23
ATOM     23  C   LIG A   1      -8.460   3.170 122.166  0.00  0.00    +0.069 C 
BRANCH  23  24
ATOM     24  C   LIG A   1      -7.076   3.573 121.717  0.00  0.00    -0.023 C 
ATOM     25  C   LIG A   1      -6.697   4.059 120.517  0.00  0.00    -0.079 C 
ATOM     26  C   LIG A   1      -7.624   4.336 119.367  0.00  0.00    +0.038 C 
ATOM     27  C   LIG A   1      -5.257   4.398 120.235  0.00  0.00    +0.038 C 
ENDBRANCH  23  24
ENDBRANCH   7  23
BRANCH  15  28
ATOM     28  C   LIG A   1      -8.181  -3.734 125.213  0.00  0.00    +0.063 C 
BRANCH  28  29
ATOM     29  C   LIG A   1      -6.885  -4.309 124.692  0.00  0.00    -0.024 C 
ATOM     30  C   LIG A   1      -5.857  -3.667 124.099  0.00  0.00    -0.079 C 
ATOM     31  C   LIG A   1      -5.780  -2.182 123.872  0.00  0.00    +0.038 C 
ATOM     32  C   LIG A   1      -4.656  -4.442 123.623  0.00  0.00    +0.038 C 
ENDBRANCH  28  29
ENDBRANCH  15  28
TORSDOF 7
ENDMDL
MODEL 2
REMARK VINA RESULT:      -8.5      7.092      9.201
REMARK  Name = NuBBE_953
REMARK  12 active torsions:
REMARK  status: ('A' for Active; 'I' for Inactive)
REMARK    1  A    between atoms: C_7  and  O_8
REMARK    2  A    between atoms: C_9  and  C_10
REMARK    3  A    between atoms: C_10  and  C_11
REMARK    4  A    between atoms: C_12  and  C_13
REMARK    5  A    between atoms: C_12  and  C_14
REMARK    6  A    between atoms: C_15  and  O_16
REMARK    7  A    between atoms: N_17  and  C_18
REMARK    8  A    between atoms: C_20  and  O_21
REMARK    9  A    between atoms: C_24  and  C_25
REMARK   10  A    between atoms: C_25  and  C_26
REMARK   11  A    between atoms: C_27  and  C_28
REMARK   12  A    between atoms: C_27  and  C_29
REMARK                            x       y       z     vdW  Elec       q    Type
REMARK                         _______ _______ _______ _____ _____    ______ ____
ROOT
ATOM      1  O   LIG A   1      -6.110   4.693 128.896  0.00  0.00    -0.286 OA
ATOM      2  C   LIG A   1      -6.015   5.254 129.979  0.00  0.00    +0.201 A 
ATOM      3  C   LIG A   1      -7.249   5.522 130.745  0.00  0.00    +0.088 A 
ATOM      4  C   LIG A   1      -7.120   5.766 132.117  0.00  0.00    +0.060 A 
ATOM      5  C   LIG A   1      -8.289   6.079 132.823  0.00  0.00    +0.072 A 
ATOM      6  C   LIG A   1      -9.532   6.118 132.180  0.00  0.00    +0.126 A 
ATOM      7  C   LIG A   1      -9.666   5.858 130.811  0.00  0.00    +0.040 A 
ATOM      8  C   LIG A   1      -8.501   5.539 130.102  0.00  0.00    +0.137 A 
ATOM      9  N   LIG A   1      -5.844   5.720 132.714  0.00  0.00    -0.340 N 
ATOM     10  C   LIG A   1      -5.756   5.570 134.169  0.00  0.00    +0.149 C 
ATOM     11  C   LIG A   1      -4.650   5.863 131.958  0.00  0.00    +0.095 A 
ATOM     12  C   LIG A   1      -3.404   6.228 132.505  0.00  0.00    +0.141 A 
ATOM     13  C   LIG A   1      -2.277   6.405 131.700  0.00  0.00    +0.048 A 
ATOM     14  C   LIG A   1      -2.369   6.256 130.319  0.00  0.00    +0.008 A 
ATOM     15  C   LIG A   1      -3.584   5.922 129.704  0.00  0.00    -0.031 A 
ATOM     16  C   LIG A   1      -4.706   5.693 130.546  0.00  0.00    +0.053 A 
ENDROOT
BRANCH   6  17
ATOM     17  O   LIG A   1     -10.647   6.405 132.919  0.00  0.00    -0.506 OA
ATOM     18  H   LIG A   1     -11.074   7.204 132.571  0.00  0.00    +0.292 HD
ENDBRANCH   6  17
BRANCH   8  19
ATOM     19  O   LIG A   1      -8.621   5.249 128.763  0.00  0.00    -0.506 OA
ATOM     20  H   LIG A   1      -9.069   4.376 128.687  0.00  0.00    +0.292 HD
ENDBRANCH   8  19
BRANCH  12  21
ATOM     21  O   LIG A   1      -3.257   6.475 133.847  0.00  0.00    -0.505 OA
ATOM     22  H   LIG A   1      -3.936   7.106 134.133  0.00  0.00    +0.292 HD
ENDBRANCH  12  21
BRANCH   7  23
ATOM     23  C   LIG A   1     -11.004   5.968 130.113  0.00  0.00    +0.069 C 
BRANCH  23  24
ATOM     24  C   LIG A   1     -11.449   7.398 129.920  0.00  0.00    -0.023 C 
ATOM     25  C   LIG A   1     -12.510   7.854 129.223  0.00  0.00    -0.079 C 
ATOM     26  C   LIG A   1     -13.510   6.989 128.509  0.00  0.00    +0.038 C 
ATOM     27  C   LIG A   1     -12.799   9.329 129.123  0.00  0.00    +0.038 C 
ENDBRANCH  23  24
ENDBRANCH   7  23
BRANCH  15  28
ATOM     28  C   LIG A   1      -3.703   5.881 128.186  0.00  0.00    +0.063 C 
BRANCH  28  29
ATOM     29  C   LIG A   1      -2.717   5.002 127.453  0.00  0.00    -0.024 C 
ATOM     30  C   LIG A   1      -2.602   3.657 127.482  0.00  0.00    -0.079 C 
ATOM     31  C   LIG A   1      -3.502   2.729 128.251  0.00  0.00    +0.038 C 
ATOM     32  C   LIG A   1      -1.519   2.974 126.689  0.00  0.00    +0.038 C 
ENDBRANCH  28  29
ENDBRANCH  15  28
TORSDOF 7
ENDMDL
MODEL 3
REMARK VINA RESULT:      -8.1      4.395      6.839
REMARK  Name = NuBBE_953
REMARK  12 active torsions:
REMARK  status: ('A' for Active; 'I' for Inactive)
REMARK    1  A    between atoms: C_7  and  O_8
REMARK    2  A    between atoms: C_9  and  C_10
REMARK    3  A    between atoms: C_10  and  C_11
REMARK    4  A    between atoms: C_12  and  C_13
REMARK    5  A    between atoms: C_12  and  C_14
REMARK    6  A    between atoms: C_15  and  O_16
REMARK    7  A    between atoms: N_17  and  C_18
REMARK    8  A    between atoms: C_20  and  O_21
REMARK    9  A    between atoms: C_24  and  C_25
REMARK   10  A    between atoms: C_25  and  C_26
REMARK   11  A    between atoms: C_27  and  C_28
REMARK   12  A    between atoms: C_27  and  C_29
REMARK                            x       y       z     vdW  Elec       q    Type
REMARK                         _______ _______ _______ _____ _____    ______ ____
ROOT
ATOM      1  O   LIG A   1      -8.175   3.252 127.296  0.00  0.00    -0.286 OA
ATOM      2  C   LIG A   1      -8.045   2.727 128.393  0.00  0.00    +0.201 A 
ATOM      3  C   LIG A   1      -8.664   3.381 129.565  0.00  0.00    +0.088 A 
ATOM      4  C   LIG A   1      -8.875   2.599 130.707  0.00  0.00    +0.060 A 
ATOM      5  C   LIG A   1      -9.407   3.244 131.832  0.00  0.00    +0.072 A 
ATOM      6  C   LIG A   1      -9.732   4.605 131.799  0.00  0.00    +0.126 A 
ATOM      7  C   LIG A   1      -9.536   5.384 130.653  0.00  0.00    +0.040 A 
ATOM      8  C   LIG A   1      -9.010   4.745 129.524  0.00  0.00    +0.137 A 
ATOM      9  N   LIG A   1      -8.525   1.234 130.689  0.00  0.00    -0.340 N 
ATOM     10  C   LIG A   1      -9.106   0.349 131.701  0.00  0.00    +0.149 C 
ATOM     11  C   LIG A   1      -7.594   0.705 129.757  0.00  0.00    +0.095 A 
ATOM     12  C   LIG A   1      -6.904  -0.512 129.928  0.00  0.00    +0.141 A 
ATOM     13  C   LIG A   1      -5.960  -0.952 128.999  0.00  0.00    +0.048 A 
ATOM     14  C   LIG A   1      -5.649  -0.174 127.888  0.00  0.00    +0.008 A 
ATOM     15  C   LIG A   1      -6.276   1.062 127.670  0.00  0.00    -0.031 A 
ATOM     16  C   LIG A   1      -7.273   1.466 128.597  0.00  0.00    +0.053 A 
ENDROOT
BRANCH   6  17
ATOM     17  O   LIG A   1     -10.270   5.181 132.917  0.00  0.00    -0.506 OA
ATOM     18  H   LIG A   1     -10.232   4.555 133.657  0.00  0.00    +0.292 HD
ENDBRANCH   6  17
BRANCH   8  19
ATOM     19  O   LIG A   1      -8.843   5.490 128.380  0.00  0.00    -0.506 OA
ATOM     20  H   LIG A   1      -9.681   5.981 128.219  0.00  0.00    +0.292 HD
ENDBRANCH   8  19
BRANCH  12  21
ATOM     21  O   LIG A   1      -7.096  -1.291 131.041  0.00  0.00    -0.505 OA
ATOM     22  H   LIG A   1      -6.626  -0.898 131.793  0.00  0.00    +0.292 HD
ENDBRANCH  12  21
BRANCH   7  23
ATOM     23  C   LIG A   1      -9.828   6.869 130.649  0.00  0.00    +0.069 C 
BRANCH  23  24
ATOM     24  C   LIG A   1     -11.226   7.191 130.175  0.00  0.00    -0.023 C 
ATOM     25  C   LIG A   1     -11.595   7.900 129.088  0.00  0.00    -0.079 C 
ATOM     26  C   LIG A   1     -10.650   8.496 128.084  0.00  0.00    +0.038 C 
ATOM     27  C   LIG A   1     -13.049   8.137 128.773  0.00  0.00    +0.038 C 
ENDBRANCH  23  24
ENDBRANCH   7  23
BRANCH  15  28
ATOM     28  C   LIG A   1      -5.842   1.961 126.519  0.00  0.00    +0.063 C 
BRANCH  28  29
ATOM     29  C   LIG A   1      -4.357   2.181 126.352  0.00  0.00    -0.024 C 
ATOM     30  C   LIG A   1      -3.522   2.908 127.123  0.00  0.00    -0.079 C 
ATOM     31  C   LIG A   1      -3.917   3.639 128.377  0.00  0.00    +0.038 C 
ATOM     32  C   LIG A   1      -2.064   3.020 126.759  0.00  0.00    +0.038 C 
ENDBRANCH  28  29
ENDBRANCH  15  28
TORSDOF 7
ENDMDL
MODEL 4
REMARK VINA RESULT:      -8.1      4.433      8.696
REMARK  Name = NuBBE_953
REMARK  12 active torsions:
REMARK  status: ('A' for Active; 'I' for Inactive)
REMARK    1  A    between atoms: C_7  and  O_8
REMARK    2  A    between atoms: C_9  and  C_10
REMARK    3  A    between atoms: C_10  and  C_11
REMARK    4  A    between atoms: C_12  and  C_13
REMARK    5  A    between atoms: C_12  and  C_14
REMARK    6  A    between atoms: C_15  and  O_16
REMARK    7  A    between atoms: N_17  and  C_18
REMARK    8  A    between atoms: C_20  and  O_21
REMARK    9  A    between atoms: C_24  and  C_25
REMARK   10  A    between atoms: C_25  and  C_26
REMARK   11  A    between atoms: C_27  and  C_28
REMARK   12  A    between atoms: C_27  and  C_29
REMARK                            x       y       z     vdW  Elec       q    Type
REMARK                         _______ _______ _______ _____ _____    ______ ____
ROOT
ATOM      1  O   LIG A   1      -8.471   5.178 127.997  0.00  0.00    -0.286 OA
ATOM      2  C   LIG A   1      -8.712   4.504 128.988  0.00  0.00    +0.201 A 
ATOM      3  C   LIG A   1      -8.323   3.078 128.983  0.00  0.00    +0.088 A 
ATOM      4  C   LIG A   1      -8.212   2.432 130.219  0.00  0.00    +0.060 A 
ATOM      5  C   LIG A   1      -7.902   1.066 130.200  0.00  0.00    +0.072 A 
ATOM      6  C   LIG A   1      -7.689   0.390 128.992  0.00  0.00    +0.126 A 
ATOM      7  C   LIG A   1      -7.784   1.038 127.756  0.00  0.00    +0.040 A 
ATOM      8  C   LIG A   1      -8.088   2.405 127.768  0.00  0.00    +0.137 A 
ATOM      9  N   LIG A   1      -8.442   3.158 131.405  0.00  0.00    -0.340 N 
ATOM     10  C   LIG A   1      -7.940   2.612 132.669  0.00  0.00    +0.149 C 
ATOM     11  C   LIG A   1      -9.184   4.368 131.419  0.00  0.00    +0.095 A 
ATOM     12  C   LIG A   1      -9.788   4.916 132.569  0.00  0.00    +0.141 A 
ATOM     13  C   LIG A   1     -10.550   6.083 132.507  0.00  0.00    +0.048 A 
ATOM     14  C   LIG A   1     -10.762   6.721 131.288  0.00  0.00    +0.008 A 
ATOM     15  C   LIG A   1     -10.216   6.216 130.099  0.00  0.00    -0.031 A 
ATOM     16  C   LIG A   1      -9.398   5.058 130.192  0.00  0.00    +0.053 A 
ENDROOT
BRANCH   6  17
ATOM     17  O   LIG A   1      -7.365  -0.939 129.030  0.00  0.00    -0.506 OA
ATOM     18  H   LIG A   1      -6.810  -1.118 129.805  0.00  0.00    +0.292 HD
ENDBRANCH   6  17
BRANCH   8  19
ATOM     19  O   LIG A   1      -8.152   3.063 126.563  0.00  0.00    -0.506 OA
ATOM     20  H   LIG A   1      -7.243   3.084 126.187  0.00  0.00    +0.292 HD
ENDBRANCH   8  19
BRANCH  12  21
ATOM     21  O   LIG A   1      -9.692   4.297 133.789  0.00  0.00    -0.505 OA
ATOM     22  H   LIG A   1      -8.862   4.557 134.217  0.00  0.00    +0.292 HD
ENDBRANCH  12  21
BRANCH   7  23
ATOM     23  C   LIG A   1      -7.618   0.284 126.454  0.00  0.00    +0.069 C 
BRANCH  23  24
ATOM     24  C   LIG A   1      -8.670  -0.781 126.255  0.00  0.00    -0.023 C 
ATOM     25  C   LIG A   1      -8.494  -2.069 125.895  0.00  0.00    -0.079 C 
ATOM     26  C   LIG A   1      -7.164  -2.724 125.650  0.00  0.00    +0.038 C 
ATOM     27  C   LIG A   1      -9.669  -2.996 125.727  0.00  0.00    +0.038 C 
ENDBRANCH  23  24
ENDBRANCH   7  23
BRANCH  15  28
ATOM     28  C   LIG A   1     -10.554   6.850 128.756  0.00  0.00    +0.063 C 
BRANCH  28  29
ATOM     29  C   LIG A   1     -11.414   8.092 128.790  0.00  0.00    -0.024 C 
ATOM     30  C   LIG A   1     -12.739   8.206 128.560  0.00  0.00    -0.079 C 
ATOM     31  C   LIG A   1     -13.665   7.060 128.256  0.00  0.00    +0.038 C 
ATOM     32  C   LIG A   1     -13.402   9.557 128.618  0.00  0.00    +0.038 C 
ENDBRANCH  28  29
ENDBRANCH  15  28
TORSDOF 7
ENDMDL
MODEL 5
REMARK VINA RESULT:      -8.0      3.020      5.178
REMARK  Name = NuBBE_953
REMARK  12 active torsions:
REMARK  status: ('A' for Active; 'I' for Inactive)
REMARK    1  A    between atoms: C_7  and  O_8
REMARK    2  A    between atoms: C_9  and  C_10
REMARK    3  A    between atoms: C_10  and  C_11
REMARK    4  A    between atoms: C_12  and  C_13
REMARK    5  A    between atoms: C_12  and  C_14
REMARK    6  A    between atoms: C_15  and  O_16
REMARK    7  A    between atoms: N_17  and  C_18
REMARK    8  A    between atoms: C_20  and  O_21
REMARK    9  A    between atoms: C_24  and  C_25
REMARK   10  A    between atoms: C_25  and  C_26
REMARK   11  A    between atoms: C_27  and  C_28
REMARK   12  A    between atoms: C_27  and  C_29
REMARK                            x       y       z     vdW  Elec       q    Type
REMARK                         _______ _______ _______ _____ _____    ______ ____
ROOT
ATOM      1  O   LIG A   1      -5.182  -0.908 127.819  0.00  0.00    -0.286 OA
ATOM      2  C   LIG A   1      -6.113  -0.768 127.040  0.00  0.00    +0.201 A 
ATOM      3  C   LIG A   1      -6.096   0.389 126.121  0.00  0.00    +0.088 A 
ATOM      4  C   LIG A   1      -6.908   0.326 124.983  0.00  0.00    +0.060 A 
ATOM      5  C   LIG A   1      -6.930   1.452 124.151  0.00  0.00    +0.072 A 
ATOM      6  C   LIG A   1      -6.151   2.579 124.439  0.00  0.00    +0.126 A 
ATOM      7  C   LIG A   1      -5.326   2.638 125.568  0.00  0.00    +0.040 A 
ATOM      8  C   LIG A   1      -5.295   1.513 126.401  0.00  0.00    +0.137 A 
ATOM      9  N   LIG A   1      -7.677  -0.831 124.742  0.00  0.00    -0.340 N 
ATOM     10  C   LIG A   1      -8.190  -1.062 123.390  0.00  0.00    +0.149 C 
ATOM     11  C   LIG A   1      -8.010  -1.746 125.776  0.00  0.00    +0.095 A 
ATOM     12  C   LIG A   1      -9.075  -2.667 125.708  0.00  0.00    +0.141 A 
ATOM     13  C   LIG A   1      -9.384  -3.505 126.780  0.00  0.00    +0.048 A 
ATOM     14  C   LIG A   1      -8.662  -3.425 127.967  0.00  0.00    +0.008 A 
ATOM     15  C   LIG A   1      -7.608  -2.512 128.115  0.00  0.00    -0.031 A 
ATOM     16  C   LIG A   1      -7.273  -1.706 126.993  0.00  0.00    +0.053 A 
ENDROOT
BRANCH   6  17
ATOM     17  O   LIG A   1      -6.190   3.644 123.581  0.00  0.00    -0.506 OA
ATOM     18  H   LIG A   1      -5.926   3.358 122.692  0.00  0.00    +0.292 HD
ENDBRANCH   6  17
BRANCH   8  19
ATOM     19  O   LIG A   1      -4.465   1.544 127.496  0.00  0.00    -0.506 OA
ATOM     20  H   LIG A   1      -4.782   0.861 128.130  0.00  0.00    +0.292 HD
ENDBRANCH   8  19
BRANCH  12  21
ATOM     21  O   LIG A   1      -9.884  -2.743 124.603  0.00  0.00    -0.505 OA
ATOM     22  H   LIG A   1     -10.807  -2.836 124.886  0.00  0.00    +0.292 HD
ENDBRANCH  12  21
BRANCH   7  23
ATOM     23  C   LIG A   1      -4.539   3.886 125.906  0.00  0.00    +0.069 C 
BRANCH  23  24
ATOM     24  C   LIG A   1      -4.980   4.525 127.202  0.00  0.00    -0.023 C 
ATOM     25  C   LIG A   1      -4.211   4.964 128.219  0.00  0.00    -0.079 C 
ATOM     26  C   LIG A   1      -2.709   4.933 128.241  0.00  0.00    +0.038 C 
ATOM     27  C   LIG A   1      -4.827   5.568 129.454  0.00  0.00    +0.038 C 
ENDBRANCH  23  24
ENDBRANCH   7  23
BRANCH  15  28
ATOM     28  C   LIG A   1      -6.903  -2.346 129.456  0.00  0.00    +0.063 C 
BRANCH  28  29
ATOM     29  C   LIG A   1      -6.615  -3.611 130.230  0.00  0.00    -0.024 C 
ATOM     30  C   LIG A   1      -5.447  -4.276 130.353  0.00  0.00    -0.079 C 
ATOM     31  C   LIG A   1      -4.138  -3.843 129.751  0.00  0.00    +0.038 C 
ATOM     32  C   LIG A   1      -5.383  -5.547 131.158  0.00  0.00    +0.038 C 
ENDBRANCH  28  29
ENDBRANCH  15  28
TORSDOF 7
ENDMDL
MODEL 6
REMARK VINA RESULT:      -8.0      5.237      8.274
REMARK  Name = NuBBE_953
REMARK  12 active torsions:
REMARK  status: ('A' for Active; 'I' for Inactive)
REMARK    1  A    between atoms: C_7  and  O_8
REMARK    2  A    between atoms: C_9  and  C_10
REMARK    3  A    between atoms: C_10  and  C_11
REMARK    4  A    between atoms: C_12  and  C_13
REMARK    5  A    between atoms: C_12  and  C_14
REMARK    6  A    between atoms: C_15  and  O_16
REMARK    7  A    between atoms: N_17  and  C_18
REMARK    8  A    between atoms: C_20  and  O_21
REMARK    9  A    between atoms: C_24  and  C_25
REMARK   10  A    between atoms: C_25  and  C_26
REMARK   11  A    between atoms: C_27  and  C_28
REMARK   12  A    between atoms: C_27  and  C_29
REMARK                            x       y       z     vdW  Elec       q    Type
REMARK                         _______ _______ _______ _____ _____    ______ ____
ROOT
ATOM      1  O   LIG A   1      -8.248   3.738 128.068  0.00  0.00    -0.286 OA
ATOM      2  C   LIG A   1      -7.492   4.290 128.854  0.00  0.00    +0.201 A 
ATOM      3  C   LIG A   1      -8.055   4.846 130.102  0.00  0.00    +0.088 A 
ATOM      4  C   LIG A   1      -7.172   5.090 131.160  0.00  0.00    +0.060 A 
ATOM      5  C   LIG A   1      -7.707   5.673 132.316  0.00  0.00    +0.072 A 
ATOM      6  C   LIG A   1      -9.072   5.972 132.410  0.00  0.00    +0.126 A 
ATOM      7  C   LIG A   1      -9.959   5.714 131.359  0.00  0.00    +0.040 A 
ATOM      8  C   LIG A   1      -9.432   5.126 130.203  0.00  0.00    +0.137 A 
ATOM      9  N   LIG A   1      -5.807   4.775 131.011  0.00  0.00    -0.340 N 
ATOM     10  C   LIG A   1      -4.982   4.647 132.215  0.00  0.00    +0.149 C 
ATOM     11  C   LIG A   1      -5.199   4.630 129.736  0.00  0.00    +0.095 A 
ATOM     12  C   LIG A   1      -3.812   4.722 129.502  0.00  0.00    +0.141 A 
ATOM     13  C   LIG A   1      -3.280   4.623 128.216  0.00  0.00    +0.048 A 
ATOM     14  C   LIG A   1      -4.120   4.463 127.118  0.00  0.00    +0.008 A 
ATOM     15  C   LIG A   1      -5.512   4.393 127.273  0.00  0.00    -0.031 A 
ATOM     16  C   LIG A   1      -6.030   4.441 128.595  0.00  0.00    +0.053 A 
ENDROOT
BRANCH   6  17
ATOM     17  O   LIG A   1      -9.547   6.519 133.570  0.00  0.00    -0.506 OA
ATOM     18  H   LIG A   1      -8.812   6.674 134.184  0.00  0.00    +0.292 HD
ENDBRANCH   6  17
BRANCH   8  19
ATOM     19  O   LIG A   1     -10.297   4.836 129.175  0.00  0.00    -0.506 OA
ATOM     20  H   LIG A   1     -10.713   3.966 129.372  0.00  0.00    +0.292 HD
ENDBRANCH   8  19
BRANCH  12  21
ATOM     21  O   LIG A   1      -2.930   4.964 130.525  0.00  0.00    -0.505 OA
ATOM     22  H   LIG A   1      -3.263   4.554 131.339  0.00  0.00    +0.292 HD
ENDBRANCH  12  21
BRANCH   7  23
ATOM     23  C   LIG A   1     -11.419   6.102 131.446  0.00  0.00    +0.069 C 
BRANCH  23  24
ATOM     24  C   LIG A   1     -11.705   7.452 130.831  0.00  0.00    -0.023 C 
ATOM     25  C   LIG A   1     -12.448   7.731 129.740  0.00  0.00    -0.079 C 
ATOM     26  C   LIG A   1     -13.190   6.715 128.918  0.00  0.00    +0.038 C 
ATOM     27  C   LIG A   1     -12.616   9.147 129.256  0.00  0.00    +0.038 C 
ENDBRANCH  23  24
ENDBRANCH   7  23
BRANCH  15  28
ATOM     28  C   LIG A   1      -6.429   4.341 126.057  0.00  0.00    +0.063 C 
BRANCH  28  29
ATOM     29  C   LIG A   1      -5.797   4.639 124.718  0.00  0.00    -0.024 C 
ATOM     30  C   LIG A   1      -5.910   3.953 123.562  0.00  0.00    -0.079 C 
ATOM     31  C   LIG A   1      -6.760   2.728 123.362  0.00  0.00    +0.038 C 
ATOM     32  C   LIG A   1      -5.164   4.411 122.336  0.00  0.00    +0.038 C 
ENDBRANCH  28  29
ENDBRANCH  15  28
TORSDOF 7
ENDMDL
MODEL 7
REMARK VINA RESULT:      -7.8      4.668      8.047
REMARK  Name = NuBBE_953
REMARK  12 active torsions:
REMARK  status: ('A' for Active; 'I' for Inactive)
REMARK    1  A    between atoms: C_7  and  O_8
REMARK    2  A    between atoms: C_9  and  C_10
REMARK    3  A    between atoms: C_10  and  C_11
REMARK    4  A    between atoms: C_12  and  C_13
REMARK    5  A    between atoms: C_12  and  C_14
REMARK    6  A    between atoms: C_15  and  O_16
REMARK    7  A    between atoms: N_17  and  C_18
REMARK    8  A    between atoms: C_20  and  O_21
REMARK    9  A    between atoms: C_24  and  C_25
REMARK   10  A    between atoms: C_25  and  C_26
REMARK   11  A    between atoms: C_27  and  C_28
REMARK   12  A    between atoms: C_27  and  C_29
REMARK                            x       y       z     vdW  Elec       q    Type
REMARK                         _______ _______ _______ _____ _____    ______ ____
ROOT
ATOM      1  O   LIG A   1      -9.327   5.600 128.003  0.00  0.00    -0.286 OA
ATOM      2  C   LIG A   1      -8.615   5.099 128.861  0.00  0.00    +0.201 A 
ATOM      3  C   LIG A   1      -7.528   4.193 128.436  0.00  0.00    +0.088 A 
ATOM      4  C   LIG A   1      -6.484   3.963 129.339  0.00  0.00    +0.060 A 
ATOM      5  C   LIG A   1      -5.491   3.055 128.948  0.00  0.00    +0.072 A 
ATOM      6  C   LIG A   1      -5.535   2.429 127.696  0.00  0.00    +0.126 A 
ATOM      7  C   LIG A   1      -6.570   2.671 126.785  0.00  0.00    +0.040 A 
ATOM      8  C   LIG A   1      -7.563   3.581 127.167  0.00  0.00    +0.137 A 
ATOM      9  N   LIG A   1      -6.490   4.615 130.588  0.00  0.00    -0.340 N 
ATOM     10  C   LIG A   1      -5.237   4.696 131.342  0.00  0.00    +0.149 C 
ATOM     11  C   LIG A   1      -7.677   5.146 131.157  0.00  0.00    +0.095 A 
ATOM     12  C   LIG A   1      -7.842   5.432 132.528  0.00  0.00    +0.141 A 
ATOM     13  C   LIG A   1      -9.053   5.905 133.035  0.00  0.00    +0.048 A 
ATOM     14  C   LIG A   1     -10.150   6.072 132.194  0.00  0.00    +0.008 A 
ATOM     15  C   LIG A   1     -10.067   5.779 130.825  0.00  0.00    -0.031 A 
ATOM     16  C   LIG A   1      -8.810   5.352 130.319  0.00  0.00    +0.053 A 
ENDROOT
BRANCH   6  17
ATOM     17  O   LIG A   1      -4.528   1.570 127.354  0.00  0.00    -0.506 OA
ATOM     18  H   LIG A   1      -3.738   2.075 127.103  0.00  0.00    +0.292 HD
ENDBRANCH   6  17
BRANCH   8  19
ATOM     19  O   LIG A   1      -8.568   3.853 126.270  0.00  0.00    -0.506 OA
ATOM     20  H   LIG A   1      -8.305   3.467 125.403  0.00  0.00    +0.292 HD
ENDBRANCH   8  19
BRANCH  12  21
ATOM     21  O   LIG A   1      -6.831   5.211 133.429  0.00  0.00    -0.505 OA
ATOM     22  H   LIG A   1      -7.058   5.630 134.275  0.00  0.00    +0.292 HD
ENDBRANCH  12  21
BRANCH   7  23
ATOM     23  C   LIG A   1      -6.644   1.939 125.463  0.00  0.00    +0.069 C 
BRANCH  23  24
ATOM     24  C   LIG A   1      -6.040   2.724 124.323  0.00  0.00    -0.023 C 
ATOM     25  C   LIG A   1      -6.643   3.157 123.196  0.00  0.00    -0.079 C 
ATOM     26  C   LIG A   1      -8.096   2.963 122.867  0.00  0.00    +0.038 C 
ATOM     27  C   LIG A   1      -5.877   3.921 122.149  0.00  0.00    +0.038 C 
ENDBRANCH  23  24
ENDBRANCH   7  23
BRANCH  15  28
ATOM     28  C   LIG A   1     -11.304   5.849 129.938  0.00  0.00    +0.063 C 
BRANCH  28  29
ATOM     29  C   LIG A   1     -12.117   7.120 130.008  0.00  0.00    -0.024 C 
ATOM     30  C   LIG A   1     -11.933   8.276 129.336  0.00  0.00    -0.079 C 
ATOM     31  C   LIG A   1     -10.860   8.518 128.309  0.00  0.00    +0.038 C 
ATOM     32  C   LIG A   1     -12.852   9.445 129.577  0.00  0.00    +0.038 C 
ENDBRANCH  28  29
ENDBRANCH  15  28
TORSDOF 7
ENDMDL
MODEL 8
REMARK VINA RESULT:      -7.8      1.866      4.688
REMARK  Name = NuBBE_953
REMARK  12 active torsions:
REMARK  status: ('A' for Active; 'I' for Inactive)
REMARK    1  A    between atoms: C_7  and  O_8
REMARK    2  A    between atoms: C_9  and  C_10
REMARK    3  A    between atoms: C_10  and  C_11
REMARK    4  A    between atoms: C_12  and  C_13
REMARK    5  A    between atoms: C_12  and  C_14
REMARK    6  A    between atoms: C_15  and  O_16
REMARK    7  A    between atoms: N_17  and  C_18
REMARK    8  A    between atoms: C_20  and  O_21
REMARK    9  A    between atoms: C_24  and  C_25
REMARK   10  A    between atoms: C_25  and  C_26
REMARK   11  A    between atoms: C_27  and  C_28
REMARK   12  A    between atoms: C_27  and  C_29
REMARK                            x       y       z     vdW  Elec       q    Type
REMARK                         _______ _______ _______ _____ _____    ______ ____
ROOT
ATOM      1  O   LIG A   1      -6.363   0.932 127.609  0.00  0.00    -0.286 OA
ATOM      2  C   LIG A   1      -7.168   0.073 127.278  0.00  0.00    +0.201 A 
ATOM      3  C   LIG A   1      -7.825   0.192 125.960  0.00  0.00    +0.088 A 
ATOM      4  C   LIG A   1      -8.400  -0.961 125.415  0.00  0.00    +0.060 A 
ATOM      5  C   LIG A   1      -9.073  -0.823 124.194  0.00  0.00    +0.072 A 
ATOM      6  C   LIG A   1      -9.139   0.414 123.541  0.00  0.00    +0.126 A 
ATOM      7  C   LIG A   1      -8.551   1.565 124.076  0.00  0.00    +0.040 A 
ATOM      8  C   LIG A   1      -7.873   1.433 125.294  0.00  0.00    +0.137 A 
ATOM      9  N   LIG A   1      -8.309  -2.180 126.116  0.00  0.00    -0.340 N 
ATOM     10  C   LIG A   1      -8.539  -3.428 125.384  0.00  0.00    +0.149 C 
ATOM     11  C   LIG A   1      -8.053  -2.232 127.511  0.00  0.00    +0.095 A 
ATOM     12  C   LIG A   1      -8.345  -3.341 128.331  0.00  0.00    +0.141 A 
ATOM     13  C   LIG A   1      -8.117  -3.311 129.708  0.00  0.00    +0.048 A 
ATOM     14  C   LIG A   1      -7.624  -2.159 130.315  0.00  0.00    +0.008 A 
ATOM     15  C   LIG A   1      -7.339  -1.009 129.565  0.00  0.00    -0.031 A 
ATOM     16  C   LIG A   1      -7.525  -1.079 128.158  0.00  0.00    +0.053 A 
ENDROOT
BRANCH   6  17
ATOM     17  O   LIG A   1      -9.788   0.490 122.339  0.00  0.00    -0.506 OA
ATOM     18  H   LIG A   1     -10.742   0.577 122.487  0.00  0.00    +0.292 HD
ENDBRANCH   6  17
BRANCH   8  19
ATOM     19  O   LIG A   1      -7.261   2.548 125.816  0.00  0.00    -0.506 OA
ATOM     20  H   LIG A   1      -7.598   3.330 125.323  0.00  0.00    +0.292 HD
ENDBRANCH   8  19
BRANCH  12  21
ATOM     21  O   LIG A   1      -8.911  -4.480 127.817  0.00  0.00    -0.505 OA
ATOM     22  H   LIG A   1      -8.530  -5.256 128.258  0.00  0.00    +0.292 HD
ENDBRANCH  12  21
BRANCH   7  23
ATOM     23  C   LIG A   1      -8.686   2.910 123.396  0.00  0.00    +0.069 C 
BRANCH  23  24
ATOM     24  C   LIG A   1      -7.546   3.207 122.451  0.00  0.00    -0.023 C 
ATOM     25  C   LIG A   1      -7.612   3.593 121.160  0.00  0.00    -0.079 C 
ATOM     26  C   LIG A   1      -8.882   3.845 120.399  0.00  0.00    +0.038 C 
ATOM     27  C   LIG A   1      -6.361   3.834 120.356  0.00  0.00    +0.038 C 
ENDBRANCH  23  24
ENDBRANCH   7  23
BRANCH  15  28
ATOM     28  C   LIG A   1      -6.917   0.283 130.252  0.00  0.00    +0.063 C 
BRANCH  28  29
ATOM     29  C   LIG A   1      -7.926   0.919 131.179  0.00  0.00    -0.024 C 
ATOM     30  C   LIG A   1      -8.810   1.903 130.915  0.00  0.00    -0.079 C 
ATOM     31  C   LIG A   1      -9.001   2.558 129.574  0.00  0.00    +0.038 C 
ATOM     32  C   LIG A   1      -9.717   2.416 132.003  0.00  0.00    +0.038 C 
ENDBRANCH  28  29
ENDBRANCH  15  28
TORSDOF 7
ENDMDL
MODEL 9
REMARK VINA RESULT:      -7.5      2.582      5.895
REMARK  Name = NuBBE_953
REMARK  12 active torsions:
REMARK  status: ('A' for Active; 'I' for Inactive)
REMARK    1  A    between atoms: C_7  and  O_8
REMARK    2  A    between atoms: C_9  and  C_10
REMARK    3  A    between atoms: C_10  and  C_11
REMARK    4  A    between atoms: C_12  and  C_13
REMARK    5  A    between atoms: C_12  and  C_14
REMARK    6  A    between atoms: C_15  and  O_16
REMARK    7  A    between atoms: N_17  and  C_18
REMARK    8  A    between atoms: C_20  and  O_21
REMARK    9  A    between atoms: C_24  and  C_25
REMARK   10  A    between atoms: C_25  and  C_26
REMARK   11  A    between atoms: C_27  and  C_28
REMARK   12  A    between atoms: C_27  and  C_29
REMARK                            x       y       z     vdW  Elec       q    Type
REMARK                         _______ _______ _______ _____ _____    ______ ____
ROOT
ATOM      1  O   LIG A   1      -6.944  -0.588 129.135  0.00  0.00    -0.286 OA
ATOM      2  C   LIG A   1      -7.473  -0.308 128.068  0.00  0.00    +0.201 A 
ATOM      3  C   LIG A   1      -7.651   1.117 127.722  0.00  0.00    +0.088 A 
ATOM      4  C   LIG A   1      -7.856   1.437 126.375  0.00  0.00    +0.060 A 
ATOM      5  C   LIG A   1      -8.085   2.784 126.066  0.00  0.00    +0.072 A 
ATOM      6  C   LIG A   1      -8.081   3.765 127.065  0.00  0.00    +0.126 A 
ATOM      7  C   LIG A   1      -7.860   3.450 128.410  0.00  0.00    +0.040 A 
ATOM      8  C   LIG A   1      -7.626   2.106 128.725  0.00  0.00    +0.137 A 
ATOM      9  N   LIG A   1      -7.855   0.409 125.410  0.00  0.00    -0.340 N 
ATOM     10  C   LIG A   1      -7.662   0.770 124.003  0.00  0.00    +0.149 C 
ATOM     11  C   LIG A   1      -8.085  -0.949 125.752  0.00  0.00    +0.095 A 
ATOM     12  C   LIG A   1      -8.495  -1.940 124.837  0.00  0.00    +0.141 A 
ATOM     13  C   LIG A   1      -8.756  -3.248 125.246  0.00  0.00    +0.048 A 
ATOM     14  C   LIG A   1      -8.649  -3.600 126.588  0.00  0.00    +0.008 A 
ATOM     15  C   LIG A   1      -8.274  -2.659 127.558  0.00  0.00    -0.031 A 
ATOM     16  C   LIG A   1      -7.959  -1.347 127.113  0.00  0.00    +0.053 A 
ENDROOT
BRANCH   6  17
ATOM     17  O   LIG A   1      -8.286   5.069 126.707  0.00  0.00    -0.506 OA
ATOM     18  H   LIG A   1      -8.849   5.107 125.918  0.00  0.00    +0.292 HD
ENDBRANCH   6  17
BRANCH   8  19
ATOM     19  O   LIG A   1      -7.375   1.785 130.038  0.00  0.00    -0.506 OA
ATOM     20  H   LIG A   1      -7.937   2.367 130.599  0.00  0.00    +0.292 HD
ENDBRANCH   8  19
BRANCH  12  21
ATOM     21  O   LIG A   1      -8.704  -1.646 123.513  0.00  0.00    -0.505 OA
ATOM     22  H   LIG A   1      -7.852  -1.456 123.089  0.00  0.00    +0.292 HD
ENDBRANCH  12  21
BRANCH   7  23
ATOM     23  C   LIG A   1      -7.925   4.508 129.490  0.00  0.00    +0.069 C 
BRANCH  23  24
ATOM     24  C   LIG A   1      -9.314   4.684 130.057  0.00  0.00    -0.023 C 
ATOM     25  C   LIG A   1      -9.950   5.834 130.362  0.00  0.00    -0.079 C 
ATOM     26  C   LIG A   1      -9.390   7.212 130.154  0.00  0.00    +0.038 C 
ATOM     27  C   LIG A   1     -11.342   5.822 130.937  0.00  0.00    +0.038 C 
ENDBRANCH  23  24
ENDBRANCH   7  23
BRANCH  15  28
ATOM     28  C   LIG A   1      -8.277  -3.022 129.038  0.00  0.00    +0.063 C 
BRANCH  28  29
ATOM     29  C   LIG A   1      -7.136  -3.882 129.527  0.00  0.00    -0.024 C 
ATOM     30  C   LIG A   1      -6.504  -3.844 130.719  0.00  0.00    -0.079 C 
ATOM     31  C   LIG A   1      -6.858  -2.927 131.858  0.00  0.00    +0.038 C 
ATOM     32  C   LIG A   1      -5.358  -4.782 130.996  0.00  0.00    +0.038 C 
ENDBRANCH  28  29
ENDBRANCH  15  28
TORSDOF 7
ENDMDL
