MODEL 1
REMARK VINA RESULT:      -6.2      0.000      0.000
REMARK  Name = NuBBE_2444
REMARK  4 active torsions:
REMARK  status: ('A' for Active; 'I' for Inactive)
REMARK    1  A    between atoms: O_1  and  C_2
REMARK    2  A    between atoms: O_1  and  C_3
REMARK    3  A    between atoms: C_11  and  O_15
REMARK    4  A    between atoms: C_13  and  C_14
REMARK                            x       y       z     vdW  Elec       q    Type
REMARK                         _______ _______ _______ _____ _____    ______ ____
ROOT
ATOM      1  C   LIG A   1     -12.284   8.184 128.650  0.00  0.00    +0.138 A 
ATOM      2  C   LIG A   1     -11.489   7.266 129.500  0.00  0.00    +0.062 A 
ATOM      3  C   LIG A   1     -10.412   6.605 128.887  0.00  0.00    +0.146 A 
ATOM      4  O   LIG A   1     -10.089   6.801 127.528  0.00  0.00    -0.422 OA
ATOM      5  C   LIG A   1     -10.819   7.657 126.733  0.00  0.00    +0.341 A 
ATOM      6  O   LIG A   1     -10.554   7.843 125.551  0.00  0.00    -0.245 OA
ATOM      7  C   LIG A   1     -11.947   8.346 127.363  0.00  0.00    +0.138 A 
ATOM      8  C   LIG A   1      -9.577   5.709 129.561  0.00  0.00    +0.092 A 
ATOM      9  C   LIG A   1      -9.820   5.459 130.898  0.00  0.00    +0.121 A 
ATOM     10  C   LIG A   1     -10.872   6.089 131.550  0.00  0.00    +0.049 A 
ATOM     11  C   LIG A   1     -11.716   6.995 130.871  0.00  0.00    -0.033 A 
ATOM     12  C   LIG A   1     -12.825   7.623 131.675  0.00  0.00    +0.045 C 
ENDROOT
BRANCH   1  13
ATOM     13  O   LIG A   1     -13.337   8.814 129.273  0.00  0.00    -0.494 OA
ATOM     14  C   LIG A   1     -13.522  10.210 129.072  0.00  0.00    +0.277 C 
ENDBRANCH   1  13
BRANCH   9  15
ATOM     15  O   LIG A   1      -9.048   4.597 131.617  0.00  0.00    -0.507 OA
ATOM     16  H   LIG A   1      -9.210   3.692 131.302  0.00  0.00    +0.292 HD
ENDBRANCH   9  15
TORSDOF 2
ENDMDL
MODEL 2
REMARK VINA RESULT:      -6.0      7.592      9.976
REMARK  Name = NuBBE_2444
REMARK  4 active torsions:
REMARK  status: ('A' for Active; 'I' for Inactive)
REMARK    1  A    between atoms: O_1  and  C_2
REMARK    2  A    between atoms: O_1  and  C_3
REMARK    3  A    between atoms: C_11  and  O_15
REMARK    4  A    between atoms: C_13  and  C_14
REMARK                            x       y       z     vdW  Elec       q    Type
REMARK                         _______ _______ _______ _____ _____    ______ ____
ROOT
ATOM      1  C   LIG A   1      -6.316   3.517 123.903  0.00  0.00    +0.138 A 
ATOM      2  C   LIG A   1      -6.558   3.775 122.464  0.00  0.00    +0.062 A 
ATOM      3  C   LIG A   1      -7.845   3.492 121.975  0.00  0.00    +0.146 A 
ATOM      4  O   LIG A   1      -8.867   2.991 122.807  0.00  0.00    -0.422 OA
ATOM      5  C   LIG A   1      -8.652   2.754 124.147  0.00  0.00    +0.341 A 
ATOM      6  O   LIG A   1      -9.528   2.321 124.887  0.00  0.00    -0.245 OA
ATOM      7  C   LIG A   1      -7.312   3.041 124.663  0.00  0.00    +0.138 A 
ATOM      8  C   LIG A   1      -8.218   3.682 120.641  0.00  0.00    +0.092 A 
ATOM      9  C   LIG A   1      -7.277   4.173 119.756  0.00  0.00    +0.121 A 
ATOM     10  C   LIG A   1      -5.992   4.469 120.190  0.00  0.00    +0.049 A 
ATOM     11  C   LIG A   1      -5.613   4.278 121.537  0.00  0.00    -0.033 A 
ATOM     12  C   LIG A   1      -4.194   4.633 121.901  0.00  0.00    +0.045 C 
ENDROOT
BRANCH   1  13
ATOM     13  O   LIG A   1      -5.046   3.795 124.355  0.00  0.00    -0.494 OA
ATOM     14  C   LIG A   1      -4.868   4.192 125.709  0.00  0.00    +0.277 C 
ENDBRANCH   1  13
BRANCH   9  15
ATOM     15  O   LIG A   1      -7.571   4.382 118.443  0.00  0.00    -0.507 OA
ATOM     16  H   LIG A   1      -7.995   3.583 118.084  0.00  0.00    +0.292 HD
ENDBRANCH   9  15
TORSDOF 2
ENDMDL
MODEL 3
REMARK VINA RESULT:      -6.0      1.539      5.205
REMARK  Name = NuBBE_2444
REMARK  4 active torsions:
REMARK  status: ('A' for Active; 'I' for Inactive)
REMARK    1  A    between atoms: O_1  and  C_2
REMARK    2  A    between atoms: O_1  and  C_3
REMARK    3  A    between atoms: C_11  and  O_15
REMARK    4  A    between atoms: C_13  and  C_14
REMARK                            x       y       z     vdW  Elec       q    Type
REMARK                         _______ _______ _______ _____ _____    ______ ____
ROOT
ATOM      1  C   LIG A   1      -9.650   5.895 129.404  0.00  0.00    +0.138 A 
ATOM      2  C   LIG A   1     -10.656   6.942 129.108  0.00  0.00    +0.062 A 
ATOM      3  C   LIG A   1     -11.353   7.482 130.203  0.00  0.00    +0.146 A 
ATOM      4  O   LIG A   1     -11.112   7.057 131.526  0.00  0.00    -0.422 OA
ATOM      5  C   LIG A   1     -10.175   6.088 131.810  0.00  0.00    +0.341 A 
ATOM      6  O   LIG A   1      -9.949   5.707 132.952  0.00  0.00    -0.245 OA
ATOM      7  C   LIG A   1      -9.447   5.517 130.674  0.00  0.00    +0.138 A 
ATOM      8  C   LIG A   1     -12.331   8.473 130.077  0.00  0.00    +0.092 A 
ATOM      9  C   LIG A   1     -12.629   8.949 128.815  0.00  0.00    +0.121 A 
ATOM     10  C   LIG A   1     -11.967   8.450 127.701  0.00  0.00    +0.049 A 
ATOM     11  C   LIG A   1     -10.979   7.449 127.826  0.00  0.00    -0.033 A 
ATOM     12  C   LIG A   1     -10.322   6.980 126.553  0.00  0.00    +0.045 C 
ENDROOT
BRANCH   1  13
ATOM     13  O   LIG A   1      -8.987   5.379 128.314  0.00  0.00    -0.494 OA
ATOM     14  C   LIG A   1      -8.081   4.299 128.507  0.00  0.00    +0.277 C 
ENDBRANCH   1  13
BRANCH   9  15
ATOM     15  O   LIG A   1     -13.571   9.913 128.618  0.00  0.00    -0.507 OA
ATOM     16  H   LIG A   1     -13.294  10.722 129.082  0.00  0.00    +0.292 HD
ENDBRANCH   9  15
TORSDOF 2
ENDMDL
MODEL 4
REMARK VINA RESULT:      -5.5      7.993      9.987
REMARK  Name = NuBBE_2444
REMARK  4 active torsions:
REMARK  status: ('A' for Active; 'I' for Inactive)
REMARK    1  A    between atoms: O_1  and  C_2
REMARK    2  A    between atoms: O_1  and  C_3
REMARK    3  A    between atoms: C_11  and  O_15
REMARK    4  A    between atoms: C_13  and  C_14
REMARK                            x       y       z     vdW  Elec       q    Type
REMARK                         _______ _______ _______ _____ _____    ______ ____
ROOT
ATOM      1  C   LIG A   1      -8.507  -2.174 126.307  0.00  0.00    +0.138 A 
ATOM      2  C   LIG A   1      -8.644  -0.733 125.989  0.00  0.00    +0.062 A 
ATOM      3  C   LIG A   1      -9.159  -0.407 124.724  0.00  0.00    +0.146 A 
ATOM      4  O   LIG A   1      -9.537  -1.397 123.793  0.00  0.00    -0.422 OA
ATOM      5  C   LIG A   1      -9.420  -2.739 124.083  0.00  0.00    +0.341 A 
ATOM      6  O   LIG A   1      -9.745  -3.614 123.289  0.00  0.00    -0.245 OA
ATOM      7  C   LIG A   1      -8.878  -3.087 125.398  0.00  0.00    +0.138 A 
ATOM      8  C   LIG A   1      -9.341   0.907 124.284  0.00  0.00    +0.092 A 
ATOM      9  C   LIG A   1      -8.998   1.941 125.134  0.00  0.00    +0.121 A 
ATOM     10  C   LIG A   1      -8.486   1.671 126.396  0.00  0.00    +0.049 A 
ATOM     11  C   LIG A   1      -8.302   0.344 126.843  0.00  0.00    -0.033 A 
ATOM     12  C   LIG A   1      -7.741   0.165 128.230  0.00  0.00    +0.045 C 
ENDROOT
BRANCH   1  13
ATOM     13  O   LIG A   1      -7.993  -2.466 127.550  0.00  0.00    -0.494 OA
ATOM     14  C   LIG A   1      -8.531  -3.564 128.278  0.00  0.00    +0.277 C 
ENDBRANCH   1  13
BRANCH   9  15
ATOM     15  O   LIG A   1      -9.148   3.245 124.771  0.00  0.00    -0.507 OA
ATOM     16  H   LIG A   1      -9.969   3.588 125.164  0.00  0.00    +0.292 HD
ENDBRANCH   9  15
TORSDOF 2
ENDMDL
MODEL 5
REMARK VINA RESULT:      -5.5      1.302      4.171
REMARK  Name = NuBBE_2444
REMARK  4 active torsions:
REMARK  status: ('A' for Active; 'I' for Inactive)
REMARK    1  A    between atoms: O_1  and  C_2
REMARK    2  A    between atoms: O_1  and  C_3
REMARK    3  A    between atoms: C_11  and  O_15
REMARK    4  A    between atoms: C_13  and  C_14
REMARK                            x       y       z     vdW  Elec       q    Type
REMARK                         _______ _______ _______ _____ _____    ______ ____
ROOT
ATOM      1  C   LIG A   1      -9.938   5.397 130.154  0.00  0.00    +0.138 A 
ATOM      2  C   LIG A   1     -10.798   6.546 129.785  0.00  0.00    +0.062 A 
ATOM      3  C   LIG A   1     -10.664   7.047 128.479  0.00  0.00    +0.146 A 
ATOM      4  O   LIG A   1      -9.760   6.486 127.552  0.00  0.00    -0.422 OA
ATOM      5  C   LIG A   1      -8.962   5.414 127.886  0.00  0.00    +0.341 A 
ATOM      6  O   LIG A   1      -8.173   4.911 127.095  0.00  0.00    -0.245 OA
ATOM      7  C   LIG A   1      -9.092   4.890 129.247  0.00  0.00    +0.138 A 
ATOM      8  C   LIG A   1     -11.405   8.127 127.991  0.00  0.00    +0.092 A 
ATOM      9  C   LIG A   1     -12.316   8.736 128.832  0.00  0.00    +0.121 A 
ATOM     10  C   LIG A   1     -12.487   8.278 130.131  0.00  0.00    +0.049 A 
ATOM     11  C   LIG A   1     -11.740   7.187 130.626  0.00  0.00    -0.033 A 
ATOM     12  C   LIG A   1     -12.005   6.771 132.050  0.00  0.00    +0.045 C 
ENDROOT
BRANCH   1  13
ATOM     13  O   LIG A   1     -10.084   4.931 131.441  0.00  0.00    -0.494 OA
ATOM     14  C   LIG A   1      -9.098   4.055 131.972  0.00  0.00    +0.277 C 
ENDBRANCH   1  13
BRANCH   9  15
ATOM     15  O   LIG A   1     -13.071   9.793 128.423  0.00  0.00    -0.507 OA
ATOM     16  H   LIG A   1     -14.011   9.574 128.545  0.00  0.00    +0.292 HD
ENDBRANCH   9  15
TORSDOF 2
ENDMDL
MODEL 6
REMARK VINA RESULT:      -5.4      6.494      8.155
REMARK  Name = NuBBE_2444
REMARK  4 active torsions:
REMARK  status: ('A' for Active; 'I' for Inactive)
REMARK    1  A    between atoms: O_1  and  C_2
REMARK    2  A    between atoms: O_1  and  C_3
REMARK    3  A    between atoms: C_11  and  O_15
REMARK    4  A    between atoms: C_13  and  C_14
REMARK                            x       y       z     vdW  Elec       q    Type
REMARK                         _______ _______ _______ _____ _____    ______ ____
ROOT
ATOM      1  C   LIG A   1      -7.961   2.878 122.756  0.00  0.00    +0.138 A 
ATOM      2  C   LIG A   1      -7.350   3.386 124.007  0.00  0.00    +0.062 A 
ATOM      3  C   LIG A   1      -8.029   3.105 125.205  0.00  0.00    +0.146 A 
ATOM      4  O   LIG A   1      -9.232   2.371 125.229  0.00  0.00    -0.422 OA
ATOM      5  C   LIG A   1      -9.803   1.889 124.071  0.00  0.00    +0.341 A 
ATOM      6  O   LIG A   1     -10.847   1.247 124.070  0.00  0.00    -0.245 OA
ATOM      7  C   LIG A   1      -9.105   2.182 122.817  0.00  0.00    +0.138 A 
ATOM      8  C   LIG A   1      -7.575   3.522 126.460  0.00  0.00    +0.092 A 
ATOM      9  C   LIG A   1      -6.401   4.247 126.530  0.00  0.00    +0.121 A 
ATOM     10  C   LIG A   1      -5.692   4.549 125.375  0.00  0.00    +0.049 A 
ATOM     11  C   LIG A   1      -6.148   4.128 124.106  0.00  0.00    -0.033 A 
ATOM     12  C   LIG A   1      -5.302   4.509 122.919  0.00  0.00    +0.045 C 
ENDROOT
BRANCH   1  13
ATOM     13  O   LIG A   1      -7.280   3.172 121.597  0.00  0.00    -0.494 OA
ATOM     14  C   LIG A   1      -7.968   3.835 120.543  0.00  0.00    +0.277 C 
ENDBRANCH   1  13
BRANCH   9  15
ATOM     15  O   LIG A   1      -5.901   4.685 127.719  0.00  0.00    -0.507 OA
ATOM     16  H   LIG A   1      -6.634   5.017 128.265  0.00  0.00    +0.292 HD
ENDBRANCH   9  15
TORSDOF 2
ENDMDL
MODEL 7
REMARK VINA RESULT:      -5.4      8.753     10.833
REMARK  Name = NuBBE_2444
REMARK  4 active torsions:
REMARK  status: ('A' for Active; 'I' for Inactive)
REMARK    1  A    between atoms: O_1  and  C_2
REMARK    2  A    between atoms: O_1  and  C_3
REMARK    3  A    between atoms: C_11  and  O_15
REMARK    4  A    between atoms: C_13  and  C_14
REMARK                            x       y       z     vdW  Elec       q    Type
REMARK                         _______ _______ _______ _____ _____    ______ ____
ROOT
ATOM      1  C   LIG A   1      -7.162  -2.130 124.617  0.00  0.00    +0.138 A 
ATOM      2  C   LIG A   1      -7.592  -0.715 124.709  0.00  0.00    +0.062 A 
ATOM      3  C   LIG A   1      -8.880  -0.411 124.239  0.00  0.00    +0.146 A 
ATOM      4  O   LIG A   1      -9.735  -1.398 123.707  0.00  0.00    -0.422 OA
ATOM      5  C   LIG A   1      -9.345  -2.717 123.624  0.00  0.00    +0.341 A 
ATOM      6  O   LIG A   1     -10.074  -3.590 123.168  0.00  0.00    -0.245 OA
ATOM      7  C   LIG A   1      -8.001  -3.042 124.107  0.00  0.00    +0.138 A 
ATOM      8  C   LIG A   1      -9.420   0.879 124.259  0.00  0.00    +0.092 A 
ATOM      9  C   LIG A   1      -8.650   1.908 124.766  0.00  0.00    +0.121 A 
ATOM     10  C   LIG A   1      -7.371   1.659 125.244  0.00  0.00    +0.049 A 
ATOM     11  C   LIG A   1      -6.824   0.357 125.225  0.00  0.00    -0.033 A 
ATOM     12  C   LIG A   1      -5.428   0.198 125.769  0.00  0.00    +0.045 C 
ENDROOT
BRANCH   1  13
ATOM     13  O   LIG A   1      -5.893  -2.400 125.077  0.00  0.00    -0.494 OA
ATOM     14  C   LIG A   1      -5.069  -3.296 124.341  0.00  0.00    +0.277 C 
ENDBRANCH   1  13
BRANCH   9  15
ATOM     15  O   LIG A   1      -9.112   3.189 124.815  0.00  0.00    -0.507 OA
ATOM     16  H   LIG A   1      -8.807   3.664 124.023  0.00  0.00    +0.292 HD
ENDBRANCH   9  15
TORSDOF 2
ENDMDL
MODEL 8
REMARK VINA RESULT:      -5.4      7.475      9.753
REMARK  Name = NuBBE_2444
REMARK  4 active torsions:
REMARK  status: ('A' for Active; 'I' for Inactive)
REMARK    1  A    between atoms: O_1  and  C_2
REMARK    2  A    between atoms: O_1  and  C_3
REMARK    3  A    between atoms: C_11  and  O_15
REMARK    4  A    between atoms: C_13  and  C_14
REMARK                            x       y       z     vdW  Elec       q    Type
REMARK                         _______ _______ _______ _____ _____    ______ ____
ROOT
ATOM      1  C   LIG A   1      -9.081  -1.293 124.965  0.00  0.00    +0.138 A 
ATOM      2  C   LIG A   1      -8.931   0.172 124.802  0.00  0.00    +0.062 A 
ATOM      3  C   LIG A   1      -8.283   0.864 125.839  0.00  0.00    +0.146 A 
ATOM      4  O   LIG A   1      -7.790   0.205 126.984  0.00  0.00    -0.422 OA
ATOM      5  C   LIG A   1      -7.919  -1.158 127.140  0.00  0.00    +0.341 A 
ATOM      6  O   LIG A   1      -7.495  -1.750 128.125  0.00  0.00    -0.245 OA
ATOM      7  C   LIG A   1      -8.599  -1.886 126.065  0.00  0.00    +0.138 A 
ATOM      8  C   LIG A   1      -8.072   2.246 125.826  0.00  0.00    +0.092 A 
ATOM      9  C   LIG A   1      -8.522   2.972 124.740  0.00  0.00    +0.121 A 
ATOM     10  C   LIG A   1      -9.167   2.335 123.689  0.00  0.00    +0.049 A 
ATOM     11  C   LIG A   1      -9.381   0.939 123.699  0.00  0.00    -0.033 A 
ATOM     12  C   LIG A   1     -10.090   0.350 122.507  0.00  0.00    +0.045 C 
ENDROOT
BRANCH   1  13
ATOM     13  O   LIG A   1      -9.725  -1.945 123.938  0.00  0.00    -0.494 OA
ATOM     14  C   LIG A   1      -9.234  -3.209 123.509  0.00  0.00    +0.277 C 
ENDBRANCH   1  13
BRANCH   9  15
ATOM     15  O   LIG A   1      -8.352   4.321 124.661  0.00  0.00    -0.507 OA
ATOM     16  H   LIG A   1      -7.404   4.523 124.738  0.00  0.00    +0.292 HD
ENDBRANCH   9  15
TORSDOF 2
ENDMDL
MODEL 9
REMARK VINA RESULT:      -5.3      8.644     10.098
REMARK  Name = NuBBE_2444
REMARK  4 active torsions:
REMARK  status: ('A' for Active; 'I' for Inactive)
REMARK    1  A    between atoms: O_1  and  C_2
REMARK    2  A    between atoms: O_1  and  C_3
REMARK    3  A    between atoms: C_11  and  O_15
REMARK    4  A    between atoms: C_13  and  C_14
REMARK                            x       y       z     vdW  Elec       q    Type
REMARK                         _______ _______ _______ _____ _____    ______ ____
ROOT
ATOM      1  C   LIG A   1      -8.052   1.092 124.543  0.00  0.00    +0.138 A 
ATOM      2  C   LIG A   1      -7.304  -0.183 124.446  0.00  0.00    +0.062 A 
ATOM      3  C   LIG A   1      -7.852  -1.180 123.622  0.00  0.00    +0.146 A 
ATOM      4  O   LIG A   1      -9.055  -0.986 122.912  0.00  0.00    -0.422 OA
ATOM      5  C   LIG A   1      -9.753   0.199 122.991  0.00  0.00    +0.341 A 
ATOM      6  O   LIG A   1     -10.798   0.389 122.380  0.00  0.00    -0.245 OA
ATOM      7  C   LIG A   1      -9.191   1.242 123.853  0.00  0.00    +0.138 A 
ATOM      8  C   LIG A   1      -7.261  -2.433 123.436  0.00  0.00    +0.092 A 
ATOM      9  C   LIG A   1      -6.078  -2.709 124.094  0.00  0.00    +0.121 A 
ATOM     10  C   LIG A   1      -5.495  -1.756 124.918  0.00  0.00    +0.049 A 
ATOM     11  C   LIG A   1      -6.090  -0.489 125.107  0.00  0.00    -0.033 A 
ATOM     12  C   LIG A   1      -5.373   0.470 126.022  0.00  0.00    +0.045 C 
ENDROOT
BRANCH   1  13
ATOM     13  O   LIG A   1      -7.498   2.050 125.362  0.00  0.00    -0.494 OA
ATOM     14  C   LIG A   1      -7.954   3.393 125.259  0.00  0.00    +0.277 C 
ENDBRANCH   1  13
BRANCH   9  15
ATOM     15  O   LIG A   1      -5.447  -3.908 123.959  0.00  0.00    -0.507 OA
ATOM     16  H   LIG A   1      -5.118  -3.990 123.048  0.00  0.00    +0.292 HD
ENDBRANCH   9  15
TORSDOF 2
ENDMDL
