MODEL 1
REMARK VINA RESULT:      -9.1      0.000      0.000
REMARK  Name = NuBBE_1177
REMARK  12 active torsions:
REMARK  status: ('A' for Active; 'I' for Inactive)
REMARK    1  A    between atoms: C_1  and  C_2
REMARK    2  A    between atoms: C_8  and  C_9
REMARK    3  A    between atoms: C_8  and  C_10
REMARK    4  A    between atoms: C_10  and  O_11
REMARK    5  A    between atoms: C_12  and  O_14
REMARK    6  A    between atoms: C_15  and  O_17
REMARK    7  A    between atoms: C_19  and  C_20
REMARK    8  A    between atoms: C_25  and  C_26
REMARK    9  A    between atoms: C_29  and  C_30
REMARK   10  A    between atoms: C_30  and  O_31
REMARK   11  A    between atoms: C_34  and  C_36
REMARK   12  A    between atoms: C_37  and  C_39
REMARK                            x       y       z     vdW  Elec       q    Type
REMARK                         _______ _______ _______ _____ _____    ______ ____
ROOT
ATOM      1  C   LIG A   1      -7.006  -0.178 129.498  0.00  0.00    +0.012 C 
ATOM      2  C   LIG A   1      -6.260  -1.373 128.816  0.00  0.00    -0.019 C 
ATOM      3  C   LIG A   1      -5.585  -0.797 127.549  0.00  0.00    +0.008 C 
ATOM      4  C   LIG A   1      -5.532  -1.704 126.314  0.00  0.00    +0.005 C 
ATOM      5  C   LIG A   1      -6.796  -2.546 125.929  0.00  0.00    +0.006 C 
ATOM      6  C   LIG A   1      -7.216  -2.396 124.401  0.00  0.00    +0.023 C 
ATOM      7  C   LIG A   1      -8.084  -3.602 123.928  0.00  0.00    +0.016 C 
ATOM      8  C   LIG A   1      -8.035  -1.093 124.203  0.00  0.00    +0.151 C 
ATOM      9  C   LIG A   1      -9.172  -0.913 125.239  0.00  0.00    +0.144 C 
ATOM     10  C   LIG A   1      -8.705  -1.050 126.699  0.00  0.00    +0.041 C 
ATOM     11  C   LIG A   1      -7.959  -2.372 126.989  0.00  0.00    -0.022 C 
ATOM     12  C   LIG A   1      -8.999  -3.522 126.907  0.00  0.00    +0.012 C 
ATOM     13  C   LIG A   1      -7.262  -2.501 128.408  0.00  0.00    +0.006 C 
ATOM     14  C   LIG A   1      -8.122  -2.874 129.628  0.00  0.00    +0.031 C 
ATOM     15  C   LIG A   1      -7.249  -3.205 130.812  0.00  0.00    -0.026 C 
ATOM     16  C   LIG A   1      -5.943  -2.887 130.945  0.00  0.00    -0.063 C 
ATOM     17  C   LIG A   1      -5.208  -2.016 129.879  0.00  0.00    -0.005 C 
ATOM     18  C   LIG A   1      -4.170  -2.907 129.130  0.00  0.00    +0.016 C 
ATOM     19  C   LIG A   1      -4.421  -0.903 130.639  0.00  0.00    +0.012 C 
ATOM     20  C   LIG A   1      -3.482  -1.419 131.736  0.00  0.00    +0.019 C 
ATOM     21  C   LIG A   1      -4.180  -2.324 132.786  0.00  0.00    +0.074 C 
ATOM     22  C   LIG A   1      -5.056  -3.411 132.092  0.00  0.00    +0.035 C 
ATOM     23  C   LIG A   1      -5.638  -4.473 133.091  0.00  0.00    -0.003 C 
ATOM     24  C   LIG A   1      -6.701  -3.970 134.079  0.00  0.00    +0.008 C 
ATOM     25  C   LIG A   1      -4.447  -5.156 133.823  0.00  0.00    -0.011 C 
ATOM     26  C   LIG A   1      -4.883  -6.268 134.779  0.00  0.00    +0.008 C 
ATOM     27  C   LIG A   1      -3.566  -4.129 134.546  0.00  0.00    +0.004 C 
ATOM     28  C   LIG A   1      -3.060  -3.039 133.599  0.00  0.00    +0.019 C 
ENDROOT
BRANCH   8  29
ATOM     29  O   LIG A   1      -7.190   0.068 124.292  0.00  0.00    -0.389 OA
ATOM     30  H   LIG A   1      -7.536   0.588 125.043  0.00  0.00    +0.210 HD
ENDBRANCH   8  29
BRANCH   9  31
ATOM     31  O   LIG A   1      -9.727   0.399 125.075  0.00  0.00    -0.389 OA
ATOM     32  H   LIG A   1      -9.396   0.903 125.848  0.00  0.00    +0.210 HD
ENDBRANCH   9  31
BRANCH  21  33
ATOM     33  C   LIG A   1      -4.934  -1.391 133.739  0.00  0.00    +0.311 C 
ATOM     34  O   LIG A   1      -6.059  -0.944 133.567  0.00  0.00    -0.250 OA
BRANCH  33  35
ATOM     35  O   LIG A   1      -4.296  -1.119 134.889  0.00  0.00    -0.480 OA
ATOM     36  H   LIG A   1      -5.011  -1.064 135.554  0.00  0.00    +0.295 HD
ENDBRANCH  33  35
ENDBRANCH  21  33
BRANCH   6  37
ATOM     37  C   LIG A   1      -5.960  -2.431 123.473  0.00  0.00    +0.165 C 
BRANCH  37  38
ATOM     38  O   LIG A   1      -6.228  -1.788 122.227  0.00  0.00    -0.394 OA
ATOM     39  H   LIG A   1      -6.520  -2.482 121.608  0.00  0.00    +0.209 HD
ENDBRANCH  37  38
ENDBRANCH   6  37
TORSDOF 6
ENDMDL
MODEL 2
REMARK VINA RESULT:      -8.9      1.607      8.434
REMARK  Name = NuBBE_1177
REMARK  12 active torsions:
REMARK  status: ('A' for Active; 'I' for Inactive)
REMARK    1  A    between atoms: C_1  and  C_2
REMARK    2  A    between atoms: C_8  and  C_9
REMARK    3  A    between atoms: C_8  and  C_10
REMARK    4  A    between atoms: C_10  and  O_11
REMARK    5  A    between atoms: C_12  and  O_14
REMARK    6  A    between atoms: C_15  and  O_17
REMARK    7  A    between atoms: C_19  and  C_20
REMARK    8  A    between atoms: C_25  and  C_26
REMARK    9  A    between atoms: C_29  and  C_30
REMARK   10  A    between atoms: C_30  and  O_31
REMARK   11  A    between atoms: C_34  and  C_36
REMARK   12  A    between atoms: C_37  and  C_39
REMARK                            x       y       z     vdW  Elec       q    Type
REMARK                         _______ _______ _______ _____ _____    ______ ____
ROOT
ATOM      1  C   LIG A   1      -7.854  -0.800 130.764  0.00  0.00    +0.012 C 
ATOM      2  C   LIG A   1      -6.927  -2.061 130.786  0.00  0.00    -0.019 C 
ATOM      3  C   LIG A   1      -7.346  -2.886 132.025  0.00  0.00    +0.008 C 
ATOM      4  C   LIG A   1      -6.232  -3.613 132.789  0.00  0.00    +0.005 C 
ATOM      5  C   LIG A   1      -4.878  -2.870 133.055  0.00  0.00    +0.006 C 
ATOM      6  C   LIG A   1      -4.408  -2.934 134.574  0.00  0.00    +0.023 C 
ATOM      7  C   LIG A   1      -2.874  -2.689 134.707  0.00  0.00    +0.016 C 
ATOM      8  C   LIG A   1      -5.152  -1.855 135.403  0.00  0.00    +0.151 C 
ATOM      9  C   LIG A   1      -5.138  -0.451 134.747  0.00  0.00    +0.144 C 
ATOM     10  C   LIG A   1      -5.619  -0.447 133.286  0.00  0.00    +0.041 C 
ATOM     11  C   LIG A   1      -4.854  -1.438 132.380  0.00  0.00    -0.022 C 
ATOM     12  C   LIG A   1      -3.409  -0.897 132.211  0.00  0.00    +0.012 C 
ATOM     13  C   LIG A   1      -5.424  -1.650 130.915  0.00  0.00    +0.006 C 
ATOM     14  C   LIG A   1      -5.093  -0.611 129.830  0.00  0.00    +0.031 C 
ATOM     15  C   LIG A   1      -5.493  -1.119 128.468  0.00  0.00    -0.026 C 
ATOM     16  C   LIG A   1      -6.338  -2.144 128.223  0.00  0.00    -0.063 C 
ATOM     17  C   LIG A   1      -7.094  -2.866 129.381  0.00  0.00    -0.005 C 
ATOM     18  C   LIG A   1      -6.531  -4.313 129.525  0.00  0.00    +0.016 C 
ATOM     19  C   LIG A   1      -8.595  -2.976 128.969  0.00  0.00    +0.012 C 
ATOM     20  C   LIG A   1      -8.837  -3.630 127.603  0.00  0.00    +0.019 C 
ATOM     21  C   LIG A   1      -8.062  -2.957 126.439  0.00  0.00    +0.074 C 
ATOM     22  C   LIG A   1      -6.566  -2.737 126.818  0.00  0.00    +0.035 C 
ATOM     23  C   LIG A   1      -5.687  -2.233 125.619  0.00  0.00    -0.003 C 
ATOM     24  C   LIG A   1      -5.969  -0.810 125.115  0.00  0.00    +0.008 C 
ATOM     25  C   LIG A   1      -5.783  -3.280 124.472  0.00  0.00    -0.011 C 
ATOM     26  C   LIG A   1      -4.907  -2.937 123.265  0.00  0.00    +0.008 C 
ATOM     27  C   LIG A   1      -7.237  -3.514 124.042  0.00  0.00    +0.004 C 
ATOM     28  C   LIG A   1      -8.124  -3.924 125.220  0.00  0.00    +0.019 C 
ENDROOT
BRANCH   8  29
ATOM     29  O   LIG A   1      -6.531  -2.216 135.606  0.00  0.00    -0.389 OA
ATOM     30  H   LIG A   1      -6.516  -2.966 136.231  0.00  0.00    +0.210 HD
ENDBRANCH   8  29
BRANCH   9  31
ATOM     31  O   LIG A   1      -6.007   0.407 135.500  0.00  0.00    -0.389 OA
ATOM     32  H   LIG A   1      -5.849   0.156 136.434  0.00  0.00    +0.210 HD
ENDBRANCH   9  31
BRANCH  21  33
ATOM     33  C   LIG A   1      -8.834  -1.686 126.073  0.00  0.00    +0.311 C 
ATOM     34  O   LIG A   1      -8.645  -0.571 126.538  0.00  0.00    -0.250 OA
BRANCH  33  35
ATOM     35  O   LIG A   1      -9.746  -1.836 125.098  0.00  0.00    -0.480 OA
ATOM     36  H   LIG A   1     -10.150  -0.949 125.007  0.00  0.00    +0.295 HD
ENDBRANCH  33  35
ENDBRANCH  21  33
BRANCH   6  37
ATOM     37  C   LIG A   1      -4.627  -4.363 135.164  0.00  0.00    +0.165 C 
BRANCH  37  38
ATOM     38  O   LIG A   1      -4.788  -4.311 136.582  0.00  0.00    -0.394 OA
ATOM     39  H   LIG A   1      -4.077  -4.856 136.967  0.00  0.00    +0.209 HD
ENDBRANCH  37  38
ENDBRANCH   6  37
TORSDOF 6
ENDMDL
MODEL 3
REMARK VINA RESULT:      -8.4      2.007      8.410
REMARK  Name = NuBBE_1177
REMARK  12 active torsions:
REMARK  status: ('A' for Active; 'I' for Inactive)
REMARK    1  A    between atoms: C_1  and  C_2
REMARK    2  A    between atoms: C_8  and  C_9
REMARK    3  A    between atoms: C_8  and  C_10
REMARK    4  A    between atoms: C_10  and  O_11
REMARK    5  A    between atoms: C_12  and  O_14
REMARK    6  A    between atoms: C_15  and  O_17
REMARK    7  A    between atoms: C_19  and  C_20
REMARK    8  A    between atoms: C_25  and  C_26
REMARK    9  A    between atoms: C_29  and  C_30
REMARK   10  A    between atoms: C_30  and  O_31
REMARK   11  A    between atoms: C_34  and  C_36
REMARK   12  A    between atoms: C_37  and  C_39
REMARK                            x       y       z     vdW  Elec       q    Type
REMARK                         _______ _______ _______ _____ _____    ______ ____
ROOT
ATOM      1  C   LIG A   1      -8.613  -3.228 129.333  0.00  0.00    +0.012 C 
ATOM      2  C   LIG A   1      -7.120  -2.762 129.370  0.00  0.00    -0.019 C 
ATOM      3  C   LIG A   1      -6.300  -3.973 129.873  0.00  0.00    +0.008 C 
ATOM      4  C   LIG A   1      -5.100  -3.675 130.781  0.00  0.00    +0.005 C 
ATOM      5  C   LIG A   1      -5.246  -2.601 131.913  0.00  0.00    +0.006 C 
ATOM      6  C   LIG A   1      -4.755  -3.112 133.338  0.00  0.00    +0.023 C 
ATOM      7  C   LIG A   1      -4.403  -1.920 134.280  0.00  0.00    +0.016 C 
ATOM      8  C   LIG A   1      -5.869  -3.958 134.009  0.00  0.00    +0.151 C 
ATOM      9  C   LIG A   1      -7.263  -3.284 133.974  0.00  0.00    +0.144 C 
ATOM     10  C   LIG A   1      -7.694  -2.827 132.569  0.00  0.00    +0.041 C 
ATOM     11  C   LIG A   1      -6.667  -1.903 131.877  0.00  0.00    -0.022 C 
ATOM     12  C   LIG A   1      -6.670  -0.550 132.636  0.00  0.00    +0.012 C 
ATOM     13  C   LIG A   1      -6.932  -1.559 130.351  0.00  0.00    +0.006 C 
ATOM     14  C   LIG A   1      -7.953  -0.463 130.003  0.00  0.00    +0.031 C 
ATOM     15  C   LIG A   1      -7.868  -0.103 128.541  0.00  0.00    -0.026 C 
ATOM     16  C   LIG A   1      -7.275  -0.842 127.578  0.00  0.00    -0.063 C 
ATOM     17  C   LIG A   1      -6.685  -2.253 127.886  0.00  0.00    -0.005 C 
ATOM     18  C   LIG A   1      -5.132  -2.184 127.780  0.00  0.00    +0.016 C 
ATOM     19  C   LIG A   1      -7.197  -3.231 126.782  0.00  0.00    +0.012 C 
ATOM     20  C   LIG A   1      -6.922  -2.773 125.345  0.00  0.00    +0.019 C 
ATOM     21  C   LIG A   1      -7.461  -1.354 125.025  0.00  0.00    +0.074 C 
ATOM     22  C   LIG A   1      -7.057  -0.338 126.137  0.00  0.00    +0.035 C 
ATOM     23  C   LIG A   1      -7.410   1.149 125.780  0.00  0.00    -0.003 C 
ATOM     24  C   LIG A   1      -8.903   1.504 125.729  0.00  0.00    +0.008 C 
ATOM     25  C   LIG A   1      -6.684   1.517 124.454  0.00  0.00    -0.011 C 
ATOM     26  C   LIG A   1      -6.892   2.974 124.035  0.00  0.00    +0.008 C 
ATOM     27  C   LIG A   1      -7.068   0.562 123.317  0.00  0.00    +0.004 C 
ATOM     28  C   LIG A   1      -6.808  -0.901 123.685  0.00  0.00    +0.019 C 
ENDROOT
BRANCH   8  29
ATOM     29  O   LIG A   1      -6.000  -5.241 133.371  0.00  0.00    -0.389 OA
ATOM     30  H   LIG A   1      -5.132  -5.677 133.477  0.00  0.00    +0.210 HD
ENDBRANCH   8  29
BRANCH   9  31
ATOM     31  O   LIG A   1      -8.233  -4.231 134.446  0.00  0.00    -0.389 OA
ATOM     32  H   LIG A   1      -7.747  -4.770 135.104  0.00  0.00    +0.210 HD
ENDBRANCH   9  31
BRANCH  21  33
ATOM     33  C   LIG A   1      -8.968  -1.497 124.791  0.00  0.00    +0.311 C 
ATOM     34  O   LIG A   1      -9.825  -1.582 125.658  0.00  0.00    -0.250 OA
BRANCH  33  35
ATOM     35  O   LIG A   1      -9.350  -1.452 123.504  0.00  0.00    -0.480 OA
ATOM     36  H   LIG A   1      -9.080  -2.320 123.141  0.00  0.00    +0.295 HD
ENDBRANCH  33  35
ENDBRANCH  21  33
BRANCH   6  37
ATOM     37  C   LIG A   1      -3.422  -3.915 133.211  0.00  0.00    +0.165 C 
BRANCH  37  38
ATOM     38  O   LIG A   1      -2.291  -3.066 133.411  0.00  0.00    -0.394 OA
ATOM     39  H   LIG A   1      -2.638  -2.171 133.586  0.00  0.00    +0.209 HD
ENDBRANCH  37  38
ENDBRANCH   6  37
TORSDOF 6
ENDMDL
MODEL 4
REMARK VINA RESULT:      -8.3      4.908      8.903
REMARK  Name = NuBBE_1177
REMARK  12 active torsions:
REMARK  status: ('A' for Active; 'I' for Inactive)
REMARK    1  A    between atoms: C_1  and  C_2
REMARK    2  A    between atoms: C_8  and  C_9
REMARK    3  A    between atoms: C_8  and  C_10
REMARK    4  A    between atoms: C_10  and  O_11
REMARK    5  A    between atoms: C_12  and  O_14
REMARK    6  A    between atoms: C_15  and  O_17
REMARK    7  A    between atoms: C_19  and  C_20
REMARK    8  A    between atoms: C_25  and  C_26
REMARK    9  A    between atoms: C_29  and  C_30
REMARK   10  A    between atoms: C_30  and  O_31
REMARK   11  A    between atoms: C_34  and  C_36
REMARK   12  A    between atoms: C_37  and  C_39
REMARK                            x       y       z     vdW  Elec       q    Type
REMARK                         _______ _______ _______ _____ _____    ______ ____
ROOT
ATOM      1  C   LIG A   1      -6.974   3.760 126.000  0.00  0.00    +0.012 C 
ATOM      2  C   LIG A   1      -6.766   2.875 127.274  0.00  0.00    -0.019 C 
ATOM      3  C   LIG A   1      -7.365   3.670 128.458  0.00  0.00    +0.008 C 
ATOM      4  C   LIG A   1      -6.645   3.561 129.807  0.00  0.00    +0.005 C 
ATOM      5  C   LIG A   1      -5.078   3.615 129.844  0.00  0.00    +0.006 C 
ATOM      6  C   LIG A   1      -4.505   4.654 130.905  0.00  0.00    +0.023 C 
ATOM      7  C   LIG A   1      -3.038   4.311 131.303  0.00  0.00    +0.016 C 
ATOM      8  C   LIG A   1      -4.532   6.086 130.308  0.00  0.00    +0.151 C 
ATOM      9  C   LIG A   1      -3.935   6.174 128.882  0.00  0.00    +0.144 C 
ATOM     10  C   LIG A   1      -4.538   5.159 127.895  0.00  0.00    +0.041 C 
ATOM     11  C   LIG A   1      -4.462   3.696 128.388  0.00  0.00    -0.022 C 
ATOM     12  C   LIG A   1      -2.969   3.273 128.364  0.00  0.00    +0.012 C 
ATOM     13  C   LIG A   1      -5.246   2.615 127.534  0.00  0.00    +0.006 C 
ATOM     14  C   LIG A   1      -4.602   2.074 126.246  0.00  0.00    +0.031 C 
ATOM     15  C   LIG A   1      -5.367   0.881 125.730  0.00  0.00    -0.026 C 
ATOM     16  C   LIG A   1      -6.622   0.531 126.087  0.00  0.00    -0.063 C 
ATOM     17  C   LIG A   1      -7.475   1.429 127.036  0.00  0.00    -0.005 C 
ATOM     18  C   LIG A   1      -7.657   0.694 128.398  0.00  0.00    +0.016 C 
ATOM     19  C   LIG A   1      -8.886   1.592 126.389  0.00  0.00    +0.012 C 
ATOM     20  C   LIG A   1      -9.583   0.273 126.033  0.00  0.00    +0.019 C 
ATOM     21  C   LIG A   1      -8.737  -0.658 125.125  0.00  0.00    +0.074 C 
ATOM     22  C   LIG A   1      -7.282  -0.798 125.668  0.00  0.00    +0.035 C 
ATOM     23  C   LIG A   1      -6.432  -1.873 124.903  0.00  0.00    -0.003 C 
ATOM     24  C   LIG A   1      -6.063  -1.543 123.449  0.00  0.00    +0.008 C 
ATOM     25  C   LIG A   1      -7.161  -3.242 125.017  0.00  0.00    -0.011 C 
ATOM     26  C   LIG A   1      -6.391  -4.393 124.367  0.00  0.00    +0.008 C 
ATOM     27  C   LIG A   1      -8.592  -3.166 124.470  0.00  0.00    +0.004 C 
ATOM     28  C   LIG A   1      -9.408  -2.064 125.150  0.00  0.00    +0.019 C 
ENDROOT
BRANCH   8  29
ATOM     29  O   LIG A   1      -5.877   6.594 130.238  0.00  0.00    -0.389 OA
ATOM     30  H   LIG A   1      -6.077   6.931 131.133  0.00  0.00    +0.210 HD
ENDBRANCH   8  29
BRANCH   9  31
ATOM     31  O   LIG A   1      -4.185   7.490 128.369  0.00  0.00    -0.389 OA
ATOM     32  H   LIG A   1      -4.383   7.349 127.420  0.00  0.00    +0.210 HD
ENDBRANCH   9  31
BRANCH  21  33
ATOM     33  C   LIG A   1      -8.849  -0.106 123.701  0.00  0.00    +0.311 C 
ATOM     34  O   LIG A   1      -8.135   0.754 123.205  0.00  0.00    -0.250 OA
BRANCH  33  35
ATOM     35  O   LIG A   1      -9.784  -0.693 122.936  0.00  0.00    -0.480 OA
ATOM     36  H   LIG A   1     -10.297  -1.244 123.562  0.00  0.00    +0.295 HD
ENDBRANCH  33  35
ENDBRANCH  21  33
BRANCH   6  37
ATOM     37  C   LIG A   1      -5.302   4.576 132.245  0.00  0.00    +0.165 C 
BRANCH  37  38
ATOM     38  O   LIG A   1      -5.274   5.830 132.930  0.00  0.00    -0.394 OA
ATOM     39  H   LIG A   1      -6.028   5.831 133.548  0.00  0.00    +0.209 HD
ENDBRANCH  37  38
ENDBRANCH   6  37
TORSDOF 6
ENDMDL
MODEL 5
REMARK VINA RESULT:      -8.2      1.751      3.031
REMARK  Name = NuBBE_1177
REMARK  12 active torsions:
REMARK  status: ('A' for Active; 'I' for Inactive)
REMARK    1  A    between atoms: C_1  and  C_2
REMARK    2  A    between atoms: C_8  and  C_9
REMARK    3  A    between atoms: C_8  and  C_10
REMARK    4  A    between atoms: C_10  and  O_11
REMARK    5  A    between atoms: C_12  and  O_14
REMARK    6  A    between atoms: C_15  and  O_17
REMARK    7  A    between atoms: C_19  and  C_20
REMARK    8  A    between atoms: C_25  and  C_26
REMARK    9  A    between atoms: C_29  and  C_30
REMARK   10  A    between atoms: C_30  and  O_31
REMARK   11  A    between atoms: C_34  and  C_36
REMARK   12  A    between atoms: C_37  and  C_39
REMARK                            x       y       z     vdW  Elec       q    Type
REMARK                         _______ _______ _______ _____ _____    ______ ____
ROOT
ATOM      1  C   LIG A   1      -4.697  -0.961 129.069  0.00  0.00    +0.012 C 
ATOM      2  C   LIG A   1      -6.098  -1.602 128.796  0.00  0.00    -0.019 C 
ATOM      3  C   LIG A   1      -6.065  -2.114 127.337  0.00  0.00    +0.008 C 
ATOM      4  C   LIG A   1      -7.362  -1.999 126.528  0.00  0.00    +0.005 C 
ATOM      5  C   LIG A   1      -8.214  -0.687 126.631  0.00  0.00    +0.006 C 
ATOM      6  C   LIG A   1      -8.610  -0.076 125.216  0.00  0.00    +0.023 C 
ATOM      7  C   LIG A   1      -9.854   0.858 125.327  0.00  0.00    +0.016 C 
ATOM      8  C   LIG A   1      -7.425   0.749 124.646  0.00  0.00    +0.151 C 
ATOM      9  C   LIG A   1      -6.814   1.741 125.666  0.00  0.00    +0.144 C 
ATOM     10  C   LIG A   1      -6.434   1.092 127.009  0.00  0.00    +0.041 C 
ATOM     11  C   LIG A   1      -7.598   0.328 127.679  0.00  0.00    -0.022 C 
ATOM     12  C   LIG A   1      -8.637   1.381 128.149  0.00  0.00    +0.012 C 
ATOM     13  C   LIG A   1      -7.239  -0.544 128.954  0.00  0.00    +0.006 C 
ATOM     14  C   LIG A   1      -7.090   0.156 130.316  0.00  0.00    +0.031 C 
ATOM     15  C   LIG A   1      -7.014  -0.859 131.429  0.00  0.00    -0.026 C 
ATOM     16  C   LIG A   1      -6.744  -2.175 131.282  0.00  0.00    -0.063 C 
ATOM     17  C   LIG A   1      -6.367  -2.775 129.892  0.00  0.00    -0.005 C 
ATOM     18  C   LIG A   1      -7.527  -3.699 129.411  0.00  0.00    +0.016 C 
ATOM     19  C   LIG A   1      -5.099  -3.664 130.090  0.00  0.00    +0.012 C 
ATOM     20  C   LIG A   1      -5.230  -4.731 131.183  0.00  0.00    +0.019 C 
ATOM     21  C   LIG A   1      -5.647  -4.165 132.566  0.00  0.00    +0.074 C 
ATOM     22  C   LIG A   1      -6.861  -3.196 132.431  0.00  0.00    +0.035 C 
ATOM     23  C   LIG A   1      -7.449  -2.737 133.812  0.00  0.00    -0.003 C 
ATOM     24  C   LIG A   1      -6.560  -1.815 134.660  0.00  0.00    +0.008 C 
ATOM     25  C   LIG A   1      -7.883  -4.005 134.602  0.00  0.00    -0.011 C 
ATOM     26  C   LIG A   1      -8.542  -3.685 135.945  0.00  0.00    +0.008 C 
ATOM     27  C   LIG A   1      -6.715  -4.983 134.787  0.00  0.00    +0.004 C 
ATOM     28  C   LIG A   1      -6.078  -5.373 133.451  0.00  0.00    +0.019 C 
ENDROOT
BRANCH   8  29
ATOM     29  O   LIG A   1      -6.362  -0.113 124.201  0.00  0.00    -0.389 OA
ATOM     30  H   LIG A   1      -6.580  -1.000 124.547  0.00  0.00    +0.210 HD
ENDBRANCH   8  29
BRANCH   9  31
ATOM     31  O   LIG A   1      -5.623   2.300 125.094  0.00  0.00    -0.389 OA
ATOM     32  H   LIG A   1      -4.917   2.082 125.737  0.00  0.00    +0.210 HD
ENDBRANCH   9  31
BRANCH  21  33
ATOM     33  C   LIG A   1      -4.390  -3.550 133.187  0.00  0.00    +0.311 C 
ATOM     34  O   LIG A   1      -3.967  -2.420 132.985  0.00  0.00    -0.250 OA
BRANCH  33  35
ATOM     35  O   LIG A   1      -3.759  -4.327 134.082  0.00  0.00    -0.480 OA
ATOM     36  H   LIG A   1      -4.371  -5.078 134.223  0.00  0.00    +0.295 HD
ENDBRANCH  33  35
ENDBRANCH  21  33
BRANCH   6  37
ATOM     37  C   LIG A   1      -9.053  -1.201 124.229  0.00  0.00    +0.165 C 
BRANCH  37  38
ATOM     38  O   LIG A   1      -9.764  -0.655 123.117  0.00  0.00    -0.394 OA
ATOM     39  H   LIG A   1      -9.584   0.303 123.110  0.00  0.00    +0.209 HD
ENDBRANCH  37  38
ENDBRANCH   6  37
TORSDOF 6
ENDMDL
MODEL 6
REMARK VINA RESULT:      -8.2      4.426      6.885
REMARK  Name = NuBBE_1177
REMARK  12 active torsions:
REMARK  status: ('A' for Active; 'I' for Inactive)
REMARK    1  A    between atoms: C_1  and  C_2
REMARK    2  A    between atoms: C_8  and  C_9
REMARK    3  A    between atoms: C_8  and  C_10
REMARK    4  A    between atoms: C_10  and  O_11
REMARK    5  A    between atoms: C_12  and  O_14
REMARK    6  A    between atoms: C_15  and  O_17
REMARK    7  A    between atoms: C_19  and  C_20
REMARK    8  A    between atoms: C_25  and  C_26
REMARK    9  A    between atoms: C_29  and  C_30
REMARK   10  A    between atoms: C_30  and  O_31
REMARK   11  A    between atoms: C_34  and  C_36
REMARK   12  A    between atoms: C_37  and  C_39
REMARK                            x       y       z     vdW  Elec       q    Type
REMARK                         _______ _______ _______ _____ _____    ______ ____
ROOT
ATOM      1  C   LIG A   1      -5.323   2.125 129.546  0.00  0.00    +0.012 C 
ATOM      2  C   LIG A   1      -6.693   1.790 130.224  0.00  0.00    -0.019 C 
ATOM      3  C   LIG A   1      -7.777   2.524 129.399  0.00  0.00    +0.008 C 
ATOM      4  C   LIG A   1      -8.970   3.100 130.171  0.00  0.00    +0.005 C 
ATOM      5  C   LIG A   1      -8.716   3.841 131.529  0.00  0.00    +0.006 C 
ATOM      6  C   LIG A   1      -9.423   5.265 131.615  0.00  0.00    +0.023 C 
ATOM      7  C   LIG A   1      -9.615   5.716 133.095  0.00  0.00    +0.016 C 
ATOM      8  C   LIG A   1      -8.561   6.328 130.884  0.00  0.00    +0.151 C 
ATOM      9  C   LIG A   1      -7.064   6.288 131.279  0.00  0.00    +0.144 C 
ATOM     10  C   LIG A   1      -6.429   4.892 131.159  0.00  0.00    +0.041 C 
ATOM     11  C   LIG A   1      -7.188   3.797 131.942  0.00  0.00    -0.022 C 
ATOM     12  C   LIG A   1      -6.986   4.080 133.455  0.00  0.00    +0.012 C 
ATOM     13  C   LIG A   1      -6.726   2.299 131.702  0.00  0.00    +0.006 C 
ATOM     14  C   LIG A   1      -5.483   1.777 132.442  0.00  0.00    +0.031 C 
ATOM     15  C   LIG A   1      -5.366   0.281 132.293  0.00  0.00    -0.026 C 
ATOM     16  C   LIG A   1      -6.004  -0.475 131.373  0.00  0.00    -0.063 C 
ATOM     17  C   LIG A   1      -6.885   0.174 130.261  0.00  0.00    -0.005 C 
ATOM     18  C   LIG A   1      -8.380  -0.179 130.531  0.00  0.00    +0.016 C 
ATOM     19  C   LIG A   1      -6.480  -0.473 128.899  0.00  0.00    +0.012 C 
ATOM     20  C   LIG A   1      -6.531  -2.006 128.879  0.00  0.00    +0.019 C 
ATOM     21  C   LIG A   1      -5.697  -2.676 130.003  0.00  0.00    +0.074 C 
ATOM     22  C   LIG A   1      -5.990  -2.017 131.385  0.00  0.00    +0.035 C 
ATOM     23  C   LIG A   1      -5.322  -2.770 132.589  0.00  0.00    -0.003 C 
ATOM     24  C   LIG A   1      -3.789  -2.709 132.667  0.00  0.00    +0.008 C 
ATOM     25  C   LIG A   1      -5.841  -4.237 132.594  0.00  0.00    -0.011 C 
ATOM     26  C   LIG A   1      -5.314  -5.061 133.771  0.00  0.00    +0.008 C 
ATOM     27  C   LIG A   1      -5.553  -4.941 131.262  0.00  0.00    +0.004 C 
ATOM     28  C   LIG A   1      -6.127  -4.172 130.070  0.00  0.00    +0.019 C 
ENDROOT
BRANCH   8  29
ATOM     29  O   LIG A   1      -8.629   6.157 129.457  0.00  0.00    -0.389 OA
ATOM     30  H   LIG A   1      -9.241   5.411 129.310  0.00  0.00    +0.210 HD
ENDBRANCH   8  29
BRANCH   9  31
ATOM     31  O   LIG A   1      -6.345   7.175 130.410  0.00  0.00    -0.389 OA
ATOM     32  H   LIG A   1      -6.274   6.685 129.565  0.00  0.00    +0.210 HD
ENDBRANCH   9  31
BRANCH  21  33
ATOM     33  C   LIG A   1      -4.234  -2.625 129.555  0.00  0.00    +0.311 C 
ATOM     34  O   LIG A   1      -3.579  -3.565 129.128  0.00  0.00    -0.250 OA
BRANCH  33  35
ATOM     35  O   LIG A   1      -3.674  -1.404 129.583  0.00  0.00    -0.480 OA
ATOM     36  H   LIG A   1      -3.608  -1.147 128.641  0.00  0.00    +0.295 HD
ENDBRANCH  33  35
ENDBRANCH  21  33
BRANCH   6  37
ATOM     37  C   LIG A   1     -10.871   5.202 131.035  0.00  0.00    +0.165 C 
BRANCH  37  38
ATOM     38  O   LIG A   1     -11.801   5.838 131.913  0.00  0.00    -0.394 OA
ATOM     39  H   LIG A   1     -11.847   5.293 132.719  0.00  0.00    +0.209 HD
ENDBRANCH  37  38
ENDBRANCH   6  37
TORSDOF 6
ENDMDL
MODEL 7
REMARK VINA RESULT:      -8.2      4.151      6.427
REMARK  Name = NuBBE_1177
REMARK  12 active torsions:
REMARK  status: ('A' for Active; 'I' for Inactive)
REMARK    1  A    between atoms: C_1  and  C_2
REMARK    2  A    between atoms: C_8  and  C_9
REMARK    3  A    between atoms: C_8  and  C_10
REMARK    4  A    between atoms: C_10  and  O_11
REMARK    5  A    between atoms: C_12  and  O_14
REMARK    6  A    between atoms: C_15  and  O_17
REMARK    7  A    between atoms: C_19  and  C_20
REMARK    8  A    between atoms: C_25  and  C_26
REMARK    9  A    between atoms: C_29  and  C_30
REMARK   10  A    between atoms: C_30  and  O_31
REMARK   11  A    between atoms: C_34  and  C_36
REMARK   12  A    between atoms: C_37  and  C_39
REMARK                            x       y       z     vdW  Elec       q    Type
REMARK                         _______ _______ _______ _____ _____    ______ ____
ROOT
ATOM      1  C   LIG A   1      -7.907   0.786 129.808  0.00  0.00    +0.012 C 
ATOM      2  C   LIG A   1      -7.515   1.502 128.473  0.00  0.00    -0.019 C 
ATOM      3  C   LIG A   1      -8.751   1.403 127.548  0.00  0.00    +0.008 C 
ATOM      4  C   LIG A   1      -8.487   1.210 126.050  0.00  0.00    +0.005 C 
ATOM      5  C   LIG A   1      -7.375   0.203 125.593  0.00  0.00    +0.006 C 
ATOM      6  C   LIG A   1      -7.869  -0.826 124.483  0.00  0.00    +0.023 C 
ATOM      7  C   LIG A   1      -6.671  -1.418 123.681  0.00  0.00    +0.016 C 
ATOM      8  C   LIG A   1      -8.640  -1.995 125.153  0.00  0.00    +0.151 C 
ATOM      9  C   LIG A   1      -7.899  -2.609 126.366  0.00  0.00    +0.144 C 
ATOM     10  C   LIG A   1      -7.461  -1.571 127.414  0.00  0.00    +0.041 C 
ATOM     11  C   LIG A   1      -6.609  -0.422 126.829  0.00  0.00    -0.022 C 
ATOM     12  C   LIG A   1      -5.236  -1.020 126.421  0.00  0.00    +0.012 C 
ATOM     13  C   LIG A   1      -6.296   0.796 127.794  0.00  0.00    +0.006 C 
ATOM     14  C   LIG A   1      -5.160   0.657 128.823  0.00  0.00    +0.031 C 
ATOM     15  C   LIG A   1      -4.847   1.992 129.451  0.00  0.00    -0.026 C 
ATOM     16  C   LIG A   1      -5.642   3.084 129.426  0.00  0.00    -0.063 C 
ATOM     17  C   LIG A   1      -7.071   3.033 128.803  0.00  0.00    -0.005 C 
ATOM     18  C   LIG A   1      -7.082   3.885 127.498  0.00  0.00    +0.016 C 
ATOM     19  C   LIG A   1      -8.052   3.699 129.817  0.00  0.00    +0.012 C 
ATOM     20  C   LIG A   1      -7.650   5.109 130.266  0.00  0.00    +0.019 C 
ATOM     21  C   LIG A   1      -6.215   5.196 130.850  0.00  0.00    +0.074 C 
ATOM     22  C   LIG A   1      -5.190   4.472 129.925  0.00  0.00    +0.035 C 
ATOM     23  C   LIG A   1      -3.697   4.684 130.362  0.00  0.00    -0.003 C 
ATOM     24  C   LIG A   1      -3.270   4.020 131.679  0.00  0.00    +0.008 C 
ATOM     25  C   LIG A   1      -3.404   6.212 130.365  0.00  0.00    -0.011 C 
ATOM     26  C   LIG A   1      -1.951   6.548 130.708  0.00  0.00    +0.008 C 
ATOM     27  C   LIG A   1      -4.371   6.970 131.283  0.00  0.00    +0.004 C 
ATOM     28  C   LIG A   1      -5.833   6.705 130.921  0.00  0.00    +0.019 C 
ENDROOT
BRANCH   8  29
ATOM     29  O   LIG A   1      -9.933  -1.565 125.616  0.00  0.00    -0.389 OA
ATOM     30  H   LIG A   1     -10.318  -2.337 126.074  0.00  0.00    +0.210 HD
ENDBRANCH   8  29
BRANCH   9  31
ATOM     31  O   LIG A   1      -8.782  -3.539 127.010  0.00  0.00    -0.389 OA
ATOM     32  H   LIG A   1      -9.410  -3.807 126.306  0.00  0.00    +0.210 HD
ENDBRANCH   9  31
BRANCH  21  33
ATOM     33  C   LIG A   1      -6.290   4.660 132.283  0.00  0.00    +0.311 C 
ATOM     34  O   LIG A   1      -6.219   3.485 132.616  0.00  0.00    -0.250 OA
BRANCH  33  35
ATOM     35  O   LIG A   1      -6.371   5.601 133.237  0.00  0.00    -0.480 OA
ATOM     36  H   LIG A   1      -5.711   6.273 132.971  0.00  0.00    +0.295 HD
ENDBRANCH  33  35
ENDBRANCH  21  33
BRANCH   6  37
ATOM     37  C   LIG A   1      -8.742  -0.106 123.407  0.00  0.00    +0.165 C 
BRANCH  37  38
ATOM     38  O   LIG A   1      -9.777  -0.966 122.930  0.00  0.00    -0.394 OA
ATOM     39  H   LIG A   1     -10.515  -0.393 122.651  0.00  0.00    +0.209 HD
ENDBRANCH  37  38
ENDBRANCH   6  37
TORSDOF 6
ENDMDL
MODEL 8
REMARK VINA RESULT:      -7.8      3.843      8.225
REMARK  Name = NuBBE_1177
REMARK  12 active torsions:
REMARK  status: ('A' for Active; 'I' for Inactive)
REMARK    1  A    between atoms: C_1  and  C_2
REMARK    2  A    between atoms: C_8  and  C_9
REMARK    3  A    between atoms: C_8  and  C_10
REMARK    4  A    between atoms: C_10  and  O_11
REMARK    5  A    between atoms: C_12  and  O_14
REMARK    6  A    between atoms: C_15  and  O_17
REMARK    7  A    between atoms: C_19  and  C_20
REMARK    8  A    between atoms: C_25  and  C_26
REMARK    9  A    between atoms: C_29  and  C_30
REMARK   10  A    between atoms: C_30  and  O_31
REMARK   11  A    between atoms: C_34  and  C_36
REMARK   12  A    between atoms: C_37  and  C_39
REMARK                            x       y       z     vdW  Elec       q    Type
REMARK                         _______ _______ _______ _____ _____    ______ ____
ROOT
ATOM      1  C   LIG A   1      -6.595  -0.369 129.353  0.00  0.00    +0.012 C 
ATOM      2  C   LIG A   1      -6.111   0.076 130.773  0.00  0.00    -0.019 C 
ATOM      3  C   LIG A   1      -4.642  -0.391 130.897  0.00  0.00    +0.008 C 
ATOM      4  C   LIG A   1      -4.179  -0.878 132.276  0.00  0.00    +0.005 C 
ATOM      5  C   LIG A   1      -5.124  -1.804 133.117  0.00  0.00    +0.006 C 
ATOM      6  C   LIG A   1      -4.402  -3.112 133.668  0.00  0.00    +0.023 C 
ATOM      7  C   LIG A   1      -5.158  -3.704 134.896  0.00  0.00    +0.016 C 
ATOM      8  C   LIG A   1      -4.347  -4.193 132.556  0.00  0.00    +0.151 C 
ATOM      9  C   LIG A   1      -5.703  -4.416 131.842  0.00  0.00    +0.144 C 
ATOM     10  C   LIG A   1      -6.344  -3.121 131.314  0.00  0.00    +0.041 C 
ATOM     11  C   LIG A   1      -6.514  -2.030 132.395  0.00  0.00    -0.022 C 
ATOM     12  C   LIG A   1      -7.610  -2.516 133.381  0.00  0.00    +0.012 C 
ATOM     13  C   LIG A   1      -6.970  -0.595 131.894  0.00  0.00    +0.006 C 
ATOM     14  C   LIG A   1      -8.460  -0.349 131.601  0.00  0.00    +0.031 C 
ATOM     15  C   LIG A   1      -8.725   1.122 131.399  0.00  0.00    -0.026 C 
ATOM     16  C   LIG A   1      -7.793   2.065 131.141  0.00  0.00    -0.063 C 
ATOM     17  C   LIG A   1      -6.296   1.687 130.916  0.00  0.00    -0.005 C 
ATOM     18  C   LIG A   1      -5.456   2.216 132.117  0.00  0.00    +0.016 C 
ATOM     19  C   LIG A   1      -5.810   2.427 129.630  0.00  0.00    +0.012 C 
ATOM     20  C   LIG A   1      -6.045   3.942 129.636  0.00  0.00    +0.019 C 
ATOM     21  C   LIG A   1      -7.519   4.347 129.902  0.00  0.00    +0.074 C 
ATOM     22  C   LIG A   1      -8.099   3.577 131.128  0.00  0.00    +0.035 C 
ATOM     23  C   LIG A   1      -9.521   4.078 131.563  0.00  0.00    -0.003 C 
ATOM     24  C   LIG A   1     -10.674   3.788 130.591  0.00  0.00    +0.008 C 
ATOM     25  C   LIG A   1      -9.420   5.593 131.903  0.00  0.00    -0.011 C 
ATOM     26  C   LIG A   1     -10.735   6.187 132.412  0.00  0.00    +0.008 C 
ATOM     27  C   LIG A   1      -8.879   6.402 130.717  0.00  0.00    +0.004 C 
ATOM     28  C   LIG A   1      -7.530   5.870 130.228  0.00  0.00    +0.019 C 
ENDROOT
BRANCH   8  29
ATOM     29  O   LIG A   1      -3.384  -3.846 131.544  0.00  0.00    -0.389 OA
ATOM     30  H   LIG A   1      -2.706  -4.548 131.575  0.00  0.00    +0.210 HD
ENDBRANCH   8  29
BRANCH   9  31
ATOM     31  O   LIG A   1      -5.484  -5.287 130.723  0.00  0.00    -0.389 OA
ATOM     32  H   LIG A   1      -4.893  -5.987 131.070  0.00  0.00    +0.210 HD
ENDBRANCH   9  31
BRANCH  21  33
ATOM     33  C   LIG A   1      -8.276   4.140 128.587  0.00  0.00    +0.311 C 
ATOM     34  O   LIG A   1      -8.635   3.066 128.124  0.00  0.00    -0.250 OA
BRANCH  33  35
ATOM     35  O   LIG A   1      -8.621   5.269 127.946  0.00  0.00    -0.480 OA
ATOM     36  H   LIG A   1      -9.547   5.429 128.221  0.00  0.00    +0.295 HD
ENDBRANCH  33  35
ENDBRANCH  21  33
BRANCH   6  37
ATOM     37  C   LIG A   1      -2.978  -2.774 134.212  0.00  0.00    +0.165 C 
BRANCH  37  38
ATOM     38  O   LIG A   1      -2.083  -3.870 134.016  0.00  0.00    -0.394 OA
ATOM     39  H   LIG A   1      -1.224  -3.490 133.756  0.00  0.00    +0.209 HD
ENDBRANCH  37  38
ENDBRANCH   6  37
TORSDOF 6
ENDMDL
MODEL 9
REMARK VINA RESULT:      -7.7      1.642      8.387
REMARK  Name = NuBBE_1177
REMARK  12 active torsions:
REMARK  status: ('A' for Active; 'I' for Inactive)
REMARK    1  A    between atoms: C_1  and  C_2
REMARK    2  A    between atoms: C_8  and  C_9
REMARK    3  A    between atoms: C_8  and  C_10
REMARK    4  A    between atoms: C_10  and  O_11
REMARK    5  A    between atoms: C_12  and  O_14
REMARK    6  A    between atoms: C_15  and  O_17
REMARK    7  A    between atoms: C_19  and  C_20
REMARK    8  A    between atoms: C_25  and  C_26
REMARK    9  A    between atoms: C_29  and  C_30
REMARK   10  A    between atoms: C_30  and  O_31
REMARK   11  A    between atoms: C_34  and  C_36
REMARK   12  A    between atoms: C_37  and  C_39
REMARK                            x       y       z     vdW  Elec       q    Type
REMARK                         _______ _______ _______ _____ _____    ______ ____
ROOT
ATOM      1  C   LIG A   1      -4.705  -0.771 130.608  0.00  0.00    +0.012 C 
ATOM      2  C   LIG A   1      -6.078  -1.457 130.908  0.00  0.00    -0.019 C 
ATOM      3  C   LIG A   1      -6.531  -0.937 132.292  0.00  0.00    +0.008 C 
ATOM      4  C   LIG A   1      -7.268  -1.927 133.202  0.00  0.00    +0.005 C 
ATOM      5  C   LIG A   1      -6.743  -3.400 133.313  0.00  0.00    +0.006 C 
ATOM      6  C   LIG A   1      -6.567  -3.899 134.814  0.00  0.00    +0.023 C 
ATOM      7  C   LIG A   1      -6.581  -5.456 134.902  0.00  0.00    +0.016 C 
ATOM      8  C   LIG A   1      -5.218  -3.386 135.386  0.00  0.00    +0.151 C 
ATOM      9  C   LIG A   1      -4.014  -3.630 134.443  0.00  0.00    +0.144 C 
ATOM     10  C   LIG A   1      -4.234  -3.112 133.011  0.00  0.00    +0.041 C 
ATOM     11  C   LIG A   1      -5.517  -3.658 132.346  0.00  0.00    -0.022 C 
ATOM     12  C   LIG A   1      -5.296  -5.170 132.076  0.00  0.00    +0.012 C 
ATOM     13  C   LIG A   1      -5.929  -3.013 130.956  0.00  0.00    +0.006 C 
ATOM     14  C   LIG A   1      -5.222  -3.490 129.676  0.00  0.00    +0.031 C 
ATOM     15  C   LIG A   1      -5.928  -2.963 128.452  0.00  0.00    -0.026 C 
ATOM     16  C   LIG A   1      -6.811  -1.941 128.427  0.00  0.00    -0.063 C 
ATOM     17  C   LIG A   1      -7.121  -1.105 129.708  0.00  0.00    -0.005 C 
ATOM     18  C   LIG A   1      -8.581  -1.404 130.164  0.00  0.00    +0.016 C 
ATOM     19  C   LIG A   1      -7.042   0.404 129.317  0.00  0.00    +0.012 C 
ATOM     20  C   LIG A   1      -7.917   0.802 128.122  0.00  0.00    +0.019 C 
ATOM     21  C   LIG A   1      -7.659  -0.044 126.847  0.00  0.00    +0.074 C 
ATOM     22  C   LIG A   1      -7.638  -1.566 127.181  0.00  0.00    +0.035 C 
ATOM     23  C   LIG A   1      -7.570  -2.483 125.908  0.00  0.00    -0.003 C 
ATOM     24  C   LIG A   1      -6.259  -2.443 125.108  0.00  0.00    +0.008 C 
ATOM     25  C   LIG A   1      -8.802  -2.165 125.013  0.00  0.00    -0.011 C 
ATOM     26  C   LIG A   1      -8.888  -3.049 123.767  0.00  0.00    +0.008 C 
ATOM     27  C   LIG A   1      -8.855  -0.680 124.632  0.00  0.00    +0.004 C 
ATOM     28  C   LIG A   1      -8.836   0.229 125.864  0.00  0.00    +0.019 C 
ENDROOT
BRANCH   8  29
ATOM     29  O   LIG A   1      -5.272  -1.973 135.650  0.00  0.00    -0.389 OA
ATOM     30  H   LIG A   1      -4.568  -1.576 135.102  0.00  0.00    +0.210 HD
ENDBRANCH   8  29
BRANCH   9  31
ATOM     31  O   LIG A   1      -2.872  -2.953 134.987  0.00  0.00    -0.389 OA
ATOM     32  H   LIG A   1      -2.318  -2.743 134.207  0.00  0.00    +0.210 HD
ENDBRANCH   9  31
BRANCH  21  33
ATOM     33  C   LIG A   1      -6.376   0.500 126.210  0.00  0.00    +0.311 C 
ATOM     34  O   LIG A   1      -5.235   0.170 126.497  0.00  0.00    -0.250 OA
BRANCH  33  35
ATOM     35  O   LIG A   1      -6.567   1.365 125.200  0.00  0.00    -0.480 OA
ATOM     36  H   LIG A   1      -6.872   2.185 125.639  0.00  0.00    +0.295 HD
ENDBRANCH  33  35
ENDBRANCH  21  33
BRANCH   6  37
ATOM     37  C   LIG A   1      -7.773  -3.447 135.696  0.00  0.00    +0.165 C 
BRANCH  37  38
ATOM     38  O   LIG A   1      -8.963  -4.149 135.333  0.00  0.00    -0.394 OA
ATOM     39  H   LIG A   1      -8.870  -4.396 134.395  0.00  0.00    +0.209 HD
ENDBRANCH  37  38
ENDBRANCH   6  37
TORSDOF 6
ENDMDL
