MODEL 1
REMARK VINA RESULT:      -7.4      0.000      0.000
REMARK  Name = NuBBE_1159
REMARK  2 active torsions:
REMARK  status: ('A' for Active; 'I' for Inactive)
REMARK    1  A    between atoms: C_4  and  C_5
REMARK    2  A    between atoms: N_11  and  C_12
REMARK                            x       y       z     vdW  Elec       q    Type
REMARK                         _______ _______ _______ _____ _____    ______ ____
ROOT
ATOM      1  O   LIG A   1     -13.391   7.560 131.821  0.00  0.00    -0.287 OA
ATOM      2  C   LIG A   1     -12.335   7.142 131.358  0.00  0.00    +0.190 A 
ATOM      3  C   LIG A   1     -11.402   6.385 132.208  0.00  0.00    +0.077 A 
ATOM      4  C   LIG A   1     -10.252   5.946 131.678  0.00  0.00    +0.053 A 
ATOM      5  N   LIG A   1      -9.857   6.155 130.354  0.00  0.00    -0.343 N 
ATOM      6  C   LIG A   1      -8.586   5.680 129.796  0.00  0.00    +0.149 C 
ATOM      7  C   LIG A   1     -10.718   6.868 129.475  0.00  0.00    +0.053 A 
ATOM      8  C   LIG A   1     -11.951   7.368 129.947  0.00  0.00    +0.045 A 
ATOM      9  C   LIG A   1     -12.831   8.078 129.117  0.00  0.00    +0.013 A 
ATOM     10  C   LIG A   1     -12.500   8.303 127.786  0.00  0.00    +0.001 A 
ATOM     11  C   LIG A   1     -11.293   7.822 127.290  0.00  0.00    +0.002 A 
ATOM     12  C   LIG A   1     -10.416   7.114 128.123  0.00  0.00    +0.026 A 
ENDROOT
BRANCH   4  13
ATOM     13  C   LIG A   1      -9.381   5.189 132.598  0.00  0.00    -0.001 A 
ATOM     14  C   LIG A   1      -8.534   5.864 133.488  0.00  0.00    +0.010 A 
ATOM     15  C   LIG A   1      -7.719   5.146 134.364  0.00  0.00    +0.001 A 
ATOM     16  C   LIG A   1      -7.748   3.752 134.359  0.00  0.00    +0.000 A 
ATOM     17  C   LIG A   1      -8.591   3.072 133.480  0.00  0.00    +0.001 A 
ATOM     18  C   LIG A   1      -9.407   3.787 132.603  0.00  0.00    +0.010 A 
ENDBRANCH   4  13
TORSDOF 1
ENDMDL
MODEL 2
REMARK VINA RESULT:      -6.9      9.313     10.416
REMARK  Name = NuBBE_1159
REMARK  2 active torsions:
REMARK  status: ('A' for Active; 'I' for Inactive)
REMARK    1  A    between atoms: C_4  and  C_5
REMARK    2  A    between atoms: N_11  and  C_12
REMARK                            x       y       z     vdW  Elec       q    Type
REMARK                         _______ _______ _______ _____ _____    ______ ____
ROOT
ATOM      1  O   LIG A   1      -5.253  -0.682 125.470  0.00  0.00    -0.287 OA
ATOM      2  C   LIG A   1      -6.111  -1.404 125.963  0.00  0.00    +0.190 A 
ATOM      3  C   LIG A   1      -6.086  -1.706 127.404  0.00  0.00    +0.077 A 
ATOM      4  C   LIG A   1      -7.033  -2.506 127.916  0.00  0.00    +0.053 A 
ATOM      5  N   LIG A   1      -8.064  -3.090 127.175  0.00  0.00    -0.343 N 
ATOM      6  C   LIG A   1      -9.082  -3.975 127.751  0.00  0.00    +0.149 C 
ATOM      7  C   LIG A   1      -8.153  -2.829 125.780  0.00  0.00    +0.053 A 
ATOM      8  C   LIG A   1      -7.199  -1.998 125.155  0.00  0.00    +0.045 A 
ATOM      9  C   LIG A   1      -7.247  -1.714 123.783  0.00  0.00    +0.013 A 
ATOM     10  C   LIG A   1      -8.259  -2.254 122.997  0.00  0.00    +0.001 A 
ATOM     11  C   LIG A   1      -9.215  -3.075 123.583  0.00  0.00    +0.002 A 
ATOM     12  C   LIG A   1      -9.164  -3.357 124.956  0.00  0.00    +0.026 A 
ENDROOT
BRANCH   4  13
ATOM     13  C   LIG A   1      -6.938  -2.748 129.368  0.00  0.00    -0.001 A 
ATOM     14  C   LIG A   1      -6.131  -3.783 129.862  0.00  0.00    +0.010 A 
ATOM     15  C   LIG A   1      -6.035  -4.003 131.237  0.00  0.00    +0.001 A 
ATOM     16  C   LIG A   1      -6.739  -3.190 132.125  0.00  0.00    +0.000 A 
ATOM     17  C   LIG A   1      -7.539  -2.155 131.642  0.00  0.00    +0.001 A 
ATOM     18  C   LIG A   1      -7.638  -1.932 130.268  0.00  0.00    +0.010 A 
ENDBRANCH   4  13
TORSDOF 1
ENDMDL
MODEL 3
REMARK VINA RESULT:      -6.9      8.415     10.332
REMARK  Name = NuBBE_1159
REMARK  2 active torsions:
REMARK  status: ('A' for Active; 'I' for Inactive)
REMARK    1  A    between atoms: C_4  and  C_5
REMARK    2  A    between atoms: N_11  and  C_12
REMARK                            x       y       z     vdW  Elec       q    Type
REMARK                         _______ _______ _______ _____ _____    ______ ____
ROOT
ATOM      1  O   LIG A   1     -10.507  -0.002 122.294  0.00  0.00    -0.287 OA
ATOM      2  C   LIG A   1      -9.520   0.027 123.020  0.00  0.00    +0.190 A 
ATOM      3  C   LIG A   1      -8.889   1.311 123.362  0.00  0.00    +0.077 A 
ATOM      4  C   LIG A   1      -7.806   1.313 124.152  0.00  0.00    +0.053 A 
ATOM      5  N   LIG A   1      -7.213   0.167 124.687  0.00  0.00    -0.343 N 
ATOM      6  C   LIG A   1      -6.018   0.187 125.538  0.00  0.00    +0.149 C 
ATOM      7  C   LIG A   1      -7.781  -1.107 124.407  0.00  0.00    +0.053 A 
ATOM      8  C   LIG A   1      -8.923  -1.204 123.584  0.00  0.00    +0.045 A 
ATOM      9  C   LIG A   1      -9.516  -2.438 123.279  0.00  0.00    +0.013 A 
ATOM     10  C   LIG A   1      -8.980  -3.612 123.796  0.00  0.00    +0.001 A 
ATOM     11  C   LIG A   1      -7.856  -3.550 124.612  0.00  0.00    +0.002 A 
ATOM     12  C   LIG A   1      -7.266  -2.314 124.914  0.00  0.00    +0.026 A 
ENDROOT
BRANCH   4  13
ATOM     13  C   LIG A   1      -7.243   2.644 124.450  0.00  0.00    -0.001 A 
ATOM     14  C   LIG A   1      -6.226   3.179 123.648  0.00  0.00    +0.010 A 
ATOM     15  C   LIG A   1      -5.703   4.443 123.927  0.00  0.00    +0.001 A 
ATOM     16  C   LIG A   1      -6.195   5.179 125.004  0.00  0.00    +0.000 A 
ATOM     17  C   LIG A   1      -7.211   4.657 125.804  0.00  0.00    +0.001 A 
ATOM     18  C   LIG A   1      -7.736   3.393 125.528  0.00  0.00    +0.010 A 
ENDBRANCH   4  13
TORSDOF 1
ENDMDL
MODEL 4
REMARK VINA RESULT:      -6.8      9.231     10.333
REMARK  Name = NuBBE_1159
REMARK  2 active torsions:
REMARK  status: ('A' for Active; 'I' for Inactive)
REMARK    1  A    between atoms: C_4  and  C_5
REMARK    2  A    between atoms: N_11  and  C_12
REMARK                            x       y       z     vdW  Elec       q    Type
REMARK                         _______ _______ _______ _____ _____    ______ ____
ROOT
ATOM      1  O   LIG A   1     -10.147  -3.283 125.847  0.00  0.00    -0.287 OA
ATOM      2  C   LIG A   1      -9.018  -3.013 126.241  0.00  0.00    +0.190 A 
ATOM      3  C   LIG A   1      -8.695  -3.093 127.675  0.00  0.00    +0.077 A 
ATOM      4  C   LIG A   1      -7.455  -2.785 128.080  0.00  0.00    +0.053 A 
ATOM      5  N   LIG A   1      -6.420  -2.383 127.230  0.00  0.00    -0.343 N 
ATOM      6  C   LIG A   1      -5.073  -2.035 127.694  0.00  0.00    +0.149 C 
ATOM      7  C   LIG A   1      -6.661  -2.298 125.832  0.00  0.00    +0.053 A 
ATOM      8  C   LIG A   1      -7.939  -2.603 125.316  0.00  0.00    +0.045 A 
ATOM      9  C   LIG A   1      -8.222  -2.531 123.944  0.00  0.00    +0.013 A 
ATOM     10  C   LIG A   1      -7.228  -2.152 123.048  0.00  0.00    +0.001 A 
ATOM     11  C   LIG A   1      -5.959  -1.846 123.525  0.00  0.00    +0.002 A 
ATOM     12  C   LIG A   1      -5.680  -1.919 124.897  0.00  0.00    +0.026 A 
ENDROOT
BRANCH   4  13
ATOM     13  C   LIG A   1      -7.217  -2.901 129.531  0.00  0.00    -0.001 A 
ATOM     14  C   LIG A   1      -6.468  -3.970 130.043  0.00  0.00    +0.010 A 
ATOM     15  C   LIG A   1      -6.236  -4.071 131.416  0.00  0.00    +0.001 A 
ATOM     16  C   LIG A   1      -6.745  -3.105 132.282  0.00  0.00    +0.000 A 
ATOM     17  C   LIG A   1      -7.486  -2.035 131.781  0.00  0.00    +0.001 A 
ATOM     18  C   LIG A   1      -7.721  -1.931 130.409  0.00  0.00    +0.010 A 
ENDBRANCH   4  13
TORSDOF 1
ENDMDL
MODEL 5
REMARK VINA RESULT:      -6.8      2.056      6.087
REMARK  Name = NuBBE_1159
REMARK  2 active torsions:
REMARK  status: ('A' for Active; 'I' for Inactive)
REMARK    1  A    between atoms: C_4  and  C_5
REMARK    2  A    between atoms: N_11  and  C_12
REMARK                            x       y       z     vdW  Elec       q    Type
REMARK                         _______ _______ _______ _____ _____    ______ ____
ROOT
ATOM      1  O   LIG A   1      -6.718   6.444 132.295  0.00  0.00    -0.287 OA
ATOM      2  C   LIG A   1      -7.751   5.953 131.855  0.00  0.00    +0.190 A 
ATOM      3  C   LIG A   1      -8.684   6.774 131.066  0.00  0.00    +0.077 A 
ATOM      4  C   LIG A   1      -9.811   6.213 130.604  0.00  0.00    +0.053 A 
ATOM      5  N   LIG A   1     -10.180   4.883 130.817  0.00  0.00    -0.343 N 
ATOM      6  C   LIG A   1     -11.425   4.291 130.315  0.00  0.00    +0.149 C 
ATOM      7  C   LIG A   1      -9.316   4.031 131.559  0.00  0.00    +0.053 A 
ATOM      8  C   LIG A   1      -8.108   4.536 132.085  0.00  0.00    +0.045 A 
ATOM      9  C   LIG A   1      -7.227   3.734 132.825  0.00  0.00    +0.013 A 
ATOM     10  C   LIG A   1      -7.533   2.396 133.055  0.00  0.00    +0.001 A 
ATOM     11  C   LIG A   1      -8.715   1.869 132.549  0.00  0.00    +0.002 A 
ATOM     12  C   LIG A   1      -9.593   2.674 131.810  0.00  0.00    +0.026 A 
ENDROOT
BRANCH   4  13
ATOM     13  C   LIG A   1     -10.683   7.105 129.817  0.00  0.00    -0.001 A 
ATOM     14  C   LIG A   1     -10.382   7.391 128.478  0.00  0.00    +0.010 A 
ATOM     15  C   LIG A   1     -11.215   8.227 127.733  0.00  0.00    +0.001 A 
ATOM     16  C   LIG A   1     -12.354   8.778 128.319  0.00  0.00    +0.000 A 
ATOM     17  C   LIG A   1     -12.665   8.494 129.648  0.00  0.00    +0.001 A 
ATOM     18  C   LIG A   1     -11.834   7.659 130.396  0.00  0.00    +0.010 A 
ENDBRANCH   4  13
TORSDOF 1
ENDMDL
MODEL 6
REMARK VINA RESULT:      -6.7      7.737      9.525
REMARK  Name = NuBBE_1159
REMARK  2 active torsions:
REMARK  status: ('A' for Active; 'I' for Inactive)
REMARK    1  A    between atoms: C_4  and  C_5
REMARK    2  A    between atoms: N_11  and  C_12
REMARK                            x       y       z     vdW  Elec       q    Type
REMARK                         _______ _______ _______ _____ _____    ______ ____
ROOT
ATOM      1  O   LIG A   1      -8.811   3.815 125.082  0.00  0.00    -0.287 OA
ATOM      2  C   LIG A   1      -8.061   2.854 125.214  0.00  0.00    +0.190 A 
ATOM      3  C   LIG A   1      -8.541   1.494 124.916  0.00  0.00    +0.077 A 
ATOM      4  C   LIG A   1      -7.702   0.460 125.076  0.00  0.00    +0.053 A 
ATOM      5  N   LIG A   1      -6.380   0.572 125.515  0.00  0.00    -0.343 N 
ATOM      6  C   LIG A   1      -5.482  -0.574 125.699  0.00  0.00    +0.149 C 
ATOM      7  C   LIG A   1      -5.850   1.858 125.806  0.00  0.00    +0.053 A 
ATOM      8  C   LIG A   1      -6.661   3.005 125.666  0.00  0.00    +0.045 A 
ATOM      9  C   LIG A   1      -6.181   4.293 125.944  0.00  0.00    +0.013 A 
ATOM     10  C   LIG A   1      -4.868   4.468 126.368  0.00  0.00    +0.001 A 
ATOM     11  C   LIG A   1      -4.043   3.359 126.515  0.00  0.00    +0.002 A 
ATOM     12  C   LIG A   1      -4.527   2.073 126.236  0.00  0.00    +0.026 A 
ENDROOT
BRANCH   4  13
ATOM     13  C   LIG A   1      -8.263  -0.864 124.748  0.00  0.00    -0.001 A 
ATOM     14  C   LIG A   1      -8.855  -1.651 125.746  0.00  0.00    +0.010 A 
ATOM     15  C   LIG A   1      -9.393  -2.899 125.430  0.00  0.00    +0.001 A 
ATOM     16  C   LIG A   1      -9.347  -3.366 124.117  0.00  0.00    +0.000 A 
ATOM     17  C   LIG A   1      -8.765  -2.588 123.117  0.00  0.00    +0.001 A 
ATOM     18  C   LIG A   1      -8.225  -1.340 123.429  0.00  0.00    +0.010 A 
ENDBRANCH   4  13
TORSDOF 1
ENDMDL
MODEL 7
REMARK VINA RESULT:      -6.7      1.662      2.762
REMARK  Name = NuBBE_1159
REMARK  2 active torsions:
REMARK  status: ('A' for Active; 'I' for Inactive)
REMARK    1  A    between atoms: C_4  and  C_5
REMARK    2  A    between atoms: N_11  and  C_12
REMARK                            x       y       z     vdW  Elec       q    Type
REMARK                         _______ _______ _______ _____ _____    ______ ____
ROOT
ATOM      1  O   LIG A   1      -9.033   5.761 127.479  0.00  0.00    -0.287 OA
ATOM      2  C   LIG A   1      -9.638   5.985 128.522  0.00  0.00    +0.190 A 
ATOM      3  C   LIG A   1      -9.131   5.457 129.799  0.00  0.00    +0.077 A 
ATOM      4  C   LIG A   1      -9.816   5.710 130.924  0.00  0.00    +0.053 A 
ATOM      5  N   LIG A   1     -11.000   6.450 130.982  0.00  0.00    -0.343 N 
ATOM      6  C   LIG A   1     -11.743   6.703 132.221  0.00  0.00    +0.149 C 
ATOM      7  C   LIG A   1     -11.537   7.000 129.785  0.00  0.00    +0.053 A 
ATOM      8  C   LIG A   1     -10.882   6.784 128.554  0.00  0.00    +0.045 A 
ATOM      9  C   LIG A   1     -11.376   7.305 127.349  0.00  0.00    +0.013 A 
ATOM     10  C   LIG A   1     -12.542   8.063 127.347  0.00  0.00    +0.001 A 
ATOM     11  C   LIG A   1     -13.209   8.295 128.544  0.00  0.00    +0.002 A 
ATOM     12  C   LIG A   1     -12.712   7.772 129.746  0.00  0.00    +0.026 A 
ENDROOT
BRANCH   4  13
ATOM     13  C   LIG A   1      -9.232   5.151 132.158  0.00  0.00    -0.001 A 
ATOM     14  C   LIG A   1      -9.436   3.805 132.491  0.00  0.00    +0.010 A 
ATOM     15  C   LIG A   1      -8.873   3.276 133.654  0.00  0.00    +0.001 A 
ATOM     16  C   LIG A   1      -8.103   4.087 134.487  0.00  0.00    +0.000 A 
ATOM     17  C   LIG A   1      -7.891   5.425 134.160  0.00  0.00    +0.001 A 
ATOM     18  C   LIG A   1      -8.452   5.958 132.998  0.00  0.00    +0.010 A 
ENDBRANCH   4  13
TORSDOF 1
ENDMDL
MODEL 8
REMARK VINA RESULT:      -6.7      8.633      9.736
REMARK  Name = NuBBE_1159
REMARK  2 active torsions:
REMARK  status: ('A' for Active; 'I' for Inactive)
REMARK    1  A    between atoms: C_4  and  C_5
REMARK    2  A    between atoms: N_11  and  C_12
REMARK                            x       y       z     vdW  Elec       q    Type
REMARK                         _______ _______ _______ _____ _____    ______ ____
ROOT
ATOM      1  O   LIG A   1      -8.769  -3.217 123.203  0.00  0.00    -0.287 OA
ATOM      2  C   LIG A   1      -8.624  -2.405 124.110  0.00  0.00    +0.190 A 
ATOM      3  C   LIG A   1      -7.996  -2.814 125.377  0.00  0.00    +0.077 A 
ATOM      4  C   LIG A   1      -7.857  -1.907 126.355  0.00  0.00    +0.053 A 
ATOM      5  N   LIG A   1      -8.272  -0.576 126.268  0.00  0.00    -0.343 N 
ATOM      6  C   LIG A   1      -8.126   0.398 127.355  0.00  0.00    +0.149 C 
ATOM      7  C   LIG A   1      -8.874  -0.112 125.066  0.00  0.00    +0.053 A 
ATOM      8  C   LIG A   1      -9.061  -0.997 123.983  0.00  0.00    +0.045 A 
ATOM      9  C   LIG A   1      -9.652  -0.585 122.780  0.00  0.00    +0.013 A 
ATOM     10  C   LIG A   1     -10.071   0.733 122.628  0.00  0.00    +0.001 A 
ATOM     11  C   LIG A   1      -9.899   1.630 123.676  0.00  0.00    +0.002 A 
ATOM     12  C   LIG A   1      -9.308   1.213 124.877  0.00  0.00    +0.026 A 
ENDROOT
BRANCH   4  13
ATOM     13  C   LIG A   1      -7.210  -2.400 127.586  0.00  0.00    -0.001 A 
ATOM     14  C   LIG A   1      -7.974  -2.997 128.598  0.00  0.00    +0.010 A 
ATOM     15  C   LIG A   1      -7.358  -3.472 129.757  0.00  0.00    +0.001 A 
ATOM     16  C   LIG A   1      -5.976  -3.357 129.910  0.00  0.00    +0.000 A 
ATOM     17  C   LIG A   1      -5.208  -2.769 128.905  0.00  0.00    +0.001 A 
ATOM     18  C   LIG A   1      -5.821  -2.293 127.745  0.00  0.00    +0.010 A 
ENDBRANCH   4  13
TORSDOF 1
ENDMDL
MODEL 9
REMARK VINA RESULT:      -6.6      8.466     10.890
REMARK  Name = NuBBE_1159
REMARK  2 active torsions:
REMARK  status: ('A' for Active; 'I' for Inactive)
REMARK    1  A    between atoms: C_4  and  C_5
REMARK    2  A    between atoms: N_11  and  C_12
REMARK                            x       y       z     vdW  Elec       q    Type
REMARK                         _______ _______ _______ _____ _____    ______ ____
ROOT
ATOM      1  O   LIG A   1      -9.401  -3.590 124.250  0.00  0.00    -0.287 OA
ATOM      2  C   LIG A   1      -8.953  -2.583 124.786  0.00  0.00    +0.190 A 
ATOM      3  C   LIG A   1      -8.736  -1.359 123.998  0.00  0.00    +0.077 A 
ATOM      4  C   LIG A   1      -8.237  -0.274 124.607  0.00  0.00    +0.053 A 
ATOM      5  N   LIG A   1      -7.897  -0.210 125.961  0.00  0.00    -0.343 N 
ATOM      6  C   LIG A   1      -7.338   0.982 126.607  0.00  0.00    +0.149 C 
ATOM      7  C   LIG A   1      -8.095  -1.354 126.783  0.00  0.00    +0.053 A 
ATOM      8  C   LIG A   1      -8.615  -2.542 126.226  0.00  0.00    +0.045 A 
ATOM      9  C   LIG A   1      -8.825  -3.694 126.997  0.00  0.00    +0.013 A 
ATOM     10  C   LIG A   1      -8.521  -3.686 128.354  0.00  0.00    +0.001 A 
ATOM     11  C   LIG A   1      -8.008  -2.531 128.933  0.00  0.00    +0.002 A 
ATOM     12  C   LIG A   1      -7.799  -1.381 128.158  0.00  0.00    +0.026 A 
ENDROOT
BRANCH   4  13
ATOM     13  C   LIG A   1      -8.060   0.910 123.745  0.00  0.00    -0.001 A 
ATOM     14  C   LIG A   1      -9.171   1.660 123.335  0.00  0.00    +0.010 A 
ATOM     15  C   LIG A   1      -8.999   2.786 122.527  0.00  0.00    +0.001 A 
ATOM     16  C   LIG A   1      -7.719   3.170 122.129  0.00  0.00    +0.000 A 
ATOM     17  C   LIG A   1      -6.609   2.432 122.537  0.00  0.00    +0.001 A 
ATOM     18  C   LIG A   1      -6.777   1.306 123.344  0.00  0.00    +0.010 A 
ENDBRANCH   4  13
TORSDOF 1
ENDMDL
