MODEL 1
REMARK VINA RESULT:      -6.9      0.000      0.000
REMARK  Name = NuBBE_1901
REMARK  10 active torsions:
REMARK  status: ('A' for Active; 'I' for Inactive)
REMARK    1  A    between atoms: C_1  and  O_2
REMARK    2  A    between atoms: O_2  and  C_3
REMARK    3  A    between atoms: C_3  and  C_4
REMARK    4  A    between atoms: C_8  and  C_9
REMARK    5  A    between atoms: C_9  and  C_10
REMARK    6  A    between atoms: C_9  and  C_11
REMARK    7  A    between atoms: C_9  and  O_12
REMARK    8  A    between atoms: O_12  and  C_13
REMARK    9  A    between atoms: C_13  and  C_14
REMARK   10  A    between atoms: C_19  and  C_20
REMARK                            x       y       z     vdW  Elec       q    Type
REMARK                         _______ _______ _______ _____ _____    ______ ____
ROOT
ATOM      1  C   LIG A   1      -5.966  -2.293 128.807  0.00  0.00    -0.011 A 
ATOM      2  C   LIG A   1      -6.689  -2.098 127.610  0.00  0.00    +0.026 A 
ATOM      3  C   LIG A   1      -7.943  -2.726 127.399  0.00  0.00    -0.033 A 
ATOM      4  C   LIG A   1      -8.688  -2.600 126.088  0.00  0.00    +0.043 C 
ATOM      5  C   LIG A   1      -8.106  -1.626 125.052  0.00  0.00    +0.044 C 
ATOM      6  C   LIG A   1      -6.578  -1.642 125.114  0.00  0.00    +0.087 C 
ATOM      7  C   LIG A   1      -6.126  -1.276 126.502  0.00  0.00    +0.164 C 
ATOM      8  O   LIG A   1      -5.300  -0.392 126.698  0.00  0.00    -0.292 OA
ATOM      9  C   LIG A   1      -8.479  -3.558 128.408  0.00  0.00    -0.047 A 
ATOM     10  C   LIG A   1      -9.818  -4.237 128.283  0.00  0.00    +0.044 C 
ATOM     11  C   LIG A   1      -7.767  -3.732 129.598  0.00  0.00    +0.004 A 
ATOM     12  C   LIG A   1      -6.533  -3.119 129.790  0.00  0.00    +0.007 A 
ENDROOT
BRANCH   5  13
ATOM     13  C   LIG A   1      -8.645  -1.877 123.601  0.00  0.00    +0.111 C 
ATOM     14  C   LIG A   1      -7.498  -1.955 122.566  0.00  0.00    +0.056 C 
ATOM     15  C   LIG A   1      -9.442  -3.189 123.473  0.00  0.00    +0.056 C 
BRANCH  13  16
ATOM     16  O   LIG A   1      -9.464  -0.757 123.147  0.00  0.00    -0.459 OA
BRANCH  16  17
ATOM     17  C   LIG A   1      -9.523   0.396 123.871  0.00  0.00    +0.304 C 
ATOM     18  C   LIG A   1      -8.601   1.422 123.284  0.00  0.00    +0.136 C 
ATOM     19  O   LIG A   1     -10.224   0.595 124.847  0.00  0.00    -0.251 OA
ENDBRANCH  16  17
ENDBRANCH  13  16
ENDBRANCH   5  13
BRANCH   1  20
ATOM     20  C   LIG A   1      -4.600  -1.672 129.037  0.00  0.00    +0.195 C 
BRANCH  20  22
ATOM     21  C   LIG A   1      -3.068  -3.466 129.197  0.00  0.00    +0.194 C 
ATOM     22  O   LIG A   1      -3.807  -2.487 129.910  0.00  0.00    -0.378 OA
ENDBRANCH  20  22
ENDBRANCH   1  20
TORSDOF 5
ENDMDL
MODEL 2
REMARK VINA RESULT:      -6.8      4.513      8.412
REMARK  Name = NuBBE_1901
REMARK  10 active torsions:
REMARK  status: ('A' for Active; 'I' for Inactive)
REMARK    1  A    between atoms: C_1  and  O_2
REMARK    2  A    between atoms: O_2  and  C_3
REMARK    3  A    between atoms: C_3  and  C_4
REMARK    4  A    between atoms: C_8  and  C_9
REMARK    5  A    between atoms: C_9  and  C_10
REMARK    6  A    between atoms: C_9  and  C_11
REMARK    7  A    between atoms: C_9  and  O_12
REMARK    8  A    between atoms: O_12  and  C_13
REMARK    9  A    between atoms: C_13  and  C_14
REMARK   10  A    between atoms: C_19  and  C_20
REMARK                            x       y       z     vdW  Elec       q    Type
REMARK                         _______ _______ _______ _____ _____    ______ ____
ROOT
ATOM      1  C   LIG A   1      -8.277   2.712 123.423  0.00  0.00    -0.011 A 
ATOM      2  C   LIG A   1      -7.286   3.045 124.373  0.00  0.00    +0.026 A 
ATOM      3  C   LIG A   1      -6.072   3.662 123.981  0.00  0.00    -0.033 A 
ATOM      4  C   LIG A   1      -4.962   3.943 124.972  0.00  0.00    +0.043 C 
ATOM      5  C   LIG A   1      -5.276   3.680 126.453  0.00  0.00    +0.044 C 
ATOM      6  C   LIG A   1      -6.192   2.464 126.590  0.00  0.00    +0.087 C 
ATOM      7  C   LIG A   1      -7.459   2.697 125.811  0.00  0.00    +0.164 C 
ATOM      8  O   LIG A   1      -8.564   2.550 126.321  0.00  0.00    -0.292 OA
ATOM      9  C   LIG A   1      -5.852   3.954 122.616  0.00  0.00    -0.047 A 
ATOM     10  C   LIG A   1      -4.607   4.640 122.115  0.00  0.00    +0.044 C 
ATOM     11  C   LIG A   1      -6.844   3.640 121.683  0.00  0.00    +0.004 A 
ATOM     12  C   LIG A   1      -8.028   3.025 122.078  0.00  0.00    +0.007 A 
ENDROOT
BRANCH   5  13
ATOM     13  C   LIG A   1      -3.990   3.558 127.342  0.00  0.00    +0.111 C 
ATOM     14  C   LIG A   1      -3.958   2.228 128.130  0.00  0.00    +0.056 C 
ATOM     15  C   LIG A   1      -2.686   3.615 126.525  0.00  0.00    +0.056 C 
BRANCH  13  16
ATOM     16  O   LIG A   1      -3.969   4.589 128.375  0.00  0.00    -0.459 OA
BRANCH  16  17
ATOM     17  C   LIG A   1      -3.612   5.869 128.070  0.00  0.00    +0.304 C 
ATOM     18  C   LIG A   1      -2.291   6.199 128.698  0.00  0.00    +0.136 C 
ATOM     19  O   LIG A   1      -4.247   6.646 127.381  0.00  0.00    -0.251 OA
ENDBRANCH  16  17
ENDBRANCH  13  16
ENDBRANCH   5  13
BRANCH   1  20
ATOM     20  C   LIG A   1      -9.564   2.006 123.811  0.00  0.00    +0.195 C 
BRANCH  20  22
ATOM     21  C   LIG A   1      -9.002  -0.280 124.033  0.00  0.00    +0.194 C 
ATOM     22  O   LIG A   1      -9.629   0.701 123.221  0.00  0.00    -0.378 OA
ENDBRANCH  20  22
ENDBRANCH   1  20
TORSDOF 5
ENDMDL
MODEL 3
REMARK VINA RESULT:      -6.6      2.581      6.873
REMARK  Name = NuBBE_1901
REMARK  10 active torsions:
REMARK  status: ('A' for Active; 'I' for Inactive)
REMARK    1  A    between atoms: C_1  and  O_2
REMARK    2  A    between atoms: O_2  and  C_3
REMARK    3  A    between atoms: C_3  and  C_4
REMARK    4  A    between atoms: C_8  and  C_9
REMARK    5  A    between atoms: C_9  and  C_10
REMARK    6  A    between atoms: C_9  and  C_11
REMARK    7  A    between atoms: C_9  and  O_12
REMARK    8  A    between atoms: O_12  and  C_13
REMARK    9  A    between atoms: C_13  and  C_14
REMARK   10  A    between atoms: C_19  and  C_20
REMARK                            x       y       z     vdW  Elec       q    Type
REMARK                         _______ _______ _______ _____ _____    ______ ____
ROOT
ATOM      1  C   LIG A   1      -7.826   2.850 122.791  0.00  0.00    -0.011 A 
ATOM      2  C   LIG A   1      -8.099   1.611 123.412  0.00  0.00    +0.026 A 
ATOM      3  C   LIG A   1      -7.308   1.140 124.490  0.00  0.00    -0.033 A 
ATOM      4  C   LIG A   1      -7.530  -0.224 125.107  0.00  0.00    +0.043 C 
ATOM      5  C   LIG A   1      -8.759  -1.010 124.624  0.00  0.00    +0.044 C 
ATOM      6  C   LIG A   1      -9.001  -0.747 123.137  0.00  0.00    +0.087 C 
ATOM      7  C   LIG A   1      -9.189   0.729 122.910  0.00  0.00    +0.164 C 
ATOM      8  O   LIG A   1     -10.156   1.167 122.297  0.00  0.00    -0.292 OA
ATOM      9  C   LIG A   1      -6.230   1.927 124.954  0.00  0.00    -0.047 A 
ATOM     10  C   LIG A   1      -5.359   1.521 126.115  0.00  0.00    +0.044 C 
ATOM     11  C   LIG A   1      -5.975   3.161 124.348  0.00  0.00    +0.004 A 
ATOM     12  C   LIG A   1      -6.752   3.609 123.284  0.00  0.00    +0.007 A 
ENDROOT
BRANCH   5  13
ATOM     13  C   LIG A   1      -8.677  -2.541 124.951  0.00  0.00    +0.111 C 
ATOM     14  C   LIG A   1      -9.414  -3.396 123.893  0.00  0.00    +0.056 C 
ATOM     15  C   LIG A   1      -7.232  -3.068 125.013  0.00  0.00    +0.056 C 
BRANCH  13  16
ATOM     16  O   LIG A   1      -9.366  -2.845 126.202  0.00  0.00    -0.459 OA
BRANCH  16  17
ATOM     17  C   LIG A   1      -8.676  -2.905 127.376  0.00  0.00    +0.304 C 
ATOM     18  C   LIG A   1      -8.897  -4.233 128.037  0.00  0.00    +0.136 C 
ATOM     19  O   LIG A   1      -7.967  -2.029 127.837  0.00  0.00    -0.251 OA
ENDBRANCH  16  17
ENDBRANCH  13  16
ENDBRANCH   5  13
BRANCH   1  20
ATOM     20  C   LIG A   1      -8.627   3.354 121.604  0.00  0.00    +0.195 C 
BRANCH  20  22
ATOM     21  C   LIG A   1      -8.469   4.220 119.409  0.00  0.00    +0.194 C 
ATOM     22  O   LIG A   1      -7.762   3.894 120.596  0.00  0.00    -0.378 OA
ENDBRANCH  20  22
ENDBRANCH   1  20
TORSDOF 5
ENDMDL
MODEL 4
REMARK VINA RESULT:      -6.6      2.773      6.871
REMARK  Name = NuBBE_1901
REMARK  10 active torsions:
REMARK  status: ('A' for Active; 'I' for Inactive)
REMARK    1  A    between atoms: C_1  and  O_2
REMARK    2  A    between atoms: O_2  and  C_3
REMARK    3  A    between atoms: C_3  and  C_4
REMARK    4  A    between atoms: C_8  and  C_9
REMARK    5  A    between atoms: C_9  and  C_10
REMARK    6  A    between atoms: C_9  and  C_11
REMARK    7  A    between atoms: C_9  and  O_12
REMARK    8  A    between atoms: O_12  and  C_13
REMARK    9  A    between atoms: C_13  and  C_14
REMARK   10  A    between atoms: C_19  and  C_20
REMARK                            x       y       z     vdW  Elec       q    Type
REMARK                         _______ _______ _______ _____ _____    ______ ____
ROOT
ATOM      1  C   LIG A   1      -7.617   2.868 123.165  0.00  0.00    -0.011 A 
ATOM      2  C   LIG A   1      -7.622   1.589 123.764  0.00  0.00    +0.026 A 
ATOM      3  C   LIG A   1      -6.683   1.245 124.769  0.00  0.00    -0.033 A 
ATOM      4  C   LIG A   1      -6.617  -0.149 125.356  0.00  0.00    +0.043 C 
ATOM      5  C   LIG A   1      -7.722  -1.129 124.935  0.00  0.00    +0.044 C 
ATOM      6  C   LIG A   1      -8.116  -0.886 123.478  0.00  0.00    +0.087 C 
ATOM      7  C   LIG A   1      -8.576   0.538 123.311  0.00  0.00    +0.164 C 
ATOM      8  O   LIG A   1      -9.647   0.810 122.781  0.00  0.00    -0.292 OA
ATOM      9  C   LIG A   1      -5.728   2.201 125.181  0.00  0.00    -0.047 A 
ATOM     10  C   LIG A   1      -4.716   1.934 126.265  0.00  0.00    +0.044 C 
ATOM     11  C   LIG A   1      -5.739   3.472 124.598  0.00  0.00    +0.004 A 
ATOM     12  C   LIG A   1      -6.659   3.795 123.605  0.00  0.00    +0.007 A 
ENDROOT
BRANCH   5  13
ATOM     13  C   LIG A   1      -7.351  -2.628 125.208  0.00  0.00    +0.111 C 
ATOM     14  C   LIG A   1      -7.643  -3.037 126.670  0.00  0.00    +0.056 C 
ATOM     15  C   LIG A   1      -8.125  -3.613 124.313  0.00  0.00    +0.056 C 
BRANCH  13  16
ATOM     16  O   LIG A   1      -5.916  -2.847 125.054  0.00  0.00    -0.459 OA
BRANCH  16  17
ATOM     17  C   LIG A   1      -5.397  -3.222 123.850  0.00  0.00    +0.304 C 
ATOM     18  C   LIG A   1      -4.715  -4.552 123.974  0.00  0.00    +0.136 C 
ATOM     19  O   LIG A   1      -5.474  -2.595 122.809  0.00  0.00    -0.251 OA
ENDBRANCH  16  17
ENDBRANCH  13  16
ENDBRANCH   5  13
BRANCH   1  20
ATOM     20  C   LIG A   1      -8.579   3.245 122.053  0.00  0.00    +0.195 C 
BRANCH  20  22
ATOM     21  C   LIG A   1      -8.747   4.066 119.841  0.00  0.00    +0.194 C 
ATOM     22  O   LIG A   1      -7.867   3.666 120.881  0.00  0.00    -0.378 OA
ENDBRANCH  20  22
ENDBRANCH   1  20
TORSDOF 5
ENDMDL
MODEL 5
REMARK VINA RESULT:      -6.4      2.835      5.442
REMARK  Name = NuBBE_1901
REMARK  10 active torsions:
REMARK  status: ('A' for Active; 'I' for Inactive)
REMARK    1  A    between atoms: C_1  and  O_2
REMARK    2  A    between atoms: O_2  and  C_3
REMARK    3  A    between atoms: C_3  and  C_4
REMARK    4  A    between atoms: C_8  and  C_9
REMARK    5  A    between atoms: C_9  and  C_10
REMARK    6  A    between atoms: C_9  and  C_11
REMARK    7  A    between atoms: C_9  and  O_12
REMARK    8  A    between atoms: O_12  and  C_13
REMARK    9  A    between atoms: C_13  and  C_14
REMARK   10  A    between atoms: C_19  and  C_20
REMARK                            x       y       z     vdW  Elec       q    Type
REMARK                         _______ _______ _______ _____ _____    ______ ____
ROOT
ATOM      1  C   LIG A   1      -8.120  -3.139 126.601  0.00  0.00    -0.011 A 
ATOM      2  C   LIG A   1      -7.264  -2.041 126.841  0.00  0.00    +0.026 A 
ATOM      3  C   LIG A   1      -7.065  -1.539 128.151  0.00  0.00    -0.033 A 
ATOM      4  C   LIG A   1      -6.224  -0.308 128.416  0.00  0.00    +0.043 C 
ATOM      5  C   LIG A   1      -5.459   0.276 127.219  0.00  0.00    +0.044 C 
ATOM      6  C   LIG A   1      -6.284   0.121 125.940  0.00  0.00    +0.087 C 
ATOM      7  C   LIG A   1      -6.594  -1.334 125.714  0.00  0.00    +0.164 C 
ATOM      8  O   LIG A   1      -6.360  -1.883 124.643  0.00  0.00    -0.292 OA
ATOM      9  C   LIG A   1      -7.732  -2.152 129.237  0.00  0.00    -0.047 A 
ATOM     10  C   LIG A   1      -7.552  -1.707 130.665  0.00  0.00    +0.044 C 
ATOM     11  C   LIG A   1      -8.562  -3.250 128.996  0.00  0.00    +0.004 A 
ATOM     12  C   LIG A   1      -8.758  -3.728 127.703  0.00  0.00    +0.007 A 
ENDROOT
BRANCH   5  13
ATOM     13  C   LIG A   1      -4.993   1.755 127.450  0.00  0.00    +0.111 C 
ATOM     14  C   LIG A   1      -6.175   2.751 127.370  0.00  0.00    +0.056 C 
ATOM     15  C   LIG A   1      -4.331   1.971 128.823  0.00  0.00    +0.056 C 
BRANCH  13  16
ATOM     16  O   LIG A   1      -4.086   2.189 126.392  0.00  0.00    -0.459 OA
BRANCH  16  17
ATOM     17  C   LIG A   1      -3.322   3.307 126.550  0.00  0.00    +0.304 C 
ATOM     18  C   LIG A   1      -1.870   2.936 126.605  0.00  0.00    +0.136 C 
ATOM     19  O   LIG A   1      -3.731   4.451 126.624  0.00  0.00    -0.251 OA
ENDBRANCH  16  17
ENDBRANCH  13  16
ENDBRANCH   5  13
BRANCH   1  20
ATOM     20  C   LIG A   1      -8.389  -3.664 125.202  0.00  0.00    +0.195 C 
BRANCH  20  22
ATOM     21  C   LIG A   1      -9.489  -2.953 123.233  0.00  0.00    +0.194 C 
ATOM     22  O   LIG A   1      -9.564  -3.061 124.646  0.00  0.00    -0.378 OA
ENDBRANCH  20  22
ENDBRANCH   1  20
TORSDOF 5
ENDMDL
MODEL 6
REMARK VINA RESULT:      -6.4      3.033      6.593
REMARK  Name = NuBBE_1901
REMARK  10 active torsions:
REMARK  status: ('A' for Active; 'I' for Inactive)
REMARK    1  A    between atoms: C_1  and  O_2
REMARK    2  A    between atoms: O_2  and  C_3
REMARK    3  A    between atoms: C_3  and  C_4
REMARK    4  A    between atoms: C_8  and  C_9
REMARK    5  A    between atoms: C_9  and  C_10
REMARK    6  A    between atoms: C_9  and  C_11
REMARK    7  A    between atoms: C_9  and  O_12
REMARK    8  A    between atoms: O_12  and  C_13
REMARK    9  A    between atoms: C_13  and  C_14
REMARK   10  A    between atoms: C_19  and  C_20
REMARK                            x       y       z     vdW  Elec       q    Type
REMARK                         _______ _______ _______ _____ _____    ______ ____
ROOT
ATOM      1  C   LIG A   1      -6.548   3.234 123.458  0.00  0.00    -0.011 A 
ATOM      2  C   LIG A   1      -6.642   1.973 124.088  0.00  0.00    +0.026 A 
ATOM      3  C   LIG A   1      -5.922   1.693 125.277  0.00  0.00    -0.033 A 
ATOM      4  C   LIG A   1      -5.940   0.321 125.916  0.00  0.00    +0.043 C 
ATOM      5  C   LIG A   1      -6.905  -0.711 125.312  0.00  0.00    +0.044 C 
ATOM      6  C   LIG A   1      -6.994  -0.524 123.797  0.00  0.00    +0.087 C 
ATOM      7  C   LIG A   1      -7.450   0.876 123.487  0.00  0.00    +0.164 C 
ATOM      8  O   LIG A   1      -8.395   1.095 122.738  0.00  0.00    -0.292 OA
ATOM      9  C   LIG A   1      -5.101   2.694 125.843  0.00  0.00    -0.047 A 
ATOM     10  C   LIG A   1      -4.329   2.495 127.121  0.00  0.00    +0.044 C 
ATOM     11  C   LIG A   1      -5.027   3.946 125.225  0.00  0.00    +0.004 A 
ATOM     12  C   LIG A   1      -5.730   4.207 124.052  0.00  0.00    +0.007 A 
ENDROOT
BRANCH   5  13
ATOM     13  C   LIG A   1      -6.555  -2.187 125.709  0.00  0.00    +0.111 C 
ATOM     14  C   LIG A   1      -5.804  -2.926 124.577  0.00  0.00    +0.056 C 
ATOM     15  C   LIG A   1      -5.662  -2.278 126.960  0.00  0.00    +0.056 C 
BRANCH  13  16
ATOM     16  O   LIG A   1      -7.767  -2.975 125.911  0.00  0.00    -0.459 OA
BRANCH  16  17
ATOM     17  C   LIG A   1      -8.946  -2.591 125.341  0.00  0.00    +0.304 C 
ATOM     18  C   LIG A   1      -9.213  -3.407 124.112  0.00  0.00    +0.136 C 
ATOM     19  O   LIG A   1      -9.695  -1.727 125.757  0.00  0.00    -0.251 OA
ENDBRANCH  16  17
ENDBRANCH  13  16
ENDBRANCH   5  13
BRANCH   1  20
ATOM     20  C   LIG A   1      -7.269   3.543 122.158  0.00  0.00    +0.195 C 
BRANCH  20  22
ATOM     21  C   LIG A   1      -6.940   4.123 119.889  0.00  0.00    +0.194 C 
ATOM     22  O   LIG A   1      -6.362   4.076 121.184  0.00  0.00    -0.378 OA
ENDBRANCH  20  22
ENDBRANCH   1  20
TORSDOF 5
ENDMDL
MODEL 7
REMARK VINA RESULT:      -6.3      9.027     10.998
REMARK  Name = NuBBE_1901
REMARK  10 active torsions:
REMARK  status: ('A' for Active; 'I' for Inactive)
REMARK    1  A    between atoms: C_1  and  O_2
REMARK    2  A    between atoms: O_2  and  C_3
REMARK    3  A    between atoms: C_3  and  C_4
REMARK    4  A    between atoms: C_8  and  C_9
REMARK    5  A    between atoms: C_9  and  C_10
REMARK    6  A    between atoms: C_9  and  C_11
REMARK    7  A    between atoms: C_9  and  O_12
REMARK    8  A    between atoms: O_12  and  C_13
REMARK    9  A    between atoms: C_13  and  C_14
REMARK   10  A    between atoms: C_19  and  C_20
REMARK                            x       y       z     vdW  Elec       q    Type
REMARK                         _______ _______ _______ _____ _____    ______ ____
ROOT
ATOM      1  C   LIG A   1      -8.583   5.282 132.994  0.00  0.00    -0.011 A 
ATOM      2  C   LIG A   1      -7.352   5.702 132.442  0.00  0.00    +0.026 A 
ATOM      3  C   LIG A   1      -6.164   5.703 133.214  0.00  0.00    -0.033 A 
ATOM      4  C   LIG A   1      -4.856   6.235 132.667  0.00  0.00    +0.043 C 
ATOM      5  C   LIG A   1      -4.835   6.620 131.180  0.00  0.00    +0.044 C 
ATOM      6  C   LIG A   1      -6.183   7.215 130.770  0.00  0.00    +0.087 C 
ATOM      7  C   LIG A   1      -7.278   6.219 131.047  0.00  0.00    +0.164 C 
ATOM      8  O   LIG A   1      -8.092   5.903 130.187  0.00  0.00    -0.292 OA
ATOM      9  C   LIG A   1      -6.211   5.272 134.559  0.00  0.00    -0.047 A 
ATOM     10  C   LIG A   1      -4.992   5.207 135.442  0.00  0.00    +0.044 C 
ATOM     11  C   LIG A   1      -7.428   4.839 135.095  0.00  0.00    +0.004 A 
ATOM     12  C   LIG A   1      -8.590   4.852 134.330  0.00  0.00    +0.007 A 
ENDROOT
BRANCH   5  13
ATOM     13  C   LIG A   1      -3.634   7.555 130.804  0.00  0.00    +0.111 C 
ATOM     14  C   LIG A   1      -4.095   8.783 129.984  0.00  0.00    +0.056 C 
ATOM     15  C   LIG A   1      -2.889   8.103 132.035  0.00  0.00    +0.056 C 
BRANCH  13  16
ATOM     16  O   LIG A   1      -2.693   6.869 129.924  0.00  0.00    -0.459 OA
BRANCH  16  17
ATOM     17  C   LIG A   1      -3.144   6.080 128.907  0.00  0.00    +0.304 C 
ATOM     18  C   LIG A   1      -2.942   4.634 129.249  0.00  0.00    +0.136 C 
ATOM     19  O   LIG A   1      -3.652   6.466 127.870  0.00  0.00    -0.251 OA
ENDBRANCH  16  17
ENDBRANCH  13  16
ENDBRANCH   5  13
BRANCH   1  20
ATOM     20  C   LIG A   1      -9.878   5.318 132.203  0.00  0.00    +0.195 C 
BRANCH  20  22
ATOM     21  C   LIG A   1     -11.796   6.606 131.697  0.00  0.00    +0.194 C 
ATOM     22  O   LIG A   1     -10.585   6.544 132.435  0.00  0.00    -0.378 OA
ENDBRANCH  20  22
ENDBRANCH   1  20
TORSDOF 5
ENDMDL
MODEL 8
REMARK VINA RESULT:      -6.3      3.254      5.788
REMARK  Name = NuBBE_1901
REMARK  10 active torsions:
REMARK  status: ('A' for Active; 'I' for Inactive)
REMARK    1  A    between atoms: C_1  and  O_2
REMARK    2  A    between atoms: O_2  and  C_3
REMARK    3  A    between atoms: C_3  and  C_4
REMARK    4  A    between atoms: C_8  and  C_9
REMARK    5  A    between atoms: C_9  and  C_10
REMARK    6  A    between atoms: C_9  and  C_11
REMARK    7  A    between atoms: C_9  and  O_12
REMARK    8  A    between atoms: O_12  and  C_13
REMARK    9  A    between atoms: C_13  and  C_14
REMARK   10  A    between atoms: C_19  and  C_20
REMARK                            x       y       z     vdW  Elec       q    Type
REMARK                         _______ _______ _______ _____ _____    ______ ____
ROOT
ATOM      1  C   LIG A   1      -5.338   3.431 126.158  0.00  0.00    -0.011 A 
ATOM      2  C   LIG A   1      -5.864   2.222 125.651  0.00  0.00    +0.026 A 
ATOM      3  C   LIG A   1      -6.405   2.150 124.343  0.00  0.00    -0.033 A 
ATOM      4  C   LIG A   1      -7.054   0.887 123.817  0.00  0.00    +0.043 C 
ATOM      5  C   LIG A   1      -6.952  -0.364 124.702  0.00  0.00    +0.044 C 
ATOM      6  C   LIG A   1      -7.028   0.028 126.179  0.00  0.00    +0.087 C 
ATOM      7  C   LIG A   1      -5.925   1.000 126.500  0.00  0.00    +0.164 C 
ATOM      8  O   LIG A   1      -5.162   0.819 127.442  0.00  0.00    -0.292 OA
ATOM      9  C   LIG A   1      -6.415   3.306 123.531  0.00  0.00    -0.047 A 
ATOM     10  C   LIG A   1      -6.938   3.312 122.119  0.00  0.00    +0.044 C 
ATOM     11  C   LIG A   1      -5.876   4.496 124.032  0.00  0.00    +0.004 A 
ATOM     12  C   LIG A   1      -5.357   4.558 125.321  0.00  0.00    +0.007 A 
ENDROOT
BRANCH   5  13
ATOM     13  C   LIG A   1      -7.996  -1.471 124.326  0.00  0.00    +0.111 C 
ATOM     14  C   LIG A   1      -8.838  -1.907 125.549  0.00  0.00    +0.056 C 
ATOM     15  C   LIG A   1      -8.995  -1.015 123.247  0.00  0.00    +0.056 C 
BRANCH  13  16
ATOM     16  O   LIG A   1      -7.329  -2.695 123.894  0.00  0.00    -0.459 OA
BRANCH  16  17
ATOM     17  C   LIG A   1      -6.134  -2.638 123.240  0.00  0.00    +0.304 C 
ATOM     18  C   LIG A   1      -5.087  -3.385 124.012  0.00  0.00    +0.136 C 
ATOM     19  O   LIG A   1      -5.923  -2.081 122.178  0.00  0.00    -0.251 OA
ENDBRANCH  16  17
ENDBRANCH  13  16
ENDBRANCH   5  13
BRANCH   1  20
ATOM     20  C   LIG A   1      -4.798   3.548 127.572  0.00  0.00    +0.195 C 
BRANCH  20  22
ATOM     21  C   LIG A   1      -2.475   3.200 127.306  0.00  0.00    +0.194 C 
ATOM     22  O   LIG A   1      -3.496   4.148 127.575  0.00  0.00    -0.378 OA
ENDBRANCH  20  22
ENDBRANCH   1  20
TORSDOF 5
ENDMDL
MODEL 9
REMARK VINA RESULT:      -6.2      2.256      3.136
REMARK  Name = NuBBE_1901
REMARK  10 active torsions:
REMARK  status: ('A' for Active; 'I' for Inactive)
REMARK    1  A    between atoms: C_1  and  O_2
REMARK    2  A    between atoms: O_2  and  C_3
REMARK    3  A    between atoms: C_3  and  C_4
REMARK    4  A    between atoms: C_8  and  C_9
REMARK    5  A    between atoms: C_9  and  C_10
REMARK    6  A    between atoms: C_9  and  C_11
REMARK    7  A    between atoms: C_9  and  O_12
REMARK    8  A    between atoms: O_12  and  C_13
REMARK    9  A    between atoms: C_13  and  C_14
REMARK   10  A    between atoms: C_19  and  C_20
REMARK                            x       y       z     vdW  Elec       q    Type
REMARK                         _______ _______ _______ _____ _____    ______ ____
ROOT
ATOM      1  C   LIG A   1      -7.943  -2.315 128.988  0.00  0.00    -0.011 A 
ATOM      2  C   LIG A   1      -7.904  -1.329 127.977  0.00  0.00    +0.026 A 
ATOM      3  C   LIG A   1      -8.340  -1.614 126.658  0.00  0.00    -0.033 A 
ATOM      4  C   LIG A   1      -8.221  -0.598 125.542  0.00  0.00    +0.043 C 
ATOM      5  C   LIG A   1      -7.761   0.813 125.937  0.00  0.00    +0.044 C 
ATOM      6  C   LIG A   1      -6.737   0.736 127.070  0.00  0.00    +0.087 C 
ATOM      7  C   LIG A   1      -7.344   0.023 128.250  0.00  0.00    +0.164 C 
ATOM      8  O   LIG A   1      -7.321   0.508 129.375  0.00  0.00    -0.292 OA
ATOM      9  C   LIG A   1      -8.825  -2.905 126.352  0.00  0.00    -0.047 A 
ATOM     10  C   LIG A   1      -9.339  -3.285 124.988  0.00  0.00    +0.044 C 
ATOM     11  C   LIG A   1      -8.878  -3.871 127.361  0.00  0.00    +0.004 A 
ATOM     12  C   LIG A   1      -8.439  -3.583 128.650  0.00  0.00    +0.007 A 
ENDROOT
BRANCH   5  13
ATOM     13  C   LIG A   1      -7.239   1.653 124.721  0.00  0.00    +0.111 C 
ATOM     14  C   LIG A   1      -6.013   2.516 125.101  0.00  0.00    +0.056 C 
ATOM     15  C   LIG A   1      -6.808   0.781 123.527  0.00  0.00    +0.056 C 
BRANCH  13  16
ATOM     16  O   LIG A   1      -8.240   2.623 124.286  0.00  0.00    -0.459 OA
BRANCH  16  17
ATOM     17  C   LIG A   1      -9.093   2.328 123.264  0.00  0.00    +0.304 C 
ATOM     18  C   LIG A   1      -8.703   3.090 122.033  0.00  0.00    +0.136 C 
ATOM     19  O   LIG A   1     -10.031   1.554 123.313  0.00  0.00    -0.251 OA
ENDBRANCH  16  17
ENDBRANCH  13  16
ENDBRANCH   5  13
BRANCH   1  20
ATOM     20  C   LIG A   1      -7.437  -2.050 130.395  0.00  0.00    +0.195 C 
BRANCH  20  22
ATOM     21  C   LIG A   1      -6.763  -3.059 132.425  0.00  0.00    +0.194 C 
ATOM     22  O   LIG A   1      -7.192  -3.280 131.090  0.00  0.00    -0.378 OA
ENDBRANCH  20  22
ENDBRANCH   1  20
TORSDOF 5
ENDMDL
