MODEL 1
REMARK VINA RESULT:      -6.7      0.000      0.000
REMARK  Name = NuBBE_1958
REMARK  15 active torsions:
REMARK  status: ('A' for Active; 'I' for Inactive)
REMARK    1  A    between atoms: O_1  and  C_2
REMARK    2  A    between atoms: O_1  and  C_3
REMARK    3  A    between atoms: C_6  and  C_23
REMARK    4  A    between atoms: C_8  and  C_11
REMARK    5  A    between atoms: C_13  and  O_14
REMARK    6  A    between atoms: O_14  and  C_15
REMARK    7  A    between atoms: C_16  and  O_21
REMARK    8  A    between atoms: C_17  and  O_19
REMARK    9  A    between atoms: O_19  and  C_20
REMARK   10  A    between atoms: O_21  and  C_22
REMARK   11  A    between atoms: C_25  and  O_31
REMARK   12  A    between atoms: C_26  and  O_27
REMARK   13  A    between atoms: O_27  and  C_28
REMARK   14  A    between atoms: C_28  and  C_29
REMARK   15  A    between atoms: O_31  and  C_32
REMARK                            x       y       z     vdW  Elec       q    Type
REMARK                         _______ _______ _______ _____ _____    ______ ____
ROOT
ATOM      1  C   LIG A   1      -9.112   0.926 126.182  0.00  0.00    +0.208 A 
ATOM      2  C   LIG A   1      -8.600   1.309 127.415  0.00  0.00    +0.170 A 
ATOM      3  C   LIG A   1      -7.932   0.427 128.248  0.00  0.00    +0.008 A 
ATOM      4  C   LIG A   1      -7.500   1.134 129.482  0.00  0.00    +0.065 C 
ATOM      5  C   LIG A   1      -7.571   2.580 128.945  0.00  0.00    +0.211 C 
ATOM      6  O   LIG A   1      -8.607   2.590 127.932  0.00  0.00    -0.479 OA
ATOM      7  C   LIG A   1      -8.535   0.842 130.568  0.00  0.00    +0.016 C 
ATOM      8  C   LIG A   1      -7.790  -0.896 127.913  0.00  0.00    +0.057 A 
ATOM      9  C   LIG A   1      -8.299  -1.343 126.686  0.00  0.00    +0.166 A 
ATOM     10  C   LIG A   1      -8.958  -0.436 125.803  0.00  0.00    +0.208 A 
ENDROOT
BRANCH   5  11
ATOM     11  C   LIG A   1      -6.254   3.104 128.365  0.00  0.00    +0.000 A 
ATOM     12  C   LIG A   1      -5.186   3.415 129.200  0.00  0.00    +0.057 A 
ATOM     13  C   LIG A   1      -3.961   3.857 128.661  0.00  0.00    +0.166 A 
ATOM     14  C   LIG A   1      -3.768   3.986 127.245  0.00  0.00    +0.203 A 
ATOM     15  C   LIG A   1      -4.830   3.646 126.395  0.00  0.00    +0.166 A 
ATOM     16  C   LIG A   1      -6.044   3.239 126.986  0.00  0.00    +0.057 A 
BRANCH  13  17
ATOM     17  O   LIG A   1      -2.872   4.124 129.468  0.00  0.00    -0.491 OA
ATOM     18  C   LIG A   1      -2.953   5.273 130.309  0.00  0.00    +0.277 C 
ENDBRANCH  13  17
BRANCH  15  19
ATOM     19  O   LIG A   1      -4.999   3.540 125.047  0.00  0.00    -0.491 OA
ATOM     20  C   LIG A   1      -5.695   4.457 124.246  0.00  0.00    +0.277 C 
ENDBRANCH  15  19
BRANCH  14  21
ATOM     21  O   LIG A   1      -2.478   4.304 126.891  0.00  0.00    -0.488 OA
ATOM     22  C   LIG A   1      -1.641   3.281 126.379  0.00  0.00    +0.277 C 
ENDBRANCH  14  21
ENDBRANCH   5  11
BRANCH   1  23
ATOM     23  O   LIG A   1      -9.700   1.798 125.312  0.00  0.00    -0.488 OA
ATOM     24  C   LIG A   1      -8.904   2.543 124.404  0.00  0.00    +0.277 C 
ENDBRANCH   1  23
BRANCH   9  25
ATOM     25  O   LIG A   1      -8.161  -2.701 126.587  0.00  0.00    -0.491 OA
ATOM     26  C   LIG A   1      -8.845  -3.595 127.442  0.00  0.00    +0.277 C 
ENDBRANCH   9  25
BRANCH  10  27
ATOM     27  O   LIG A   1      -9.392  -0.971 124.614  0.00  0.00    -0.481 OA
BRANCH  27  28
ATOM     28  C   LIG A   1      -8.522  -1.192 123.508  0.00  0.00    +0.256 C 
BRANCH  28  29
ATOM     29  C   LIG A   1      -8.638  -2.610 123.027  0.00  0.00    +0.006 C 
ATOM     30  C   LIG A   1      -9.563  -3.441 123.421  0.00  0.00    +0.007 C 
ENDBRANCH  28  29
ENDBRANCH  27  28
ENDBRANCH  10  27
TORSDOF 9
ENDMDL
MODEL 2
REMARK VINA RESULT:      -6.5      2.087      3.473
REMARK  Name = NuBBE_1958
REMARK  15 active torsions:
REMARK  status: ('A' for Active; 'I' for Inactive)
REMARK    1  A    between atoms: O_1  and  C_2
REMARK    2  A    between atoms: O_1  and  C_3
REMARK    3  A    between atoms: C_6  and  C_23
REMARK    4  A    between atoms: C_8  and  C_11
REMARK    5  A    between atoms: C_13  and  O_14
REMARK    6  A    between atoms: O_14  and  C_15
REMARK    7  A    between atoms: C_16  and  O_21
REMARK    8  A    between atoms: C_17  and  O_19
REMARK    9  A    between atoms: O_19  and  C_20
REMARK   10  A    between atoms: O_21  and  C_22
REMARK   11  A    between atoms: C_25  and  O_31
REMARK   12  A    between atoms: C_26  and  O_27
REMARK   13  A    between atoms: O_27  and  C_28
REMARK   14  A    between atoms: C_28  and  C_29
REMARK   15  A    between atoms: O_31  and  C_32
REMARK                            x       y       z     vdW  Elec       q    Type
REMARK                         _______ _______ _______ _____ _____    ______ ____
ROOT
ATOM      1  C   LIG A   1      -8.239  -1.426 125.839  0.00  0.00    +0.208 A 
ATOM      2  C   LIG A   1      -8.215  -0.278 126.621  0.00  0.00    +0.170 A 
ATOM      3  C   LIG A   1      -7.219  -0.034 127.552  0.00  0.00    +0.008 A 
ATOM      4  C   LIG A   1      -7.467   1.272 128.218  0.00  0.00    +0.065 C 
ATOM      5  C   LIG A   1      -8.402   1.888 127.156  0.00  0.00    +0.211 C 
ATOM      6  O   LIG A   1      -9.097   0.781 126.530  0.00  0.00    -0.479 OA
ATOM      7  C   LIG A   1      -8.165   0.987 129.547  0.00  0.00    +0.016 C 
ATOM      8  C   LIG A   1      -6.225  -0.951 127.785  0.00  0.00    +0.057 A 
ATOM      9  C   LIG A   1      -6.206  -2.135 127.034  0.00  0.00    +0.166 A 
ATOM     10  C   LIG A   1      -7.206  -2.381 126.047  0.00  0.00    +0.208 A 
ENDROOT
BRANCH   5  11
ATOM     11  C   LIG A   1      -7.687   2.735 126.099  0.00  0.00    +0.000 A 
ATOM     12  C   LIG A   1      -6.425   3.263 126.348  0.00  0.00    +0.057 A 
ATOM     13  C   LIG A   1      -5.751   4.006 125.359  0.00  0.00    +0.166 A 
ATOM     14  C   LIG A   1      -6.330   4.230 124.065  0.00  0.00    +0.203 A 
ATOM     15  C   LIG A   1      -7.589   3.676 123.795  0.00  0.00    +0.166 A 
ATOM     16  C   LIG A   1      -8.235   2.967 124.829  0.00  0.00    +0.057 A 
BRANCH  13  17
ATOM     17  O   LIG A   1      -4.477   4.498 125.567  0.00  0.00    -0.491 OA
ATOM     18  C   LIG A   1      -3.622   3.744 126.425  0.00  0.00    +0.277 C 
ENDBRANCH  13  17
BRANCH  15  19
ATOM     19  O   LIG A   1      -8.394   3.581 122.699  0.00  0.00    -0.491 OA
ATOM     20  C   LIG A   1      -9.112   2.437 122.321  0.00  0.00    +0.277 C 
ENDBRANCH  15  19
BRANCH  14  21
ATOM     21  O   LIG A   1      -5.485   4.861 123.184  0.00  0.00    -0.488 OA
ATOM     22  C   LIG A   1      -5.240   4.258 121.925  0.00  0.00    +0.277 C 
ENDBRANCH  14  21
ENDBRANCH   5  11
BRANCH   1  23
ATOM     23  O   LIG A   1      -9.164  -1.645 124.860  0.00  0.00    -0.488 OA
ATOM     24  C   LIG A   1      -8.986  -1.078 123.571  0.00  0.00    +0.277 C 
ENDBRANCH   1  23
BRANCH   9  25
ATOM     25  O   LIG A   1      -5.214  -2.962 127.489  0.00  0.00    -0.491 OA
ATOM     26  C   LIG A   1      -4.603  -2.786 128.751  0.00  0.00    +0.277 C 
ENDBRANCH   9  25
BRANCH  10  27
ATOM     27  O   LIG A   1      -7.076  -3.557 125.348  0.00  0.00    -0.481 OA
BRANCH  27  28
ATOM     28  C   LIG A   1      -6.535  -3.612 124.031  0.00  0.00    +0.256 C 
BRANCH  28  29
ATOM     29  C   LIG A   1      -5.039  -3.732 124.086  0.00  0.00    +0.006 C 
ATOM     30  C   LIG A   1      -4.372  -4.753 123.624  0.00  0.00    +0.007 C 
ENDBRANCH  28  29
ENDBRANCH  27  28
ENDBRANCH  10  27
TORSDOF 9
ENDMDL
MODEL 3
REMARK VINA RESULT:      -6.4      2.598      5.320
REMARK  Name = NuBBE_1958
REMARK  15 active torsions:
REMARK  status: ('A' for Active; 'I' for Inactive)
REMARK    1  A    between atoms: O_1  and  C_2
REMARK    2  A    between atoms: O_1  and  C_3
REMARK    3  A    between atoms: C_6  and  C_23
REMARK    4  A    between atoms: C_8  and  C_11
REMARK    5  A    between atoms: C_13  and  O_14
REMARK    6  A    between atoms: O_14  and  C_15
REMARK    7  A    between atoms: C_16  and  O_21
REMARK    8  A    between atoms: C_17  and  O_19
REMARK    9  A    between atoms: O_19  and  C_20
REMARK   10  A    between atoms: O_21  and  C_22
REMARK   11  A    between atoms: C_25  and  O_31
REMARK   12  A    between atoms: C_26  and  O_27
REMARK   13  A    between atoms: O_27  and  C_28
REMARK   14  A    between atoms: C_28  and  C_29
REMARK   15  A    between atoms: O_31  and  C_32
REMARK                            x       y       z     vdW  Elec       q    Type
REMARK                         _______ _______ _______ _____ _____    ______ ____
ROOT
ATOM      1  C   LIG A   1      -8.190   0.423 125.953  0.00  0.00    +0.208 A 
ATOM      2  C   LIG A   1      -7.481   1.523 126.420  0.00  0.00    +0.170 A 
ATOM      3  C   LIG A   1      -7.384   2.703 125.703  0.00  0.00    +0.008 A 
ATOM      4  C   LIG A   1      -6.572   3.686 126.466  0.00  0.00    +0.065 C 
ATOM      5  C   LIG A   1      -6.712   3.049 127.866  0.00  0.00    +0.211 C 
ATOM      6  O   LIG A   1      -6.867   1.625 127.653  0.00  0.00    -0.479 OA
ATOM      7  C   LIG A   1      -5.147   3.634 125.918  0.00  0.00    +0.016 C 
ATOM      8  C   LIG A   1      -7.946   2.825 124.457  0.00  0.00    +0.057 A 
ATOM      9  C   LIG A   1      -8.663   1.742 123.928  0.00  0.00    +0.166 A 
ATOM     10  C   LIG A   1      -8.801   0.533 124.673  0.00  0.00    +0.208 A 
ENDROOT
BRANCH   5  11
ATOM     11  C   LIG A   1      -7.878   3.595 128.695  0.00  0.00    +0.000 A 
ATOM     12  C   LIG A   1      -8.498   2.802 129.655  0.00  0.00    +0.057 A 
ATOM     13  C   LIG A   1      -9.542   3.320 130.446  0.00  0.00    +0.166 A 
ATOM     14  C   LIG A   1      -9.990   4.675 130.302  0.00  0.00    +0.203 A 
ATOM     15  C   LIG A   1      -9.351   5.490 129.357  0.00  0.00    +0.166 A 
ATOM     16  C   LIG A   1      -8.333   4.915 128.570  0.00  0.00    +0.057 A 
BRANCH  13  17
ATOM     17  O   LIG A   1     -10.138   2.566 131.439  0.00  0.00    -0.491 OA
ATOM     18  C   LIG A   1      -9.491   1.350 131.808  0.00  0.00    +0.277 C 
ENDBRANCH  13  17
BRANCH  15  19
ATOM     19  O   LIG A   1      -9.415   6.807 129.008  0.00  0.00    -0.491 OA
ATOM     20  C   LIG A   1     -10.593   7.504 128.702  0.00  0.00    +0.277 C 
ENDBRANCH  15  19
BRANCH  14  21
ATOM     21  O   LIG A   1     -10.925   5.049 131.238  0.00  0.00    -0.488 OA
ATOM     22  C   LIG A   1     -10.567   6.019 132.208  0.00  0.00    +0.277 C 
ENDBRANCH  14  21
ENDBRANCH   5  11
BRANCH   1  23
ATOM     23  O   LIG A   1      -8.368  -0.718 126.681  0.00  0.00    -0.488 OA
ATOM     24  C   LIG A   1      -7.297  -1.637 126.837  0.00  0.00    +0.277 C 
ENDBRANCH   1  23
BRANCH   9  25
ATOM     25  O   LIG A   1      -9.045   2.016 122.642  0.00  0.00    -0.491 OA
ATOM     26  C   LIG A   1      -8.554   3.133 121.930  0.00  0.00    +0.277 C 
ENDBRANCH   9  25
BRANCH  10  27
ATOM     27  O   LIG A   1      -9.548  -0.454 124.076  0.00  0.00    -0.481 OA
BRANCH  27  28
ATOM     28  C   LIG A   1      -8.991  -1.389 123.158  0.00  0.00    +0.256 C 
BRANCH  28  29
ATOM     29  C   LIG A   1      -9.426  -2.784 123.505  0.00  0.00    +0.006 C 
ATOM     30  C   LIG A   1      -8.705  -3.622 124.199  0.00  0.00    +0.007 C 
ENDBRANCH  28  29
ENDBRANCH  27  28
ENDBRANCH  10  27
TORSDOF 9
ENDMDL
MODEL 4
REMARK VINA RESULT:      -6.4      2.623      5.894
REMARK  Name = NuBBE_1958
REMARK  15 active torsions:
REMARK  status: ('A' for Active; 'I' for Inactive)
REMARK    1  A    between atoms: O_1  and  C_2
REMARK    2  A    between atoms: O_1  and  C_3
REMARK    3  A    between atoms: C_6  and  C_23
REMARK    4  A    between atoms: C_8  and  C_11
REMARK    5  A    between atoms: C_13  and  O_14
REMARK    6  A    between atoms: O_14  and  C_15
REMARK    7  A    between atoms: C_16  and  O_21
REMARK    8  A    between atoms: C_17  and  O_19
REMARK    9  A    between atoms: O_19  and  C_20
REMARK   10  A    between atoms: O_21  and  C_22
REMARK   11  A    between atoms: C_25  and  O_31
REMARK   12  A    between atoms: C_26  and  O_27
REMARK   13  A    between atoms: O_27  and  C_28
REMARK   14  A    between atoms: C_28  and  C_29
REMARK   15  A    between atoms: O_31  and  C_32
REMARK                            x       y       z     vdW  Elec       q    Type
REMARK                         _______ _______ _______ _____ _____    ______ ____
ROOT
ATOM      1  C   LIG A   1      -6.416   1.737 124.822  0.00  0.00    +0.208 A 
ATOM      2  C   LIG A   1      -5.641   2.090 125.919  0.00  0.00    +0.170 A 
ATOM      3  C   LIG A   1      -4.968   3.298 125.994  0.00  0.00    +0.008 A 
ATOM      4  C   LIG A   1      -4.238   3.384 127.286  0.00  0.00    +0.065 C 
ATOM      5  C   LIG A   1      -5.038   2.317 128.063  0.00  0.00    +0.211 C 
ATOM      6  O   LIG A   1      -5.502   1.358 127.081  0.00  0.00    -0.479 OA
ATOM      7  C   LIG A   1      -2.788   2.981 127.025  0.00  0.00    +0.016 C 
ATOM      8  C   LIG A   1      -4.993   4.191 124.952  0.00  0.00    +0.057 A 
ATOM      9  C   LIG A   1      -5.748   3.881 123.812  0.00  0.00    +0.166 A 
ATOM     10  C   LIG A   1      -6.475   2.656 123.738  0.00  0.00    +0.208 A 
ENDROOT
BRANCH   5  11
ATOM     11  C   LIG A   1      -6.219   2.871 128.866  0.00  0.00    +0.000 A 
ATOM     12  C   LIG A   1      -7.174   2.016 129.405  0.00  0.00    +0.057 A 
ATOM     13  C   LIG A   1      -8.236   2.526 130.178  0.00  0.00    +0.166 A 
ATOM     14  C   LIG A   1      -8.362   3.930 130.447  0.00  0.00    +0.203 A 
ATOM     15  C   LIG A   1      -7.387   4.795 129.932  0.00  0.00    +0.166 A 
ATOM     16  C   LIG A   1      -6.362   4.239 129.138  0.00  0.00    +0.057 A 
BRANCH  13  17
ATOM     17  O   LIG A   1      -9.168   1.691 130.765  0.00  0.00    -0.491 OA
ATOM     18  C   LIG A   1      -8.676   0.705 131.671  0.00  0.00    +0.277 C 
ENDBRANCH  13  17
BRANCH  15  19
ATOM     19  O   LIG A   1      -7.109   6.125 130.048  0.00  0.00    -0.491 OA
ATOM     20  C   LIG A   1      -6.677   6.759 131.222  0.00  0.00    +0.277 C 
ENDBRANCH  15  19
BRANCH  14  21
ATOM     21  O   LIG A   1      -9.378   4.234 131.321  0.00  0.00    -0.488 OA
ATOM     22  C   LIG A   1     -10.399   5.120 130.894  0.00  0.00    +0.277 C 
ENDBRANCH  14  21
ENDBRANCH   5  11
BRANCH   1  23
ATOM     23  O   LIG A   1      -7.154   0.589 124.764  0.00  0.00    -0.488 OA
ATOM     24  C   LIG A   1      -8.456   0.551 125.326  0.00  0.00    +0.277 C 
ENDBRANCH   1  23
BRANCH   9  25
ATOM     25  O   LIG A   1      -5.556   4.834 122.848  0.00  0.00    -0.491 OA
ATOM     26  C   LIG A   1      -4.563   4.710 121.850  0.00  0.00    +0.277 C 
ENDBRANCH   9  25
BRANCH  10  27
ATOM     27  O   LIG A   1      -7.207   2.465 122.590  0.00  0.00    -0.481 OA
BRANCH  27  28
ATOM     28  C   LIG A   1      -8.543   2.937 122.444  0.00  0.00    +0.256 C 
BRANCH  28  29
ATOM     29  C   LIG A   1      -8.753   3.494 121.065  0.00  0.00    +0.006 C 
ATOM     30  C   LIG A   1      -7.795   3.958 120.312  0.00  0.00    +0.007 C 
ENDBRANCH  28  29
ENDBRANCH  27  28
ENDBRANCH  10  27
TORSDOF 9
ENDMDL
MODEL 5
REMARK VINA RESULT:      -6.4      2.451      5.373
REMARK  Name = NuBBE_1958
REMARK  15 active torsions:
REMARK  status: ('A' for Active; 'I' for Inactive)
REMARK    1  A    between atoms: O_1  and  C_2
REMARK    2  A    between atoms: O_1  and  C_3
REMARK    3  A    between atoms: C_6  and  C_23
REMARK    4  A    between atoms: C_8  and  C_11
REMARK    5  A    between atoms: C_13  and  O_14
REMARK    6  A    between atoms: O_14  and  C_15
REMARK    7  A    between atoms: C_16  and  O_21
REMARK    8  A    between atoms: C_17  and  O_19
REMARK    9  A    between atoms: O_19  and  C_20
REMARK   10  A    between atoms: O_21  and  C_22
REMARK   11  A    between atoms: C_25  and  O_31
REMARK   12  A    between atoms: C_26  and  O_27
REMARK   13  A    between atoms: O_27  and  C_28
REMARK   14  A    between atoms: C_28  and  C_29
REMARK   15  A    between atoms: O_31  and  C_32
REMARK                            x       y       z     vdW  Elec       q    Type
REMARK                         _______ _______ _______ _____ _____    ______ ____
ROOT
ATOM      1  C   LIG A   1      -6.116   1.968 125.784  0.00  0.00    +0.208 A 
ATOM      2  C   LIG A   1      -5.047   2.499 126.494  0.00  0.00    +0.170 A 
ATOM      3  C   LIG A   1      -4.366   3.629 126.076  0.00  0.00    +0.008 A 
ATOM      4  C   LIG A   1      -3.286   3.950 127.046  0.00  0.00    +0.065 C 
ATOM      5  C   LIG A   1      -3.835   3.163 128.256  0.00  0.00    +0.211 C 
ATOM      6  O   LIG A   1      -4.581   2.046 127.712  0.00  0.00    -0.479 OA
ATOM      7  C   LIG A   1      -1.983   3.376 126.493  0.00  0.00    +0.016 C 
ATOM      8  C   LIG A   1      -4.686   4.256 124.897  0.00  0.00    +0.057 A 
ATOM      9  C   LIG A   1      -5.748   3.756 124.131  0.00  0.00    +0.166 A 
ATOM     10  C   LIG A   1      -6.481   2.613 124.569  0.00  0.00    +0.208 A 
ENDROOT
BRANCH   5  11
ATOM     11  C   LIG A   1      -4.719   3.986 129.197  0.00  0.00    +0.000 A 
ATOM     12  C   LIG A   1      -4.528   5.357 129.331  0.00  0.00    +0.057 A 
ATOM     13  C   LIG A   1      -5.369   6.119 130.166  0.00  0.00    +0.166 A 
ATOM     14  C   LIG A   1      -6.452   5.517 130.890  0.00  0.00    +0.203 A 
ATOM     15  C   LIG A   1      -6.669   4.140 130.738  0.00  0.00    +0.166 A 
ATOM     16  C   LIG A   1      -5.780   3.418 129.915  0.00  0.00    +0.057 A 
BRANCH  13  17
ATOM     17  O   LIG A   1      -5.229   7.489 130.275  0.00  0.00    -0.491 OA
ATOM     18  C   LIG A   1      -4.034   8.064 129.749  0.00  0.00    +0.277 C 
ENDBRANCH  13  17
BRANCH  15  19
ATOM     19  O   LIG A   1      -7.617   3.254 131.158  0.00  0.00    -0.491 OA
ATOM     20  C   LIG A   1      -8.804   2.959 130.473  0.00  0.00    +0.277 C 
ENDBRANCH  15  19
BRANCH  14  21
ATOM     21  O   LIG A   1      -7.245   6.424 131.550  0.00  0.00    -0.488 OA
ATOM     22  C   LIG A   1      -8.535   6.705 131.032  0.00  0.00    +0.277 C 
ENDBRANCH  14  21
ENDBRANCH   5  11
BRANCH   1  23
ATOM     23  O   LIG A   1      -6.852   0.905 126.221  0.00  0.00    -0.488 OA
ATOM     24  C   LIG A   1      -7.904   1.102 127.154  0.00  0.00    +0.277 C 
ENDBRANCH   1  23
BRANCH   9  25
ATOM     25  O   LIG A   1      -5.836   4.440 122.949  0.00  0.00    -0.491 OA
ATOM     26  C   LIG A   1      -5.379   3.899 121.726  0.00  0.00    +0.277 C 
ENDBRANCH   9  25
BRANCH  10  27
ATOM     27  O   LIG A   1      -7.521   2.225 123.760  0.00  0.00    -0.481 OA
BRANCH  27  28
ATOM     28  C   LIG A   1      -8.849   2.711 123.930  0.00  0.00    +0.256 C 
BRANCH  28  29
ATOM     29  C   LIG A   1      -9.831   1.576 123.892  0.00  0.00    +0.006 C 
ATOM     30  C   LIG A   1     -10.122   0.897 122.817  0.00  0.00    +0.007 C 
ENDBRANCH  28  29
ENDBRANCH  27  28
ENDBRANCH  10  27
TORSDOF 9
ENDMDL
MODEL 6
REMARK VINA RESULT:      -6.4      2.587      5.130
REMARK  Name = NuBBE_1958
REMARK  15 active torsions:
REMARK  status: ('A' for Active; 'I' for Inactive)
REMARK    1  A    between atoms: O_1  and  C_2
REMARK    2  A    between atoms: O_1  and  C_3
REMARK    3  A    between atoms: C_6  and  C_23
REMARK    4  A    between atoms: C_8  and  C_11
REMARK    5  A    between atoms: C_13  and  O_14
REMARK    6  A    between atoms: O_14  and  C_15
REMARK    7  A    between atoms: C_16  and  O_21
REMARK    8  A    between atoms: C_17  and  O_19
REMARK    9  A    between atoms: O_19  and  C_20
REMARK   10  A    between atoms: O_21  and  C_22
REMARK   11  A    between atoms: C_25  and  O_31
REMARK   12  A    between atoms: C_26  and  O_27
REMARK   13  A    between atoms: O_27  and  C_28
REMARK   14  A    between atoms: C_28  and  C_29
REMARK   15  A    between atoms: O_31  and  C_32
REMARK                            x       y       z     vdW  Elec       q    Type
REMARK                         _______ _______ _______ _____ _____    ______ ____
ROOT
ATOM      1  C   LIG A   1      -7.923  -1.152 126.869  0.00  0.00    +0.208 A 
ATOM      2  C   LIG A   1      -7.319   0.063 127.166  0.00  0.00    +0.170 A 
ATOM      3  C   LIG A   1      -7.718   1.253 126.580  0.00  0.00    +0.008 A 
ATOM      4  C   LIG A   1      -6.891   2.370 127.105  0.00  0.00    +0.065 C 
ATOM      5  C   LIG A   1      -6.387   1.687 128.394  0.00  0.00    +0.211 C 
ATOM      6  O   LIG A   1      -6.332   0.267 128.109  0.00  0.00    -0.479 OA
ATOM      7  C   LIG A   1      -5.780   2.639 126.090  0.00  0.00    +0.016 C 
ATOM      8  C   LIG A   1      -8.706   1.279 125.628  0.00  0.00    +0.057 A 
ATOM      9  C   LIG A   1      -9.343   0.080 125.278  0.00  0.00    +0.166 A 
ATOM     10  C   LIG A   1      -8.965  -1.147 125.901  0.00  0.00    +0.208 A 
ENDROOT
BRANCH   5  11
ATOM     11  C   LIG A   1      -7.254   1.949 129.629  0.00  0.00    +0.000 A 
ATOM     12  C   LIG A   1      -7.120   1.165 130.770  0.00  0.00    +0.057 A 
ATOM     13  C   LIG A   1      -7.889   1.435 131.918  0.00  0.00    +0.166 A 
ATOM     14  C   LIG A   1      -8.819   2.527 131.959  0.00  0.00    +0.203 A 
ATOM     15  C   LIG A   1      -8.940   3.340 130.823  0.00  0.00    +0.166 A 
ATOM     16  C   LIG A   1      -8.171   3.008 129.689  0.00  0.00    +0.057 A 
BRANCH  13  17
ATOM     17  O   LIG A   1      -7.735   0.701 133.079  0.00  0.00    -0.491 OA
ATOM     18  C   LIG A   1      -6.401   0.416 133.496  0.00  0.00    +0.277 C 
ENDBRANCH  13  17
BRANCH  15  19
ATOM     19  O   LIG A   1      -9.610   4.487 130.516  0.00  0.00    -0.491 OA
ATOM     20  C   LIG A   1     -10.985   4.691 130.700  0.00  0.00    +0.277 C 
ENDBRANCH  15  19
BRANCH  14  21
ATOM     21  O   LIG A   1      -9.386   2.722 133.195  0.00  0.00    -0.488 OA
ATOM     22  C   LIG A   1      -9.020   3.872 133.938  0.00  0.00    +0.277 C 
ENDBRANCH  14  21
ENDBRANCH   5  11
BRANCH   1  23
ATOM     23  O   LIG A   1      -7.601  -2.321 127.496  0.00  0.00    -0.488 OA
ATOM     24  C   LIG A   1      -8.152  -2.623 128.768  0.00  0.00    +0.277 C 
ENDBRANCH   1  23
BRANCH   9  25
ATOM     25  O   LIG A   1     -10.210   0.294 124.242  0.00  0.00    -0.491 OA
ATOM     26  C   LIG A   1      -9.866   1.080 123.118  0.00  0.00    +0.277 C 
ENDBRANCH   9  25
BRANCH  10  27
ATOM     27  O   LIG A   1      -9.673  -2.258 125.508  0.00  0.00    -0.481 OA
BRANCH  27  28
ATOM     28  C   LIG A   1      -9.102  -3.290 124.711  0.00  0.00    +0.256 C 
BRANCH  28  29
ATOM     29  C   LIG A   1      -9.213  -2.947 123.253  0.00  0.00    +0.006 C 
ATOM     30  C   LIG A   1      -8.300  -2.299 122.583  0.00  0.00    +0.007 C 
ENDBRANCH  28  29
ENDBRANCH  27  28
ENDBRANCH  10  27
TORSDOF 9
ENDMDL
MODEL 7
REMARK VINA RESULT:      -6.4      1.044      2.543
REMARK  Name = NuBBE_1958
REMARK  15 active torsions:
REMARK  status: ('A' for Active; 'I' for Inactive)
REMARK    1  A    between atoms: O_1  and  C_2
REMARK    2  A    between atoms: O_1  and  C_3
REMARK    3  A    between atoms: C_6  and  C_23
REMARK    4  A    between atoms: C_8  and  C_11
REMARK    5  A    between atoms: C_13  and  O_14
REMARK    6  A    between atoms: O_14  and  C_15
REMARK    7  A    between atoms: C_16  and  O_21
REMARK    8  A    between atoms: C_17  and  O_19
REMARK    9  A    between atoms: O_19  and  C_20
REMARK   10  A    between atoms: O_21  and  C_22
REMARK   11  A    between atoms: C_25  and  O_31
REMARK   12  A    between atoms: C_26  and  O_27
REMARK   13  A    between atoms: O_27  and  C_28
REMARK   14  A    between atoms: C_28  and  C_29
REMARK   15  A    between atoms: O_31  and  C_32
REMARK                            x       y       z     vdW  Elec       q    Type
REMARK                         _______ _______ _______ _____ _____    ______ ____
ROOT
ATOM      1  C   LIG A   1      -8.988   0.948 126.475  0.00  0.00    +0.208 A 
ATOM      2  C   LIG A   1      -8.600   1.361 127.743  0.00  0.00    +0.170 A 
ATOM      3  C   LIG A   1      -7.910   0.535 128.614  0.00  0.00    +0.008 A 
ATOM      4  C   LIG A   1      -7.633   1.263 129.880  0.00  0.00    +0.065 C 
ATOM      5  C   LIG A   1      -7.803   2.702 129.349  0.00  0.00    +0.211 C 
ATOM      6  O   LIG A   1      -8.763   2.628 128.267  0.00  0.00    -0.479 OA
ATOM      7  C   LIG A   1      -8.707   0.860 130.889  0.00  0.00    +0.016 C 
ATOM      8  C   LIG A   1      -7.621  -0.765 128.281  0.00  0.00    +0.057 A 
ATOM      9  C   LIG A   1      -8.001  -1.241 127.018  0.00  0.00    +0.166 A 
ATOM     10  C   LIG A   1      -8.680  -0.388 126.098  0.00  0.00    +0.208 A 
ENDROOT
BRANCH   5  11
ATOM     11  C   LIG A   1      -6.504   3.355 128.865  0.00  0.00    +0.000 A 
ATOM     12  C   LIG A   1      -6.471   4.069 127.672  0.00  0.00    +0.057 A 
ATOM     13  C   LIG A   1      -5.286   4.703 127.251  0.00  0.00    +0.166 A 
ATOM     14  C   LIG A   1      -4.086   4.651 128.037  0.00  0.00    +0.203 A 
ATOM     15  C   LIG A   1      -4.120   3.958 129.255  0.00  0.00    +0.166 A 
ATOM     16  C   LIG A   1      -5.321   3.314 129.616  0.00  0.00    +0.057 A 
BRANCH  13  17
ATOM     17  O   LIG A   1      -5.243   5.459 126.095  0.00  0.00    -0.491 OA
ATOM     18  C   LIG A   1      -6.195   5.146 125.079  0.00  0.00    +0.277 C 
ENDBRANCH  13  17
BRANCH  15  19
ATOM     19  O   LIG A   1      -3.254   3.774 130.292  0.00  0.00    -0.491 OA
ATOM     20  C   LIG A   1      -3.627   3.541 131.623  0.00  0.00    +0.277 C 
ENDBRANCH  15  19
BRANCH  14  21
ATOM     21  O   LIG A   1      -3.068   5.429 127.541  0.00  0.00    -0.488 OA
ATOM     22  C   LIG A   1      -2.652   6.561 128.287  0.00  0.00    +0.277 C 
ENDBRANCH  14  21
ENDBRANCH   5  11
BRANCH   1  23
ATOM     23  O   LIG A   1      -9.595   1.773 125.572  0.00  0.00    -0.488 OA
ATOM     24  C   LIG A   1      -8.812   2.573 124.700  0.00  0.00    +0.277 C 
ENDBRANCH   1  23
BRANCH   9  25
ATOM     25  O   LIG A   1      -7.728  -2.579 126.919  0.00  0.00    -0.491 OA
ATOM     26  C   LIG A   1      -8.694  -3.570 127.207  0.00  0.00    +0.277 C 
ENDBRANCH   9  25
BRANCH  10  27
ATOM     27  O   LIG A   1      -8.979  -0.945 124.878  0.00  0.00    -0.481 OA
BRANCH  27  28
ATOM     28  C   LIG A   1      -7.995  -1.165 123.872  0.00  0.00    +0.256 C 
BRANCH  28  29
ATOM     29  C   LIG A   1      -8.401  -2.306 122.983  0.00  0.00    +0.006 C 
ATOM     30  C   LIG A   1      -9.292  -3.202 123.307  0.00  0.00    +0.007 C 
ENDBRANCH  28  29
ENDBRANCH  27  28
ENDBRANCH  10  27
TORSDOF 9
ENDMDL
MODEL 8
REMARK VINA RESULT:      -6.3      3.345      7.329
REMARK  Name = NuBBE_1958
REMARK  15 active torsions:
REMARK  status: ('A' for Active; 'I' for Inactive)
REMARK    1  A    between atoms: O_1  and  C_2
REMARK    2  A    between atoms: O_1  and  C_3
REMARK    3  A    between atoms: C_6  and  C_23
REMARK    4  A    between atoms: C_8  and  C_11
REMARK    5  A    between atoms: C_13  and  O_14
REMARK    6  A    between atoms: O_14  and  C_15
REMARK    7  A    between atoms: C_16  and  O_21
REMARK    8  A    between atoms: C_17  and  O_19
REMARK    9  A    between atoms: O_19  and  C_20
REMARK   10  A    between atoms: O_21  and  C_22
REMARK   11  A    between atoms: C_25  and  O_31
REMARK   12  A    between atoms: C_26  and  O_27
REMARK   13  A    between atoms: O_27  and  C_28
REMARK   14  A    between atoms: C_28  and  C_29
REMARK   15  A    between atoms: O_31  and  C_32
REMARK                            x       y       z     vdW  Elec       q    Type
REMARK                         _______ _______ _______ _____ _____    ______ ____
ROOT
ATOM      1  C   LIG A   1      -9.690   5.290 129.253  0.00  0.00    +0.208 A 
ATOM      2  C   LIG A   1      -8.519   4.721 128.769  0.00  0.00    +0.170 A 
ATOM      3  C   LIG A   1      -7.811   3.765 129.476  0.00  0.00    +0.008 A 
ATOM      4  C   LIG A   1      -6.616   3.349 128.696  0.00  0.00    +0.065 C 
ATOM      5  C   LIG A   1      -7.086   3.820 127.303  0.00  0.00    +0.211 C 
ATOM      6  O   LIG A   1      -7.958   4.955 127.529  0.00  0.00    -0.479 OA
ATOM      7  C   LIG A   1      -5.419   4.136 129.229  0.00  0.00    +0.016 C 
ATOM      8  C   LIG A   1      -8.209   3.367 130.728  0.00  0.00    +0.057 A 
ATOM      9  C   LIG A   1      -9.378   3.917 131.274  0.00  0.00    +0.166 A 
ATOM     10  C   LIG A   1     -10.136   4.877 130.539  0.00  0.00    +0.208 A 
ENDROOT
BRANCH   5  11
ATOM     11  C   LIG A   1      -7.808   2.747 126.483  0.00  0.00    +0.000 A 
ATOM     12  C   LIG A   1      -8.339   3.047 125.233  0.00  0.00    +0.057 A 
ATOM     13  C   LIG A   1      -8.965   2.048 124.463  0.00  0.00    +0.166 A 
ATOM     14  C   LIG A   1      -9.066   0.694 124.928  0.00  0.00    +0.203 A 
ATOM     15  C   LIG A   1      -8.508   0.377 126.175  0.00  0.00    +0.166 A 
ATOM     16  C   LIG A   1      -7.919   1.419 126.920  0.00  0.00    +0.057 A 
BRANCH  13  17
ATOM     17  O   LIG A   1      -9.455   2.312 123.198  0.00  0.00    -0.491 OA
ATOM     18  C   LIG A   1      -8.574   2.962 122.283  0.00  0.00    +0.277 C 
ENDBRANCH  13  17
BRANCH  15  19
ATOM     19  O   LIG A   1      -8.315  -0.768 126.889  0.00  0.00    -0.491 OA
ATOM     20  C   LIG A   1      -7.214  -1.025 127.719  0.00  0.00    +0.277 C 
ENDBRANCH  15  19
BRANCH  14  21
ATOM     21  O   LIG A   1      -9.590  -0.171 123.998  0.00  0.00    -0.488 OA
ATOM     22  C   LIG A   1      -8.726  -1.109 123.379  0.00  0.00    +0.277 C 
ENDBRANCH  14  21
ENDBRANCH   5  11
BRANCH   1  23
ATOM     23  O   LIG A   1     -10.446   6.172 128.536  0.00  0.00    -0.488 OA
ATOM     24  C   LIG A   1     -10.150   7.559 128.573  0.00  0.00    +0.277 C 
ENDBRANCH   1  23
BRANCH   9  25
ATOM     25  O   LIG A   1      -9.543   3.484 132.561  0.00  0.00    -0.491 OA
ATOM     26  C   LIG A   1      -8.509   2.845 133.283  0.00  0.00    +0.277 C 
ENDBRANCH   9  25
BRANCH  10  27
ATOM     27  O   LIG A   1     -11.280   5.330 131.153  0.00  0.00    -0.481 OA
BRANCH  27  28
ATOM     28  C   LIG A   1     -11.317   6.531 131.918  0.00  0.00    +0.256 C 
BRANCH  28  29
ATOM     29  C   LIG A   1     -12.544   7.328 131.580  0.00  0.00    +0.006 C 
ATOM     30  C   LIG A   1     -13.155   7.274 130.428  0.00  0.00    +0.007 C 
ENDBRANCH  28  29
ENDBRANCH  27  28
ENDBRANCH  10  27
TORSDOF 9
ENDMDL
MODEL 9
REMARK VINA RESULT:      -6.3      4.844      8.844
REMARK  Name = NuBBE_1958
REMARK  15 active torsions:
REMARK  status: ('A' for Active; 'I' for Inactive)
REMARK    1  A    between atoms: O_1  and  C_2
REMARK    2  A    between atoms: O_1  and  C_3
REMARK    3  A    between atoms: C_6  and  C_23
REMARK    4  A    between atoms: C_8  and  C_11
REMARK    5  A    between atoms: C_13  and  O_14
REMARK    6  A    between atoms: O_14  and  C_15
REMARK    7  A    between atoms: C_16  and  O_21
REMARK    8  A    between atoms: C_17  and  O_19
REMARK    9  A    between atoms: O_19  and  C_20
REMARK   10  A    between atoms: O_21  and  C_22
REMARK   11  A    between atoms: C_25  and  O_31
REMARK   12  A    between atoms: C_26  and  O_27
REMARK   13  A    between atoms: O_27  and  C_28
REMARK   14  A    between atoms: C_28  and  C_29
REMARK   15  A    between atoms: O_31  and  C_32
REMARK                            x       y       z     vdW  Elec       q    Type
REMARK                         _______ _______ _______ _____ _____    ______ ____
ROOT
ATOM      1  C   LIG A   1      -4.926   3.914 131.753  0.00  0.00    +0.208 A 
ATOM      2  C   LIG A   1      -6.020   4.236 132.547  0.00  0.00    +0.170 A 
ATOM      3  C   LIG A   1      -6.103   5.427 133.247  0.00  0.00    +0.008 A 
ATOM      4  C   LIG A   1      -7.389   5.481 133.991  0.00  0.00    +0.065 C 
ATOM      5  C   LIG A   1      -8.160   4.422 133.175  0.00  0.00    +0.211 C 
ATOM      6  O   LIG A   1      -7.171   3.486 132.681  0.00  0.00    -0.479 OA
ATOM      7  C   LIG A   1      -7.108   5.050 135.430  0.00  0.00    +0.016 C 
ATOM      8  C   LIG A   1      -5.072   6.334 133.232  0.00  0.00    +0.057 A 
ATOM      9  C   LIG A   1      -3.937   6.055 132.459  0.00  0.00    +0.166 A 
ATOM     10  C   LIG A   1      -3.854   4.847 131.704  0.00  0.00    +0.208 A 
ENDROOT
BRANCH   5  11
ATOM     11  C   LIG A   1      -8.981   4.992 132.015  0.00  0.00    +0.000 A 
ATOM     12  C   LIG A   1      -8.535   4.871 130.703  0.00  0.00    +0.057 A 
ATOM     13  C   LIG A   1      -9.312   5.359 129.635  0.00  0.00    +0.166 A 
ATOM     14  C   LIG A   1     -10.587   5.980 129.856  0.00  0.00    +0.203 A 
ATOM     15  C   LIG A   1     -11.058   6.080 131.173  0.00  0.00    +0.166 A 
ATOM     16  C   LIG A   1     -10.228   5.604 132.209  0.00  0.00    +0.057 A 
BRANCH  13  17
ATOM     17  O   LIG A   1      -8.912   5.205 128.321  0.00  0.00    -0.491 OA
ATOM     18  C   LIG A   1      -7.931   4.205 128.054  0.00  0.00    +0.277 C 
ENDBRANCH  13  17
BRANCH  15  19
ATOM     19  O   LIG A   1     -12.216   6.492 131.762  0.00  0.00    -0.491 OA
ATOM     20  C   LIG A   1     -12.915   7.663 131.433  0.00  0.00    +0.277 C 
ENDBRANCH  15  19
BRANCH  14  21
ATOM     21  O   LIG A   1     -11.263   6.279 128.698  0.00  0.00    -0.488 OA
ATOM     22  C   LIG A   1     -11.259   7.618 128.233  0.00  0.00    +0.277 C 
ENDBRANCH  14  21
ENDBRANCH   5  11
BRANCH   1  23
ATOM     23  O   LIG A   1      -4.862   2.783 130.990  0.00  0.00    -0.488 OA
ATOM     24  C   LIG A   1      -4.301   1.594 131.524  0.00  0.00    +0.277 C 
ENDBRANCH   1  23
BRANCH   9  25
ATOM     25  O   LIG A   1      -2.983   7.016 132.662  0.00  0.00    -0.491 OA
ATOM     26  C   LIG A   1      -2.985   8.244 131.961  0.00  0.00    +0.277 C 
ENDBRANCH   9  25
BRANCH  10  27
ATOM     27  O   LIG A   1      -2.712   4.687 130.957  0.00  0.00    -0.481 OA
BRANCH  27  28
ATOM     28  C   LIG A   1      -2.687   4.864 129.544  0.00  0.00    +0.256 C 
BRANCH  28  29
ATOM     29  C   LIG A   1      -2.090   6.196 129.193  0.00  0.00    +0.006 C 
ATOM     30  C   LIG A   1      -2.398   6.875 128.123  0.00  0.00    +0.007 C 
ENDBRANCH  28  29
ENDBRANCH  27  28
ENDBRANCH  10  27
TORSDOF 9
ENDMDL
