MODEL 1
REMARK VINA RESULT:      -7.5      0.000      0.000
REMARK  Name = NuBBE_155
REMARK  15 active torsions:
REMARK  status: ('A' for Active; 'I' for Inactive)
REMARK    1  A    between atoms: C_2  and  O_3
REMARK    2  A    between atoms: C_2  and  C_5
REMARK    3  A    between atoms: O_3  and  C_4
REMARK    4  A    between atoms: C_7  and  C_8
REMARK    5  A    between atoms: C_8  and  C_9
REMARK    6  A    between atoms: C_9  and  C_10
REMARK    7  A    between atoms: C_10  and  C_11
REMARK    8  A    between atoms: C_10  and  C_12
REMARK    9  A    between atoms: C_15  and  C_16
REMARK   10  A    between atoms: C_15  and  C_22
REMARK   11  A    between atoms: C_16  and  C_17
REMARK   12  A    between atoms: C_17  and  C_18
REMARK   13  A    between atoms: C_18  and  C_19
REMARK   14  A    between atoms: C_19  and  C_20
REMARK   15  A    between atoms: C_19  and  C_21
REMARK                            x       y       z     vdW  Elec       q    Type
REMARK                         _______ _______ _______ _____ _____    ______ ____
ROOT
ATOM      1  C   LIG A   1      -5.370   3.724 125.725  0.00  0.00    +0.060 A 
ATOM      2  C   LIG A   1      -5.681   4.073 124.403  0.00  0.00    +0.022 A 
ATOM      3  C   LIG A   1      -6.538   3.283 123.627  0.00  0.00    -0.005 A 
ATOM      4  C   LIG A   1      -7.083   2.120 124.195  0.00  0.00    +0.128 A 
ATOM      5  O   LIG A   1      -7.870   1.349 123.380  0.00  0.00    -0.485 OA
ATOM      6  C   LIG A   1      -8.127  -0.007 123.809  0.00  0.00    +0.108 C 
ATOM      7  C   LIG A   1      -9.321  -0.459 122.952  0.00  0.00    +0.056 C 
ATOM      8  C   LIG A   1      -8.545  -0.010 125.288  0.00  0.00    +0.052 C 
ATOM      9  C   LIG A   1      -7.444   0.570 126.166  0.00  0.00    +0.043 C 
ATOM     10  C   LIG A   1      -6.827   1.787 125.536  0.00  0.00    -0.004 A 
ATOM     11  C   LIG A   1      -5.950   2.583 126.290  0.00  0.00    +0.022 A 
ENDROOT
BRANCH   1  13
ATOM     12  O   LIG A   1      -4.728   5.631 127.041  0.00  0.00    -0.245 OA
ATOM     13  C   LIG A   1      -4.438   4.551 126.536  0.00  0.00    +0.339 C 
BRANCH  13  14
ATOM     14  O   LIG A   1      -3.242   3.925 126.615  0.00  0.00    -0.465 OA
ATOM     15  C   LIG A   1      -2.425   4.294 127.721  0.00  0.00    +0.280 C 
ENDBRANCH  13  14
ENDBRANCH   1  13
BRANCH   3  16
ATOM     16  C   LIG A   1      -6.825   3.708 122.204  0.00  0.00    +0.039 C 
BRANCH  16  17
ATOM     17  C   LIG A   1      -5.550   3.946 121.382  0.00  0.00    +0.008 C 
BRANCH  17  18
ATOM     18  C   LIG A   1      -5.828   4.287 119.902  0.00  0.00    -0.017 C 
ATOM     19  C   LIG A   1      -7.329   4.205 119.603  0.00  0.00    +0.007 C 
ATOM     20  C   LIG A   1      -5.314   5.674 119.515  0.00  0.00    +0.007 C 
ENDBRANCH  17  18
ENDBRANCH  16  17
ENDBRANCH   3  16
BRANCH   6  21
ATOM     21  C   LIG A   1      -6.870  -0.869 123.494  0.00  0.00    +0.048 C 
BRANCH  21  22
ATOM     22  C   LIG A   1      -7.122  -2.342 123.133  0.00  0.00    +0.004 C 
BRANCH  22  23
ATOM     23  C   LIG A   1      -6.976  -3.248 124.367  0.00  0.00    +0.003 C 
BRANCH  23  24
ATOM     24  C   LIG A   1      -8.287  -3.929 124.817  0.00  0.00    -0.017 C 
ATOM     25  C   LIG A   1      -8.634  -3.515 126.252  0.00  0.00    +0.007 C 
ATOM     26  C   LIG A   1      -9.477  -3.609 123.909  0.00  0.00    +0.007 C 
ENDBRANCH  23  24
ENDBRANCH  22  23
ENDBRANCH  21  22
ENDBRANCH   6  21
TORSDOF 9
ENDMDL
MODEL 2
REMARK VINA RESULT:      -7.4      2.070      5.200
REMARK  Name = NuBBE_155
REMARK  15 active torsions:
REMARK  status: ('A' for Active; 'I' for Inactive)
REMARK    1  A    between atoms: C_2  and  O_3
REMARK    2  A    between atoms: C_2  and  C_5
REMARK    3  A    between atoms: O_3  and  C_4
REMARK    4  A    between atoms: C_7  and  C_8
REMARK    5  A    between atoms: C_8  and  C_9
REMARK    6  A    between atoms: C_9  and  C_10
REMARK    7  A    between atoms: C_10  and  C_11
REMARK    8  A    between atoms: C_10  and  C_12
REMARK    9  A    between atoms: C_15  and  C_16
REMARK   10  A    between atoms: C_15  and  C_22
REMARK   11  A    between atoms: C_16  and  C_17
REMARK   12  A    between atoms: C_17  and  C_18
REMARK   13  A    between atoms: C_18  and  C_19
REMARK   14  A    between atoms: C_19  and  C_20
REMARK   15  A    between atoms: C_19  and  C_21
REMARK                            x       y       z     vdW  Elec       q    Type
REMARK                         _______ _______ _______ _____ _____    ______ ____
ROOT
ATOM      1  C   LIG A   1      -6.536   2.800 124.082  0.00  0.00    +0.060 A 
ATOM      2  C   LIG A   1      -7.642   1.946 123.961  0.00  0.00    +0.022 A 
ATOM      3  C   LIG A   1      -7.946   1.009 124.956  0.00  0.00    -0.005 A 
ATOM      4  C   LIG A   1      -7.116   0.930 126.085  0.00  0.00    +0.128 A 
ATOM      5  O   LIG A   1      -7.419  -0.041 127.004  0.00  0.00    -0.485 OA
ATOM      6  C   LIG A   1      -6.390  -0.383 127.960  0.00  0.00    +0.108 C 
ATOM      7  C   LIG A   1      -7.134  -1.153 129.064  0.00  0.00    +0.056 C 
ATOM      8  C   LIG A   1      -5.795   0.900 128.560  0.00  0.00    +0.052 C 
ATOM      9  C   LIG A   1      -5.172   1.770 127.477  0.00  0.00    +0.043 C 
ATOM     10  C   LIG A   1      -6.038   1.816 126.248  0.00  0.00    -0.004 A 
ATOM     11  C   LIG A   1      -5.740   2.736 125.231  0.00  0.00    +0.022 A 
ENDROOT
BRANCH   1  13
ATOM     12  O   LIG A   1      -5.449   4.733 123.153  0.00  0.00    -0.245 OA
ATOM     13  C   LIG A   1      -6.202   3.775 123.011  0.00  0.00    +0.339 C 
BRANCH  13  14
ATOM     14  O   LIG A   1      -6.860   3.435 121.879  0.00  0.00    -0.465 OA
ATOM     15  C   LIG A   1      -6.112   3.551 120.673  0.00  0.00    +0.280 C 
ENDBRANCH  13  14
ENDBRANCH   1  13
BRANCH   3  16
ATOM     16  C   LIG A   1      -9.147   0.108 124.761  0.00  0.00    +0.039 C 
BRANCH  16  17
ATOM     17  C   LIG A   1      -8.910  -0.984 123.708  0.00  0.00    +0.008 C 
BRANCH  17  18
ATOM     18  C   LIG A   1      -8.907  -2.412 124.295  0.00  0.00    -0.017 C 
ATOM     19  C   LIG A   1      -9.514  -2.418 125.701  0.00  0.00    +0.007 C 
ATOM     20  C   LIG A   1      -9.666  -3.407 123.416  0.00  0.00    +0.007 C 
ENDBRANCH  17  18
ENDBRANCH  16  17
ENDBRANCH   3  16
BRANCH   6  21
ATOM     21  C   LIG A   1      -5.353  -1.305 127.255  0.00  0.00    +0.048 C 
BRANCH  21  22
ATOM     22  C   LIG A   1      -5.895  -2.230 126.154  0.00  0.00    +0.004 C 
BRANCH  22  23
ATOM     23  C   LIG A   1      -5.296  -1.871 124.783  0.00  0.00    +0.003 C 
BRANCH  23  24
ATOM     24  C   LIG A   1      -5.524  -2.936 123.688  0.00  0.00    -0.017 C 
ATOM     25  C   LIG A   1      -5.771  -2.261 122.335  0.00  0.00    +0.007 C 
ATOM     26  C   LIG A   1      -4.357  -3.916 123.546  0.00  0.00    +0.007 C 
ENDBRANCH  23  24
ENDBRANCH  22  23
ENDBRANCH  21  22
ENDBRANCH   6  21
TORSDOF 9
ENDMDL
MODEL 3
REMARK VINA RESULT:      -7.0      8.819     11.668
REMARK  Name = NuBBE_155
REMARK  15 active torsions:
REMARK  status: ('A' for Active; 'I' for Inactive)
REMARK    1  A    between atoms: C_2  and  O_3
REMARK    2  A    between atoms: C_2  and  C_5
REMARK    3  A    between atoms: O_3  and  C_4
REMARK    4  A    between atoms: C_7  and  C_8
REMARK    5  A    between atoms: C_8  and  C_9
REMARK    6  A    between atoms: C_9  and  C_10
REMARK    7  A    between atoms: C_10  and  C_11
REMARK    8  A    between atoms: C_10  and  C_12
REMARK    9  A    between atoms: C_15  and  C_16
REMARK   10  A    between atoms: C_15  and  C_22
REMARK   11  A    between atoms: C_16  and  C_17
REMARK   12  A    between atoms: C_17  and  C_18
REMARK   13  A    between atoms: C_18  and  C_19
REMARK   14  A    between atoms: C_19  and  C_20
REMARK   15  A    between atoms: C_19  and  C_21
REMARK                            x       y       z     vdW  Elec       q    Type
REMARK                         _______ _______ _______ _____ _____    ______ ____
ROOT
ATOM      1  C   LIG A   1      -9.332   6.992 130.573  0.00  0.00    +0.060 A 
ATOM      2  C   LIG A   1      -7.947   7.203 130.507  0.00  0.00    +0.022 A 
ATOM      3  C   LIG A   1      -7.084   6.650 131.460  0.00  0.00    -0.005 A 
ATOM      4  C   LIG A   1      -7.629   5.876 132.497  0.00  0.00    +0.128 A 
ATOM      5  O   LIG A   1      -6.751   5.403 133.437  0.00  0.00    -0.485 OA
ATOM      6  C   LIG A   1      -7.314   4.937 134.685  0.00  0.00    +0.108 C 
ATOM      7  C   LIG A   1      -6.186   4.117 135.331  0.00  0.00    +0.056 C 
ATOM      8  C   LIG A   1      -8.506   4.009 134.399  0.00  0.00    +0.052 C 
ATOM      9  C   LIG A   1      -9.593   4.741 133.625  0.00  0.00    +0.043 C 
ATOM     10  C   LIG A   1      -9.007   5.608 132.545  0.00  0.00    -0.004 A 
ATOM     11  C   LIG A   1      -9.857   6.188 131.591  0.00  0.00    +0.022 A 
ENDROOT
BRANCH   1  13
ATOM     12  O   LIG A   1      -9.912   7.963 128.452  0.00  0.00    -0.245 OA
ATOM     13  C   LIG A   1     -10.248   7.604 129.575  0.00  0.00    +0.339 C 
BRANCH  13  14
ATOM     14  O   LIG A   1     -11.487   7.700 130.109  0.00  0.00    -0.465 OA
ATOM     15  C   LIG A   1     -12.503   8.169 129.228  0.00  0.00    +0.280 C 
ENDBRANCH  13  14
ENDBRANCH   1  13
BRANCH   3  16
ATOM     16  C   LIG A   1      -5.600   6.924 131.339  0.00  0.00    +0.039 C 
BRANCH  16  17
ATOM     17  C   LIG A   1      -4.956   6.211 130.141  0.00  0.00    +0.008 C 
BRANCH  17  18
ATOM     18  C   LIG A   1      -3.765   6.984 129.535  0.00  0.00    -0.017 C 
ATOM     19  C   LIG A   1      -3.948   8.493 129.726  0.00  0.00    +0.007 C 
ATOM     20  C   LIG A   1      -2.425   6.561 130.139  0.00  0.00    +0.007 C 
ENDBRANCH  17  18
ENDBRANCH  16  17
ENDBRANCH   3  16
BRANCH   6  21
ATOM     21  C   LIG A   1      -7.661   6.177 135.560  0.00  0.00    +0.048 C 
BRANCH  21  22
ATOM     22  C   LIG A   1      -7.400   6.044 137.069  0.00  0.00    +0.004 C 
BRANCH  22  23
ATOM     23  C   LIG A   1      -8.382   6.907 137.879  0.00  0.00    +0.003 C 
BRANCH  23  24
ATOM     24  C   LIG A   1      -8.658   8.300 137.271  0.00  0.00    -0.017 C 
ATOM     25  C   LIG A   1     -10.092   8.741 137.585  0.00  0.00    +0.007 C 
ATOM     26  C   LIG A   1      -7.691   9.378 137.766  0.00  0.00    +0.007 C 
ENDBRANCH  23  24
ENDBRANCH  22  23
ENDBRANCH  21  22
ENDBRANCH   6  21
TORSDOF 9
ENDMDL
MODEL 4
REMARK VINA RESULT:      -7.0      1.925      7.003
REMARK  Name = NuBBE_155
REMARK  15 active torsions:
REMARK  status: ('A' for Active; 'I' for Inactive)
REMARK    1  A    between atoms: C_2  and  O_3
REMARK    2  A    between atoms: C_2  and  C_5
REMARK    3  A    between atoms: O_3  and  C_4
REMARK    4  A    between atoms: C_7  and  C_8
REMARK    5  A    between atoms: C_8  and  C_9
REMARK    6  A    between atoms: C_9  and  C_10
REMARK    7  A    between atoms: C_10  and  C_11
REMARK    8  A    between atoms: C_10  and  C_12
REMARK    9  A    between atoms: C_15  and  C_16
REMARK   10  A    between atoms: C_15  and  C_22
REMARK   11  A    between atoms: C_16  and  C_17
REMARK   12  A    between atoms: C_17  and  C_18
REMARK   13  A    between atoms: C_18  and  C_19
REMARK   14  A    between atoms: C_19  and  C_20
REMARK   15  A    between atoms: C_19  and  C_21
REMARK                            x       y       z     vdW  Elec       q    Type
REMARK                         _______ _______ _______ _____ _____    ______ ____
ROOT
ATOM      1  C   LIG A   1      -6.309   3.477 122.245  0.00  0.00    +0.060 A 
ATOM      2  C   LIG A   1      -6.798   2.194 122.535  0.00  0.00    +0.022 A 
ATOM      3  C   LIG A   1      -6.866   1.726 123.853  0.00  0.00    -0.005 A 
ATOM      4  C   LIG A   1      -6.429   2.565 124.891  0.00  0.00    +0.128 A 
ATOM      5  O   LIG A   1      -6.462   2.042 126.157  0.00  0.00    -0.485 OA
ATOM      6  C   LIG A   1      -5.686   2.725 127.169  0.00  0.00    +0.108 C 
ATOM      7  C   LIG A   1      -6.233   2.185 128.500  0.00  0.00    +0.056 C 
ATOM      8  C   LIG A   1      -5.957   4.236 127.094  0.00  0.00    +0.052 C 
ATOM      9  C   LIG A   1      -5.565   4.793 125.732  0.00  0.00    +0.043 C 
ATOM     10  C   LIG A   1      -5.990   3.872 124.623  0.00  0.00    -0.004 A 
ATOM     11  C   LIG A   1      -5.913   4.315 123.292  0.00  0.00    +0.022 A 
ENDROOT
BRANCH   1  13
ATOM     12  O   LIG A   1      -5.175   4.332 120.305  0.00  0.00    -0.245 OA
ATOM     13  C   LIG A   1      -6.213   3.959 120.842  0.00  0.00    +0.339 C 
BRANCH  13  14
ATOM     14  O   LIG A   1      -7.439   3.921 120.274  0.00  0.00    -0.465 OA
ATOM     15  C   LIG A   1      -7.523   4.447 118.953  0.00  0.00    +0.280 C 
ENDBRANCH  13  14
ENDBRANCH   1  13
BRANCH   3  16
ATOM     16  C   LIG A   1      -7.393   0.329 124.099  0.00  0.00    +0.039 C 
BRANCH  16  17
ATOM     17  C   LIG A   1      -6.760  -0.720 123.173  0.00  0.00    +0.008 C 
BRANCH  17  18
ATOM     18  C   LIG A   1      -6.001  -1.831 123.931  0.00  0.00    -0.017 C 
ATOM     19  C   LIG A   1      -5.461  -1.301 125.263  0.00  0.00    +0.007 C 
ATOM     20  C   LIG A   1      -6.874  -3.059 124.196  0.00  0.00    +0.007 C 
ENDBRANCH  17  18
ENDBRANCH  16  17
ENDBRANCH   3  16
BRANCH   6  21
ATOM     21  C   LIG A   1      -4.191   2.330 126.991  0.00  0.00    +0.048 C 
BRANCH  21  22
ATOM     22  C   LIG A   1      -3.219   2.823 128.075  0.00  0.00    +0.004 C 
BRANCH  22  23
ATOM     23  C   LIG A   1      -2.448   4.067 127.605  0.00  0.00    +0.003 C 
BRANCH  23  24
ATOM     24  C   LIG A   1      -2.450   5.238 128.613  0.00  0.00    -0.017 C 
ATOM     25  C   LIG A   1      -3.112   6.472 127.990  0.00  0.00    +0.007 C 
ATOM     26  C   LIG A   1      -3.164   4.904 129.925  0.00  0.00    +0.007 C 
ENDBRANCH  23  24
ENDBRANCH  22  23
ENDBRANCH  21  22
ENDBRANCH   6  21
TORSDOF 9
ENDMDL
MODEL 5
REMARK VINA RESULT:      -7.0      3.541      6.417
REMARK  Name = NuBBE_155
REMARK  15 active torsions:
REMARK  status: ('A' for Active; 'I' for Inactive)
REMARK    1  A    between atoms: C_2  and  O_3
REMARK    2  A    between atoms: C_2  and  C_5
REMARK    3  A    between atoms: O_3  and  C_4
REMARK    4  A    between atoms: C_7  and  C_8
REMARK    5  A    between atoms: C_8  and  C_9
REMARK    6  A    between atoms: C_9  and  C_10
REMARK    7  A    between atoms: C_10  and  C_11
REMARK    8  A    between atoms: C_10  and  C_12
REMARK    9  A    between atoms: C_15  and  C_16
REMARK   10  A    between atoms: C_15  and  C_22
REMARK   11  A    between atoms: C_16  and  C_17
REMARK   12  A    between atoms: C_17  and  C_18
REMARK   13  A    between atoms: C_18  and  C_19
REMARK   14  A    between atoms: C_19  and  C_20
REMARK   15  A    between atoms: C_19  and  C_21
REMARK                            x       y       z     vdW  Elec       q    Type
REMARK                         _______ _______ _______ _____ _____    ______ ____
ROOT
ATOM      1  C   LIG A   1      -8.793   1.137 125.384  0.00  0.00    +0.060 A 
ATOM      2  C   LIG A   1      -9.049  -0.127 124.833  0.00  0.00    +0.022 A 
ATOM      3  C   LIG A   1      -8.787  -1.299 125.555  0.00  0.00    -0.005 A 
ATOM      4  C   LIG A   1      -8.254  -1.189 126.849  0.00  0.00    +0.128 A 
ATOM      5  O   LIG A   1      -7.961  -2.362 127.494  0.00  0.00    -0.485 OA
ATOM      6  C   LIG A   1      -7.085  -2.279 128.641  0.00  0.00    +0.108 C 
ATOM      7  C   LIG A   1      -7.276  -3.621 129.366  0.00  0.00    +0.056 C 
ATOM      8  C   LIG A   1      -7.550  -1.142 129.564  0.00  0.00    +0.052 C 
ATOM      9  C   LIG A   1      -7.518   0.196 128.839  0.00  0.00    +0.043 C 
ATOM     10  C   LIG A   1      -8.045   0.070 127.437  0.00  0.00    -0.004 A 
ATOM     11  C   LIG A   1      -8.297   1.231 126.689  0.00  0.00    +0.022 A 
ENDROOT
BRANCH   1  13
ATOM     12  O   LIG A   1      -8.957   3.513 125.056  0.00  0.00    -0.245 OA
ATOM     13  C   LIG A   1      -9.047   2.376 124.604  0.00  0.00    +0.339 C 
BRANCH  13  14
ATOM     14  O   LIG A   1      -9.391   2.043 123.340  0.00  0.00    -0.465 OA
ATOM     15  C   LIG A   1      -8.791   2.824 122.311  0.00  0.00    +0.280 C 
ENDBRANCH  13  14
ENDBRANCH   1  13
BRANCH   3  16
ATOM     16  C   LIG A   1      -9.075  -2.633 124.901  0.00  0.00    +0.039 C 
BRANCH  16  17
ATOM     17  C   LIG A   1      -7.809  -3.326 124.375  0.00  0.00    +0.008 C 
BRANCH  17  18
ATOM     18  C   LIG A   1      -6.652  -2.348 124.078  0.00  0.00    -0.017 C 
ATOM     19  C   LIG A   1      -5.305  -2.984 124.433  0.00  0.00    +0.007 C 
ATOM     20  C   LIG A   1      -6.627  -1.899 122.616  0.00  0.00    +0.007 C 
ENDBRANCH  17  18
ENDBRANCH  16  17
ENDBRANCH   3  16
BRANCH   6  21
ATOM     21  C   LIG A   1      -5.621  -2.136 128.132  0.00  0.00    +0.048 C 
BRANCH  21  22
ATOM     22  C   LIG A   1      -4.563  -3.000 128.837  0.00  0.00    +0.004 C 
BRANCH  22  23
ATOM     23  C   LIG A   1      -3.694  -2.151 129.782  0.00  0.00    +0.003 C 
BRANCH  23  24
ATOM     24  C   LIG A   1      -3.816  -2.531 131.274  0.00  0.00    -0.017 C 
ATOM     25  C   LIG A   1      -4.777  -1.575 131.988  0.00  0.00    +0.007 C 
ATOM     26  C   LIG A   1      -4.294  -3.968 131.494  0.00  0.00    +0.007 C 
ENDBRANCH  23  24
ENDBRANCH  22  23
ENDBRANCH  21  22
ENDBRANCH   6  21
TORSDOF 9
ENDMDL
MODEL 6
REMARK VINA RESULT:      -6.9      2.047      5.063
REMARK  Name = NuBBE_155
REMARK  15 active torsions:
REMARK  status: ('A' for Active; 'I' for Inactive)
REMARK    1  A    between atoms: C_2  and  O_3
REMARK    2  A    between atoms: C_2  and  C_5
REMARK    3  A    between atoms: O_3  and  C_4
REMARK    4  A    between atoms: C_7  and  C_8
REMARK    5  A    between atoms: C_8  and  C_9
REMARK    6  A    between atoms: C_9  and  C_10
REMARK    7  A    between atoms: C_10  and  C_11
REMARK    8  A    between atoms: C_10  and  C_12
REMARK    9  A    between atoms: C_15  and  C_16
REMARK   10  A    between atoms: C_15  and  C_22
REMARK   11  A    between atoms: C_16  and  C_17
REMARK   12  A    between atoms: C_17  and  C_18
REMARK   13  A    between atoms: C_18  and  C_19
REMARK   14  A    between atoms: C_19  and  C_20
REMARK   15  A    between atoms: C_19  and  C_21
REMARK                            x       y       z     vdW  Elec       q    Type
REMARK                         _______ _______ _______ _____ _____    ______ ____
ROOT
ATOM      1  C   LIG A   1      -6.936   3.364 122.186  0.00  0.00    +0.060 A 
ATOM      2  C   LIG A   1      -7.984   2.484 122.495  0.00  0.00    +0.022 A 
ATOM      3  C   LIG A   1      -8.105   1.923 123.773  0.00  0.00    -0.005 A 
ATOM      4  C   LIG A   1      -7.151   2.253 124.748  0.00  0.00    +0.128 A 
ATOM      5  O   LIG A   1      -7.279   1.635 125.965  0.00  0.00    -0.485 OA
ATOM      6  C   LIG A   1      -6.128   1.665 126.840  0.00  0.00    +0.108 C 
ATOM      7  C   LIG A   1      -6.687   1.285 128.221  0.00  0.00    +0.056 C 
ATOM      8  C   LIG A   1      -5.565   3.093 126.904  0.00  0.00    +0.052 C 
ATOM      9  C   LIG A   1      -5.132   3.571 125.525  0.00  0.00    +0.043 C 
ATOM     10  C   LIG A   1      -6.129   3.176 124.472  0.00  0.00    -0.004 A 
ATOM     11  C   LIG A   1      -6.015   3.713 123.180  0.00  0.00    +0.022 A 
ENDROOT
BRANCH   1  13
ATOM     12  O   LIG A   1      -7.683   3.941 119.975  0.00  0.00    -0.245 OA
ATOM     13  C   LIG A   1      -6.795   3.935 120.821  0.00  0.00    +0.339 C 
BRANCH  13  14
ATOM     14  O   LIG A   1      -5.546   4.432 120.675  0.00  0.00    -0.465 OA
ATOM     15  C   LIG A   1      -5.375   5.365 119.612  0.00  0.00    +0.280 C 
ENDBRANCH  13  14
ENDBRANCH   1  13
BRANCH   3  16
ATOM     16  C   LIG A   1      -9.252   0.972 124.040  0.00  0.00    +0.039 C 
BRANCH  16  17
ATOM     17  C   LIG A   1      -9.305  -0.195 123.043  0.00  0.00    +0.008 C 
BRANCH  17  18
ATOM     18  C   LIG A   1      -8.483  -1.423 123.490  0.00  0.00    -0.017 C 
ATOM     19  C   LIG A   1      -9.320  -2.701 123.380  0.00  0.00    +0.007 C 
ATOM     20  C   LIG A   1      -7.198  -1.593 122.678  0.00  0.00    +0.007 C 
ENDBRANCH  17  18
ENDBRANCH  16  17
ENDBRANCH   3  16
BRANCH   6  21
ATOM     21  C   LIG A   1      -5.111   0.594 126.348  0.00  0.00    +0.048 C 
BRANCH  21  22
ATOM     22  C   LIG A   1      -5.700  -0.744 125.873  0.00  0.00    +0.004 C 
BRANCH  22  23
ATOM     23  C   LIG A   1      -5.550  -1.830 126.952  0.00  0.00    +0.003 C 
BRANCH  23  24
ATOM     24  C   LIG A   1      -6.879  -2.488 127.384  0.00  0.00    -0.017 C 
ATOM     25  C   LIG A   1      -6.945  -2.597 128.911  0.00  0.00    +0.007 C 
ATOM     26  C   LIG A   1      -8.115  -1.734 126.888  0.00  0.00    +0.007 C 
ENDBRANCH  23  24
ENDBRANCH  22  23
ENDBRANCH  21  22
ENDBRANCH   6  21
TORSDOF 9
ENDMDL
MODEL 7
REMARK VINA RESULT:      -6.9      6.584     10.262
REMARK  Name = NuBBE_155
REMARK  15 active torsions:
REMARK  status: ('A' for Active; 'I' for Inactive)
REMARK    1  A    between atoms: C_2  and  O_3
REMARK    2  A    between atoms: C_2  and  C_5
REMARK    3  A    between atoms: O_3  and  C_4
REMARK    4  A    between atoms: C_7  and  C_8
REMARK    5  A    between atoms: C_8  and  C_9
REMARK    6  A    between atoms: C_9  and  C_10
REMARK    7  A    between atoms: C_10  and  C_11
REMARK    8  A    between atoms: C_10  and  C_12
REMARK    9  A    between atoms: C_15  and  C_16
REMARK   10  A    between atoms: C_15  and  C_22
REMARK   11  A    between atoms: C_16  and  C_17
REMARK   12  A    between atoms: C_17  and  C_18
REMARK   13  A    between atoms: C_18  and  C_19
REMARK   14  A    between atoms: C_19  and  C_20
REMARK   15  A    between atoms: C_19  and  C_21
REMARK                            x       y       z     vdW  Elec       q    Type
REMARK                         _______ _______ _______ _____ _____    ______ ____
ROOT
ATOM      1  C   LIG A   1      -7.858   6.749 131.239  0.00  0.00    +0.060 A 
ATOM      2  C   LIG A   1      -7.692   5.923 132.360  0.00  0.00    +0.022 A 
ATOM      3  C   LIG A   1      -6.418   5.631 132.863  0.00  0.00    -0.005 A 
ATOM      4  C   LIG A   1      -5.297   6.177 132.219  0.00  0.00    +0.128 A 
ATOM      5  O   LIG A   1      -4.070   5.817 132.712  0.00  0.00    -0.485 OA
ATOM      6  C   LIG A   1      -2.926   6.054 131.860  0.00  0.00    +0.108 C 
ATOM      7  C   LIG A   1      -1.717   5.949 132.805  0.00  0.00    +0.056 C 
ATOM      8  C   LIG A   1      -2.992   7.480 131.291  0.00  0.00    +0.052 C 
ATOM      9  C   LIG A   1      -4.255   7.679 130.464  0.00  0.00    +0.043 C 
ATOM     10  C   LIG A   1      -5.448   7.052 131.130  0.00  0.00    -0.004 A 
ATOM     11  C   LIG A   1      -6.733   7.317 130.631  0.00  0.00    +0.022 A 
ENDROOT
BRANCH   1  13
ATOM     12  O   LIG A   1      -9.429   7.448 129.559  0.00  0.00    -0.245 OA
ATOM     13  C   LIG A   1      -9.211   7.034 130.692  0.00  0.00    +0.339 C 
BRANCH  13  14
ATOM     14  O   LIG A   1     -10.137   6.768 131.640  0.00  0.00    -0.465 OA
ATOM     15  C   LIG A   1     -11.330   6.142 131.177  0.00  0.00    +0.280 C 
ENDBRANCH  13  14
ENDBRANCH   1  13
BRANCH   3  16
ATOM     16  C   LIG A   1      -6.306   4.724 134.069  0.00  0.00    +0.039 C 
BRANCH  16  17
ATOM     17  C   LIG A   1      -7.600   3.949 134.358  0.00  0.00    +0.008 C 
BRANCH  17  18
ATOM     18  C   LIG A   1      -7.596   2.513 133.790  0.00  0.00    -0.017 C 
ATOM     19  C   LIG A   1      -8.710   2.341 132.753  0.00  0.00    +0.007 C 
ATOM     20  C   LIG A   1      -6.255   2.141 133.153  0.00  0.00    +0.007 C 
ENDBRANCH  17  18
ENDBRANCH  16  17
ENDBRANCH   3  16
BRANCH   6  21
ATOM     21  C   LIG A   1      -2.876   4.933 130.782  0.00  0.00    +0.048 C 
BRANCH  21  22
ATOM     22  C   LIG A   1      -3.494   3.581 131.170  0.00  0.00    +0.004 C 
BRANCH  22  23
ATOM     23  C   LIG A   1      -4.336   3.004 130.019  0.00  0.00    +0.003 C 
BRANCH  23  24
ATOM     24  C   LIG A   1      -5.418   3.964 129.478  0.00  0.00    -0.017 C 
ATOM     25  C   LIG A   1      -5.200   4.220 127.983  0.00  0.00    +0.007 C 
ATOM     26  C   LIG A   1      -6.844   3.447 129.688  0.00  0.00    +0.007 C 
ENDBRANCH  23  24
ENDBRANCH  22  23
ENDBRANCH  21  22
ENDBRANCH   6  21
TORSDOF 9
ENDMDL
MODEL 8
REMARK VINA RESULT:      -6.9      6.956     10.242
REMARK  Name = NuBBE_155
REMARK  15 active torsions:
REMARK  status: ('A' for Active; 'I' for Inactive)
REMARK    1  A    between atoms: C_2  and  O_3
REMARK    2  A    between atoms: C_2  and  C_5
REMARK    3  A    between atoms: O_3  and  C_4
REMARK    4  A    between atoms: C_7  and  C_8
REMARK    5  A    between atoms: C_8  and  C_9
REMARK    6  A    between atoms: C_9  and  C_10
REMARK    7  A    between atoms: C_10  and  C_11
REMARK    8  A    between atoms: C_10  and  C_12
REMARK    9  A    between atoms: C_15  and  C_16
REMARK   10  A    between atoms: C_15  and  C_22
REMARK   11  A    between atoms: C_16  and  C_17
REMARK   12  A    between atoms: C_17  and  C_18
REMARK   13  A    between atoms: C_18  and  C_19
REMARK   14  A    between atoms: C_19  and  C_20
REMARK   15  A    between atoms: C_19  and  C_21
REMARK                            x       y       z     vdW  Elec       q    Type
REMARK                         _______ _______ _______ _____ _____    ______ ____
ROOT
ATOM      1  C   LIG A   1      -9.899   6.372 130.990  0.00  0.00    +0.060 A 
ATOM      2  C   LIG A   1     -10.100   5.226 131.773  0.00  0.00    +0.022 A 
ATOM      3  C   LIG A   1      -9.029   4.588 132.411  0.00  0.00    -0.005 A 
ATOM      4  C   LIG A   1      -7.737   5.113 132.250  0.00  0.00    +0.128 A 
ATOM      5  O   LIG A   1      -6.715   4.422 132.846  0.00  0.00    -0.485 OA
ATOM      6  C   LIG A   1      -5.373   4.718 132.395  0.00  0.00    +0.108 C 
ATOM      7  C   LIG A   1      -4.464   4.130 133.487  0.00  0.00    +0.056 C 
ATOM      8  C   LIG A   1      -5.170   6.240 132.342  0.00  0.00    +0.052 C 
ATOM      9  C   LIG A   1      -6.154   6.888 131.378  0.00  0.00    +0.043 C 
ATOM     10  C   LIG A   1      -7.527   6.292 131.516  0.00  0.00    -0.004 A 
ATOM     11  C   LIG A   1      -8.612   6.906 130.870  0.00  0.00    +0.022 A 
ENDROOT
BRANCH   1  13
ATOM     12  O   LIG A   1     -12.215   6.741 130.460  0.00  0.00    -0.245 OA
ATOM     13  C   LIG A   1     -11.035   7.030 130.292  0.00  0.00    +0.339 C 
BRANCH  13  14
ATOM     14  O   LIG A   1     -10.553   7.978 129.457  0.00  0.00    -0.465 OA
ATOM     15  C   LIG A   1     -10.896   7.820 128.083  0.00  0.00    +0.280 C 
ENDBRANCH  13  14
ENDBRANCH   1  13
BRANCH   3  16
ATOM     16  C   LIG A   1      -9.310   3.348 133.233  0.00  0.00    +0.039 C 
BRANCH  16  17
ATOM     17  C   LIG A   1      -9.745   2.149 132.377  0.00  0.00    +0.008 C 
BRANCH  17  18
ATOM     18  C   LIG A   1      -8.566   1.429 131.687  0.00  0.00    -0.017 C 
ATOM     19  C   LIG A   1      -8.674  -0.087 131.881  0.00  0.00    +0.007 C 
ATOM     20  C   LIG A   1      -8.487   1.740 130.191  0.00  0.00    +0.007 C 
ENDBRANCH  17  18
ENDBRANCH  16  17
ENDBRANCH   3  16
BRANCH   6  21
ATOM     21  C   LIG A   1      -5.140   3.991 131.039  0.00  0.00    +0.048 C 
BRANCH  21  22
ATOM     22  C   LIG A   1      -3.698   3.982 130.505  0.00  0.00    +0.004 C 
BRANCH  22  23
ATOM     23  C   LIG A   1      -3.582   4.802 129.209  0.00  0.00    +0.003 C 
BRANCH  23  24
ATOM     24  C   LIG A   1      -3.005   6.222 129.402  0.00  0.00    -0.017 C 
ATOM     25  C   LIG A   1      -2.028   6.241 130.584  0.00  0.00    +0.007 C 
ATOM     26  C   LIG A   1      -2.288   6.757 128.160  0.00  0.00    +0.007 C 
ENDBRANCH  23  24
ENDBRANCH  22  23
ENDBRANCH  21  22
ENDBRANCH   6  21
TORSDOF 9
ENDMDL
MODEL 9
REMARK VINA RESULT:      -6.8      3.529      4.965
REMARK  Name = NuBBE_155
REMARK  15 active torsions:
REMARK  status: ('A' for Active; 'I' for Inactive)
REMARK    1  A    between atoms: C_2  and  O_3
REMARK    2  A    between atoms: C_2  and  C_5
REMARK    3  A    between atoms: O_3  and  C_4
REMARK    4  A    between atoms: C_7  and  C_8
REMARK    5  A    between atoms: C_8  and  C_9
REMARK    6  A    between atoms: C_9  and  C_10
REMARK    7  A    between atoms: C_10  and  C_11
REMARK    8  A    between atoms: C_10  and  C_12
REMARK    9  A    between atoms: C_15  and  C_16
REMARK   10  A    between atoms: C_15  and  C_22
REMARK   11  A    between atoms: C_16  and  C_17
REMARK   12  A    between atoms: C_17  and  C_18
REMARK   13  A    between atoms: C_18  and  C_19
REMARK   14  A    between atoms: C_19  and  C_20
REMARK   15  A    between atoms: C_19  and  C_21
REMARK                            x       y       z     vdW  Elec       q    Type
REMARK                         _______ _______ _______ _____ _____    ______ ____
ROOT
ATOM      1  C   LIG A   1      -7.969   2.443 128.274  0.00  0.00    +0.060 A 
ATOM      2  C   LIG A   1      -6.614   2.488 127.913  0.00  0.00    +0.022 A 
ATOM      3  C   LIG A   1      -6.130   1.752 126.825  0.00  0.00    -0.005 A 
ATOM      4  C   LIG A   1      -7.027   0.956 126.095  0.00  0.00    +0.128 A 
ATOM      5  O   LIG A   1      -6.497   0.211 125.074  0.00  0.00    -0.485 OA
ATOM      6  C   LIG A   1      -7.307  -0.873 124.565  0.00  0.00    +0.108 C 
ATOM      7  C   LIG A   1      -6.659  -1.234 123.217  0.00  0.00    +0.056 C 
ATOM      8  C   LIG A   1      -8.738  -0.374 124.314  0.00  0.00    +0.052 C 
ATOM      9  C   LIG A   1      -9.372   0.133 125.601  0.00  0.00    +0.043 C 
ATOM     10  C   LIG A   1      -8.397   0.945 126.407  0.00  0.00    -0.004 A 
ATOM     11  C   LIG A   1      -8.858   1.676 127.513  0.00  0.00    +0.022 A 
ENDROOT
BRANCH   1  13
ATOM     12  O   LIG A   1      -7.778   3.911 130.168  0.00  0.00    -0.245 OA
ATOM     13  C   LIG A   1      -8.474   3.205 129.446  0.00  0.00    +0.339 C 
BRANCH  13  14
ATOM     14  O   LIG A   1      -9.801   2.985 129.580  0.00  0.00    -0.465 OA
ATOM     15  C   LIG A   1     -10.484   3.862 130.472  0.00  0.00    +0.280 C 
ENDBRANCH  13  14
ENDBRANCH   1  13
BRANCH   3  16
ATOM     16  C   LIG A   1      -4.655   1.833 126.493  0.00  0.00    +0.039 C 
BRANCH  16  17
ATOM     17  C   LIG A   1      -3.855   2.641 127.526  0.00  0.00    +0.008 C 
BRANCH  17  18
ATOM     18  C   LIG A   1      -2.846   3.622 126.889  0.00  0.00    -0.017 C 
ATOM     19  C   LIG A   1      -2.597   4.815 127.817  0.00  0.00    +0.007 C 
ATOM     20  C   LIG A   1      -1.510   2.954 126.560  0.00  0.00    +0.007 C 
ENDBRANCH  17  18
ENDBRANCH  16  17
ENDBRANCH   3  16
BRANCH   6  21
ATOM     21  C   LIG A   1      -7.207  -2.069 125.556  0.00  0.00    +0.048 C 
BRANCH  21  22
ATOM     22  C   LIG A   1      -5.847  -2.280 126.240  0.00  0.00    +0.004 C 
BRANCH  22  23
ATOM     23  C   LIG A   1      -5.977  -2.204 127.770  0.00  0.00    +0.003 C 
BRANCH  23  24
ATOM     24  C   LIG A   1      -7.430  -2.086 128.282  0.00  0.00    -0.017 C 
ATOM     25  C   LIG A   1      -7.945  -3.457 128.735  0.00  0.00    +0.007 C 
ATOM     26  C   LIG A   1      -7.586  -1.093 129.436  0.00  0.00    +0.007 C 
ENDBRANCH  23  24
ENDBRANCH  22  23
ENDBRANCH  21  22
ENDBRANCH   6  21
TORSDOF 9
ENDMDL
