MODEL 1
REMARK VINA RESULT:      -7.8      0.000      0.000
REMARK  Name = NuBBE_2513
REMARK  4 active torsions:
REMARK  status: ('A' for Active; 'I' for Inactive)
REMARK    1  A    between atoms: C_1  and  O_2
REMARK    2  A    between atoms: O_2  and  C_3
REMARK    3  A    between atoms: C_11  and  O_12
REMARK    4  A    between atoms: O_12  and  C_13
REMARK                            x       y       z     vdW  Elec       q    Type
REMARK                         _______ _______ _______ _____ _____    ______ ____
ROOT
ATOM      1  C   LIG A   1     -12.291   7.172 129.845  0.00  0.00    +0.124 A 
ATOM      2  C   LIG A   1     -11.291   7.661 128.996  0.00  0.00    +0.046 A 
ATOM      3  C   LIG A   1      -9.943   7.557 129.350  0.00  0.00    +0.019 A 
ATOM      4  C   LIG A   1      -9.603   6.952 130.560  0.00  0.00    +0.059 A 
ATOM      5  C   LIG A   1      -8.268   6.793 131.037  0.00  0.00    +0.146 A 
ATOM      6  O   LIG A   1      -7.195   7.271 130.384  0.00  0.00    -0.454 OA
ATOM      7  C   LIG A   1      -6.123   6.926 131.156  0.00  0.00    +0.140 A 
ATOM      8  C   LIG A   1      -4.803   7.225 130.845  0.00  0.00    +0.092 A 
ATOM      9  C   LIG A   1      -3.832   6.781 131.745  0.00  0.00    +0.124 A 
ATOM     10  C   LIG A   1      -4.198   6.083 132.904  0.00  0.00    +0.046 A 
ATOM     11  C   LIG A   1      -5.542   5.799 133.199  0.00  0.00    +0.015 A 
ATOM     12  C   LIG A   1      -6.526   6.231 132.296  0.00  0.00    +0.027 A 
ATOM     13  C   LIG A   1      -7.934   6.154 132.202  0.00  0.00    +0.043 A 
ATOM     14  C   LIG A   1      -8.991   5.557 133.038  0.00  0.00    +0.268 C 
ATOM     15  O   LIG A   1     -10.359   5.854 132.635  0.00  0.00    -0.486 OA
ATOM     16  C   LIG A   1     -10.599   6.452 131.414  0.00  0.00    +0.135 A 
ATOM     17  C   LIG A   1     -11.937   6.569 131.055  0.00  0.00    +0.092 A 
ENDROOT
BRANCH   1  19
ATOM     18  C   LIG A   1     -13.760   7.192 127.989  0.00  0.00    +0.277 C 
ATOM     19  O   LIG A   1     -13.572   7.337 129.393  0.00  0.00    -0.495 OA
ENDBRANCH   1  19
BRANCH   9  20
ATOM     20  O   LIG A   1      -2.482   6.974 131.586  0.00  0.00    -0.495 OA
ATOM     21  C   LIG A   1      -1.924   6.465 130.377  0.00  0.00    +0.277 C 
ENDBRANCH   9  20
TORSDOF 2
ENDMDL
MODEL 2
REMARK VINA RESULT:      -7.8      1.103      7.114
REMARK  Name = NuBBE_2513
REMARK  4 active torsions:
REMARK  status: ('A' for Active; 'I' for Inactive)
REMARK    1  A    between atoms: C_1  and  O_2
REMARK    2  A    between atoms: O_2  and  C_3
REMARK    3  A    between atoms: C_11  and  O_12
REMARK    4  A    between atoms: O_12  and  C_13
REMARK                            x       y       z     vdW  Elec       q    Type
REMARK                         _______ _______ _______ _____ _____    ______ ____
ROOT
ATOM      1  C   LIG A   1      -4.115   6.254 132.224  0.00  0.00    +0.124 A 
ATOM      2  C   LIG A   1      -4.413   7.048 131.110  0.00  0.00    +0.046 A 
ATOM      3  C   LIG A   1      -5.737   7.258 130.719  0.00  0.00    +0.019 A 
ATOM      4  C   LIG A   1      -6.765   6.669 131.457  0.00  0.00    +0.059 A 
ATOM      5  C   LIG A   1      -8.154   6.800 131.156  0.00  0.00    +0.146 A 
ATOM      6  O   LIG A   1      -8.610   7.465 130.081  0.00  0.00    -0.454 OA
ATOM      7  C   LIG A   1      -9.969   7.356 130.144  0.00  0.00    +0.140 A 
ATOM      8  C   LIG A   1     -10.845   7.908 129.218  0.00  0.00    +0.092 A 
ATOM      9  C   LIG A   1     -12.208   7.708 129.449  0.00  0.00    +0.124 A 
ATOM     10  C   LIG A   1     -12.644   6.970 130.557  0.00  0.00    +0.046 A 
ATOM     11  C   LIG A   1     -11.737   6.416 131.477  0.00  0.00    +0.015 A 
ATOM     12  C   LIG A   1     -10.365   6.620 131.261  0.00  0.00    +0.027 A 
ATOM     13  C   LIG A   1      -9.163   6.264 131.912  0.00  0.00    +0.043 A 
ATOM     14  C   LIG A   1      -8.838   5.512 133.138  0.00  0.00    +0.268 C 
ATOM     15  O   LIG A   1      -7.423   5.244 133.359  0.00  0.00    -0.486 OA
ATOM     16  C   LIG A   1      -6.476   5.878 132.580  0.00  0.00    +0.135 A 
ATOM     17  C   LIG A   1      -5.153   5.669 132.954  0.00  0.00    +0.092 A 
ENDROOT
BRANCH   1  19
ATOM     18  C   LIG A   1      -1.994   7.295 132.365  0.00  0.00    +0.277 C 
ATOM     19  O   LIG A   1      -2.782   6.117 132.504  0.00  0.00    -0.495 OA
ENDBRANCH   1  19
BRANCH   9  20
ATOM     20  O   LIG A   1     -13.209   8.196 128.646  0.00  0.00    -0.495 OA
ATOM     21  C   LIG A   1     -13.809   7.250 127.764  0.00  0.00    +0.277 C 
ENDBRANCH   9  20
TORSDOF 2
ENDMDL
MODEL 3
REMARK VINA RESULT:      -6.9      9.591     10.777
REMARK  Name = NuBBE_2513
REMARK  4 active torsions:
REMARK  status: ('A' for Active; 'I' for Inactive)
REMARK    1  A    between atoms: C_1  and  O_2
REMARK    2  A    between atoms: O_2  and  C_3
REMARK    3  A    between atoms: C_11  and  O_12
REMARK    4  A    between atoms: O_12  and  C_13
REMARK                            x       y       z     vdW  Elec       q    Type
REMARK                         _______ _______ _______ _____ _____    ______ ____
ROOT
ATOM      1  C   LIG A   1      -7.985  -1.510 126.666  0.00  0.00    +0.124 A 
ATOM      2  C   LIG A   1      -6.697  -1.031 126.403  0.00  0.00    +0.046 A 
ATOM      3  C   LIG A   1      -6.479  -0.089 125.394  0.00  0.00    +0.019 A 
ATOM      4  C   LIG A   1      -7.567   0.375 124.653  0.00  0.00    +0.059 A 
ATOM      5  C   LIG A   1      -7.475   1.327 123.594  0.00  0.00    +0.146 A 
ATOM      6  O   LIG A   1      -6.307   1.832 123.162  0.00  0.00    -0.454 OA
ATOM      7  C   LIG A   1      -6.639   2.687 122.151  0.00  0.00    +0.140 A 
ATOM      8  C   LIG A   1      -5.723   3.433 121.421  0.00  0.00    +0.092 A 
ATOM      9  C   LIG A   1      -6.243   4.268 120.430  0.00  0.00    +0.124 A 
ATOM     10  C   LIG A   1      -7.623   4.321 120.193  0.00  0.00    +0.046 A 
ATOM     11  C   LIG A   1      -8.530   3.551 120.942  0.00  0.00    +0.015 A 
ATOM     12  C   LIG A   1      -8.019   2.716 121.948  0.00  0.00    +0.027 A 
ATOM     13  C   LIG A   1      -8.550   1.819 122.902  0.00  0.00    +0.043 A 
ATOM     14  C   LIG A   1      -9.912   1.379 123.255  0.00  0.00    +0.268 C 
ATOM     15  O   LIG A   1      -9.994   0.294 124.224  0.00  0.00    -0.486 OA
ATOM     16  C   LIG A   1      -8.863  -0.095 124.915  0.00  0.00    +0.135 A 
ATOM     17  C   LIG A   1      -9.066  -1.039 125.916  0.00  0.00    +0.092 A 
ENDROOT
BRANCH   1  19
ATOM     18  C   LIG A   1      -8.802  -3.617 127.371  0.00  0.00    +0.277 C 
ATOM     19  O   LIG A   1      -8.070  -2.434 127.673  0.00  0.00    -0.495 OA
ENDBRANCH   1  19
BRANCH   9  20
ATOM     20  O   LIG A   1      -5.485   5.084 119.628  0.00  0.00    -0.495 OA
ATOM     21  C   LIG A   1      -6.126   5.554 118.445  0.00  0.00    +0.277 C 
ENDBRANCH   9  20
TORSDOF 2
ENDMDL
MODEL 4
REMARK VINA RESULT:      -6.9      2.940      4.463
REMARK  Name = NuBBE_2513
REMARK  4 active torsions:
REMARK  status: ('A' for Active; 'I' for Inactive)
REMARK    1  A    between atoms: C_1  and  O_2
REMARK    2  A    between atoms: O_2  and  C_3
REMARK    3  A    between atoms: C_11  and  O_12
REMARK    4  A    between atoms: O_12  and  C_13
REMARK                            x       y       z     vdW  Elec       q    Type
REMARK                         _______ _______ _______ _____ _____    ______ ____
ROOT
ATOM      1  C   LIG A   1     -12.512   8.110 128.769  0.00  0.00    +0.124 A 
ATOM      2  C   LIG A   1     -13.087   6.866 129.052  0.00  0.00    +0.046 A 
ATOM      3  C   LIG A   1     -12.337   5.858 129.663  0.00  0.00    +0.019 A 
ATOM      4  C   LIG A   1     -11.004   6.108 129.993  0.00  0.00    +0.059 A 
ATOM      5  C   LIG A   1     -10.133   5.161 130.610  0.00  0.00    +0.146 A 
ATOM      6  O   LIG A   1     -10.500   3.897 130.882  0.00  0.00    -0.454 OA
ATOM      7  C   LIG A   1      -9.402   3.320 131.453  0.00  0.00    +0.140 A 
ATOM      8  C   LIG A   1      -9.346   2.005 131.894  0.00  0.00    +0.092 A 
ATOM      9  C   LIG A   1      -8.143   1.587 132.467  0.00  0.00    +0.124 A 
ATOM     10  C   LIG A   1      -7.056   2.466 132.565  0.00  0.00    +0.046 A 
ATOM     11  C   LIG A   1      -7.136   3.792 132.104  0.00  0.00    +0.015 A 
ATOM     12  C   LIG A   1      -8.345   4.226 131.537  0.00  0.00    +0.027 A 
ATOM     13  C   LIG A   1      -8.841   5.425 130.980  0.00  0.00    +0.043 A 
ATOM     14  C   LIG A   1      -8.279   6.771 130.765  0.00  0.00    +0.268 C 
ATOM     15  O   LIG A   1      -9.111   7.688 129.996  0.00  0.00    -0.486 OA
ATOM     16  C   LIG A   1     -10.422   7.355 129.720  0.00  0.00    +0.135 A 
ATOM     17  C   LIG A   1     -11.177   8.348 129.105  0.00  0.00    +0.092 A 
ENDROOT
BRANCH   1  19
ATOM     18  C   LIG A   1     -13.594  10.213 128.892  0.00  0.00    +0.277 C 
ATOM     19  O   LIG A   1     -13.344   9.014 128.165  0.00  0.00    -0.495 OA
ENDBRANCH   1  19
BRANCH   9  20
ATOM     20  O   LIG A   1      -7.919   0.330 132.969  0.00  0.00    -0.495 OA
ATOM     21  C   LIG A   1      -8.084  -0.742 132.044  0.00  0.00    +0.277 C 
ENDBRANCH   9  20
TORSDOF 2
ENDMDL
MODEL 5
REMARK VINA RESULT:      -6.9      3.430      3.648
REMARK  Name = NuBBE_2513
REMARK  4 active torsions:
REMARK  status: ('A' for Active; 'I' for Inactive)
REMARK    1  A    between atoms: C_1  and  O_2
REMARK    2  A    between atoms: O_2  and  C_3
REMARK    3  A    between atoms: C_11  and  O_12
REMARK    4  A    between atoms: O_12  and  C_13
REMARK                            x       y       z     vdW  Elec       q    Type
REMARK                         _______ _______ _______ _____ _____    ______ ____
ROOT
ATOM      1  C   LIG A   1     -12.606   8.934 129.073  0.00  0.00    +0.124 A 
ATOM      2  C   LIG A   1     -11.887   8.584 127.924  0.00  0.00    +0.046 A 
ATOM      3  C   LIG A   1     -10.926   7.571 127.967  0.00  0.00    +0.019 A 
ATOM      4  C   LIG A   1     -10.693   6.906 129.171  0.00  0.00    +0.059 A 
ATOM      5  C   LIG A   1      -9.735   5.864 129.347  0.00  0.00    +0.146 A 
ATOM      6  O   LIG A   1      -8.909   5.455 128.368  0.00  0.00    -0.454 OA
ATOM      7  C   LIG A   1      -8.155   4.464 128.926  0.00  0.00    +0.140 A 
ATOM      8  C   LIG A   1      -7.167   3.756 128.255  0.00  0.00    +0.092 A 
ATOM      9  C   LIG A   1      -6.503   2.765 128.981  0.00  0.00    +0.124 A 
ATOM     10  C   LIG A   1      -6.827   2.525 130.323  0.00  0.00    +0.046 A 
ATOM     11  C   LIG A   1      -7.827   3.260 130.983  0.00  0.00    +0.015 A 
ATOM     12  C   LIG A   1      -8.509   4.252 130.259  0.00  0.00    +0.027 A 
ATOM     13  C   LIG A   1      -9.544   5.178 130.517  0.00  0.00    +0.043 A 
ATOM     14  C   LIG A   1     -10.376   5.491 131.693  0.00  0.00    +0.268 C 
ATOM     15  O   LIG A   1     -11.241   6.656 131.563  0.00  0.00    -0.486 OA
ATOM     16  C   LIG A   1     -11.414   7.246 130.326  0.00  0.00    +0.135 A 
ATOM     17  C   LIG A   1     -12.363   8.262 130.273  0.00  0.00    +0.092 A 
ENDROOT
BRANCH   1  19
ATOM     18  C   LIG A   1     -13.506  10.959 129.906  0.00  0.00    +0.277 C 
ATOM     19  O   LIG A   1     -13.515   9.944 128.907  0.00  0.00    -0.495 OA
ENDBRANCH   1  19
BRANCH   9  20
ATOM     20  O   LIG A   1      -5.514   1.962 128.470  0.00  0.00    -0.495 OA
ATOM     21  C   LIG A   1      -5.096   2.267 127.142  0.00  0.00    +0.277 C 
ENDBRANCH   9  20
TORSDOF 2
ENDMDL
MODEL 6
REMARK VINA RESULT:      -6.8      7.366      9.986
REMARK  Name = NuBBE_2513
REMARK  4 active torsions:
REMARK  status: ('A' for Active; 'I' for Inactive)
REMARK    1  A    between atoms: C_1  and  O_2
REMARK    2  A    between atoms: O_2  and  C_3
REMARK    3  A    between atoms: C_11  and  O_12
REMARK    4  A    between atoms: O_12  and  C_13
REMARK                            x       y       z     vdW  Elec       q    Type
REMARK                         _______ _______ _______ _____ _____    ______ ____
ROOT
ATOM      1  C   LIG A   1      -3.205   4.574 127.450  0.00  0.00    +0.124 A 
ATOM      2  C   LIG A   1      -3.007   3.216 127.177  0.00  0.00    +0.046 A 
ATOM      3  C   LIG A   1      -3.986   2.474 126.511  0.00  0.00    +0.019 A 
ATOM      4  C   LIG A   1      -5.165   3.107 126.114  0.00  0.00    +0.059 A 
ATOM      5  C   LIG A   1      -6.241   2.459 125.437  0.00  0.00    +0.146 A 
ATOM      6  O   LIG A   1      -6.248   1.143 125.163  0.00  0.00    -0.454 OA
ATOM      7  C   LIG A   1      -7.433   0.917 124.526  0.00  0.00    +0.140 A 
ATOM      8  C   LIG A   1      -7.850  -0.323 124.060  0.00  0.00    +0.092 A 
ATOM      9  C   LIG A   1      -9.090  -0.367 123.417  0.00  0.00    +0.124 A 
ATOM     10  C   LIG A   1      -9.862   0.794 123.276  0.00  0.00    +0.046 A 
ATOM     11  C   LIG A   1      -9.421   2.037 123.762  0.00  0.00    +0.015 A 
ATOM     12  C   LIG A   1      -8.171   2.094 124.400  0.00  0.00    +0.027 A 
ATOM     13  C   LIG A   1      -7.375   3.094 125.003  0.00  0.00    +0.043 A 
ATOM     14  C   LIG A   1      -7.526   4.545 125.210  0.00  0.00    +0.268 C 
ATOM     15  O   LIG A   1      -6.505   5.175 126.037  0.00  0.00    -0.486 OA
ATOM     16  C   LIG A   1      -5.368   4.470 126.377  0.00  0.00    +0.135 A 
ATOM     17  C   LIG A   1      -4.390   5.196 127.048  0.00  0.00    +0.092 A 
ENDROOT
BRANCH   1  19
ATOM     18  C   LIG A   1      -2.315   6.597 128.301  0.00  0.00    +0.277 C 
ATOM     19  O   LIG A   1      -2.178   5.192 128.112  0.00  0.00    -0.495 OA
ENDBRANCH   1  19
BRANCH   9  20
ATOM     20  O   LIG A   1      -9.646  -1.502 122.883  0.00  0.00    -0.495 OA
ATOM     21  C   LIG A   1      -9.052  -2.732 123.292  0.00  0.00    +0.277 C 
ENDBRANCH   9  20
TORSDOF 2
ENDMDL
MODEL 7
REMARK VINA RESULT:      -6.8      9.278     10.499
REMARK  Name = NuBBE_2513
REMARK  4 active torsions:
REMARK  status: ('A' for Active; 'I' for Inactive)
REMARK    1  A    between atoms: C_1  and  O_2
REMARK    2  A    between atoms: O_2  and  C_3
REMARK    3  A    between atoms: C_11  and  O_12
REMARK    4  A    between atoms: O_12  and  C_13
REMARK                            x       y       z     vdW  Elec       q    Type
REMARK                         _______ _______ _______ _____ _____    ______ ____
ROOT
ATOM      1  C   LIG A   1      -5.319   4.925 121.048  0.00  0.00    +0.124 A 
ATOM      2  C   LIG A   1      -6.203   3.978 120.517  0.00  0.00    +0.046 A 
ATOM      3  C   LIG A   1      -6.740   2.973 121.325  0.00  0.00    +0.019 A 
ATOM      4  C   LIG A   1      -6.389   2.927 122.674  0.00  0.00    +0.059 A 
ATOM      5  C   LIG A   1      -6.861   1.948 123.599  0.00  0.00    +0.146 A 
ATOM      6  O   LIG A   1      -7.656   0.925 123.241  0.00  0.00    -0.454 OA
ATOM      7  C   LIG A   1      -7.875   0.223 124.390  0.00  0.00    +0.140 A 
ATOM      8  C   LIG A   1      -8.656  -0.923 124.474  0.00  0.00    +0.092 A 
ATOM      9  C   LIG A   1      -8.781  -1.505 125.737  0.00  0.00    +0.124 A 
ATOM     10  C   LIG A   1      -8.129  -0.950 126.847  0.00  0.00    +0.046 A 
ATOM     11  C   LIG A   1      -7.338   0.206 126.735  0.00  0.00    +0.015 A 
ATOM     12  C   LIG A   1      -7.214   0.806 125.471  0.00  0.00    +0.027 A 
ATOM     13  C   LIG A   1      -6.556   1.935 124.935  0.00  0.00    +0.043 A 
ATOM     14  C   LIG A   1      -5.702   2.995 125.500  0.00  0.00    +0.268 C 
ATOM     15  O   LIG A   1      -5.093   3.900 124.534  0.00  0.00    -0.486 OA
ATOM     16  C   LIG A   1      -5.509   3.876 123.218  0.00  0.00    +0.135 A 
ATOM     17  C   LIG A   1      -4.974   4.867 122.401  0.00  0.00    +0.092 A 
ENDROOT
BRANCH   1  19
ATOM     18  C   LIG A   1      -5.617   6.007 118.963  0.00  0.00    +0.277 C 
ATOM     19  O   LIG A   1      -4.856   5.855 120.157  0.00  0.00    -0.495 OA
ENDBRANCH   1  19
BRANCH   9  20
ATOM     20  O   LIG A   1      -9.525  -2.627 126.003  0.00  0.00    -0.495 OA
ATOM     21  C   LIG A   1      -8.977  -3.516 126.973  0.00  0.00    +0.277 C 
ENDBRANCH   9  20
TORSDOF 2
ENDMDL
MODEL 8
REMARK VINA RESULT:      -6.6      2.248      3.617
REMARK  Name = NuBBE_2513
REMARK  4 active torsions:
REMARK  status: ('A' for Active; 'I' for Inactive)
REMARK    1  A    between atoms: C_1  and  O_2
REMARK    2  A    between atoms: O_2  and  C_3
REMARK    3  A    between atoms: C_11  and  O_12
REMARK    4  A    between atoms: O_12  and  C_13
REMARK                            x       y       z     vdW  Elec       q    Type
REMARK                         _______ _______ _______ _____ _____    ______ ____
ROOT
ATOM      1  C   LIG A   1     -12.074   6.738 129.538  0.00  0.00    +0.124 A 
ATOM      2  C   LIG A   1     -12.408   6.788 130.896  0.00  0.00    +0.046 A 
ATOM      3  C   LIG A   1     -11.432   6.594 131.877  0.00  0.00    +0.019 A 
ATOM      4  C   LIG A   1     -10.115   6.354 131.485  0.00  0.00    +0.059 A 
ATOM      5  C   LIG A   1      -9.031   6.133 132.388  0.00  0.00    +0.146 A 
ATOM      6  O   LIG A   1      -9.189   6.074 133.721  0.00  0.00    -0.454 OA
ATOM      7  C   LIG A   1      -7.939   5.843 134.219  0.00  0.00    +0.140 A 
ATOM      8  C   LIG A   1      -7.644   5.715 135.570  0.00  0.00    +0.092 A 
ATOM      9  C   LIG A   1      -6.305   5.495 135.900  0.00  0.00    +0.124 A 
ATOM     10  C   LIG A   1      -5.329   5.398 134.899  0.00  0.00    +0.046 A 
ATOM     11  C   LIG A   1      -5.655   5.524 133.538  0.00  0.00    +0.015 A 
ATOM     12  C   LIG A   1      -6.997   5.757 133.195  0.00  0.00    +0.027 A 
ATOM     13  C   LIG A   1      -7.730   5.948 132.002  0.00  0.00    +0.043 A 
ATOM     14  C   LIG A   1      -7.376   5.995 130.572  0.00  0.00    +0.268 C 
ATOM     15  O   LIG A   1      -8.499   6.063 129.645  0.00  0.00    -0.486 OA
ATOM     16  C   LIG A   1      -9.769   6.309 130.126  0.00  0.00    +0.135 A 
ATOM     17  C   LIG A   1     -10.751   6.496 129.159  0.00  0.00    +0.092 A 
ENDROOT
BRANCH   1  19
ATOM     18  C   LIG A   1     -12.762   7.152 127.310  0.00  0.00    +0.277 C 
ATOM     19  O   LIG A   1     -13.116   6.937 128.673  0.00  0.00    -0.495 OA
ENDBRANCH   1  19
BRANCH   9  20
ATOM     20  O   LIG A   1      -5.835   5.361 137.183  0.00  0.00    -0.495 OA
ATOM     21  C   LIG A   1      -6.614   5.995 138.194  0.00  0.00    +0.277 C 
ENDBRANCH   9  20
TORSDOF 2
ENDMDL
MODEL 9
REMARK VINA RESULT:      -6.6      4.012      5.358
REMARK  Name = NuBBE_2513
REMARK  4 active torsions:
REMARK  status: ('A' for Active; 'I' for Inactive)
REMARK    1  A    between atoms: C_1  and  O_2
REMARK    2  A    between atoms: O_2  and  C_3
REMARK    3  A    between atoms: C_11  and  O_12
REMARK    4  A    between atoms: O_12  and  C_13
REMARK                            x       y       z     vdW  Elec       q    Type
REMARK                         _______ _______ _______ _____ _____    ______ ____
ROOT
ATOM      1  C   LIG A   1     -11.666   7.748 129.956  0.00  0.00    +0.124 A 
ATOM      2  C   LIG A   1     -12.039   6.945 131.040  0.00  0.00    +0.046 A 
ATOM      3  C   LIG A   1     -11.444   5.697 131.239  0.00  0.00    +0.019 A 
ATOM      4  C   LIG A   1     -10.467   5.260 130.344  0.00  0.00    +0.059 A 
ATOM      5  C   LIG A   1      -9.793   4.005 130.433  0.00  0.00    +0.146 A 
ATOM      6  O   LIG A   1     -10.081   3.083 131.367  0.00  0.00    -0.454 OA
ATOM      7  C   LIG A   1      -9.238   2.041 131.113  0.00  0.00    +0.140 A 
ATOM      8  C   LIG A   1      -9.196   0.866 131.852  0.00  0.00    +0.092 A 
ATOM      9  C   LIG A   1      -8.258  -0.090 131.457  0.00  0.00    +0.124 A 
ATOM     10  C   LIG A   1      -7.422   0.142 130.358  0.00  0.00    +0.046 A 
ATOM     11  C   LIG A   1      -7.487   1.337 129.621  0.00  0.00    +0.015 A 
ATOM     12  C   LIG A   1      -8.419   2.310 130.016  0.00  0.00    +0.027 A 
ATOM     13  C   LIG A   1      -8.797   3.601 129.583  0.00  0.00    +0.043 A 
ATOM     14  C   LIG A   1      -8.346   4.499 128.504  0.00  0.00    +0.268 C 
ATOM     15  O   LIG A   1      -9.137   5.707 128.315  0.00  0.00    -0.486 OA
ATOM     16  C   LIG A   1     -10.082   6.062 129.258  0.00  0.00    +0.135 A 
ATOM     17  C   LIG A   1     -10.687   7.299 129.066  0.00  0.00    +0.092 A 
ENDROOT
BRANCH   1  19
ATOM     18  C   LIG A   1     -13.086   9.147 128.678  0.00  0.00    +0.277 C 
ATOM     19  O   LIG A   1     -12.323   8.946 129.864  0.00  0.00    -0.495 OA
ENDBRANCH   1  19
BRANCH   9  20
ATOM     20  O   LIG A   1      -8.072  -1.297 132.084  0.00  0.00    -0.495 OA
ATOM     21  C   LIG A   1      -7.226  -1.273 133.231  0.00  0.00    +0.277 C 
ENDBRANCH   9  20
TORSDOF 2
ENDMDL
