MODEL 1
REMARK VINA RESULT:      -5.8      0.000      0.000
REMARK  Name = NuBBE_277
REMARK  4 active torsions:
REMARK  status: ('A' for Active; 'I' for Inactive)
REMARK    1  A    between atoms: C_2  and  O_3
REMARK    2  A    between atoms: C_2  and  C_4
REMARK    3  A    between atoms: C_4  and  C_5
REMARK    4  A    between atoms: C_10  and  O_11
REMARK                            x       y       z     vdW  Elec       q    Type
REMARK                         _______ _______ _______ _____ _____    ______ ____
ROOT
ATOM      1  C   LIG A   1     -12.578   7.720 128.324  0.00  0.00    +0.005 A 
ATOM      2  C   LIG A   1     -12.839   9.074 128.571  0.00  0.00    +0.008 A 
ATOM      3  C   LIG A   1     -13.021   9.532 129.877  0.00  0.00    +0.001 A 
ATOM      4  C   LIG A   1     -12.949   8.642 130.947  0.00  0.00    +0.004 A 
ATOM      5  C   LIG A   1     -12.670   7.296 130.720  0.00  0.00    +0.045 A 
ATOM      6  C   LIG A   1     -12.470   6.850 129.415  0.00  0.00    +0.120 A 
ENDROOT
BRANCH   6   7
ATOM      7  O   LIG A   1     -12.108   5.553 129.173  0.00  0.00    -0.506 OA
ATOM      8  H   LIG A   1     -11.150   5.475 129.342  0.00  0.00    +0.292 HD
ENDBRANCH   6   7
BRANCH   1   9
ATOM      9  C   LIG A   1     -12.384   7.235 126.908  0.00  0.00    +0.159 C 
BRANCH   9  11
ATOM     10  O   LIG A   1     -10.023   6.748 127.017  0.00  0.00    -0.251 OA
ATOM     11  C   LIG A   1     -10.948   7.303 126.445  0.00  0.00    +0.309 C 
BRANCH  11  12
ATOM     12  O   LIG A   1     -10.763   8.081 125.351  0.00  0.00    -0.480 OA
ATOM     13  H   LIG A   1     -11.346   7.807 124.608  0.00  0.00    +0.295 HD
ENDBRANCH  11  12
ENDBRANCH   9  11
ENDBRANCH   1   9
TORSDOF 4
ENDMDL
MODEL 2
REMARK VINA RESULT:      -5.8      1.713      2.298
REMARK  Name = NuBBE_277
REMARK  4 active torsions:
REMARK  status: ('A' for Active; 'I' for Inactive)
REMARK    1  A    between atoms: C_2  and  O_3
REMARK    2  A    between atoms: C_2  and  C_4
REMARK    3  A    between atoms: C_4  and  C_5
REMARK    4  A    between atoms: C_10  and  O_11
REMARK                            x       y       z     vdW  Elec       q    Type
REMARK                         _______ _______ _______ _____ _____    ______ ____
ROOT
ATOM      1  C   LIG A   1     -11.403   7.924 128.944  0.00  0.00    +0.005 A 
ATOM      2  C   LIG A   1     -11.034   6.792 129.683  0.00  0.00    +0.008 A 
ATOM      3  C   LIG A   1     -11.652   6.510 130.902  0.00  0.00    +0.001 A 
ATOM      4  C   LIG A   1     -12.642   7.358 131.397  0.00  0.00    +0.004 A 
ATOM      5  C   LIG A   1     -13.035   8.477 130.665  0.00  0.00    +0.045 A 
ATOM      6  C   LIG A   1     -12.426   8.740 129.439  0.00  0.00    +0.120 A 
ENDROOT
BRANCH   6   7
ATOM      7  O   LIG A   1     -12.856   9.780 128.660  0.00  0.00    -0.506 OA
ATOM      8  H   LIG A   1     -12.078  10.147 128.198  0.00  0.00    +0.292 HD
ENDBRANCH   6   7
BRANCH   1   9
ATOM      9  C   LIG A   1     -10.728   8.220 127.627  0.00  0.00    +0.159 C 
BRANCH   9  11
ATOM     10  O   LIG A   1      -9.720   6.417 126.380  0.00  0.00    -0.251 OA
ATOM     11  C   LIG A   1     -10.724   7.043 126.680  0.00  0.00    +0.309 C 
BRANCH  11  12
ATOM     12  O   LIG A   1     -11.939   6.766 126.149  0.00  0.00    -0.480 OA
ATOM     13  H   LIG A   1     -12.582   6.485 126.838  0.00  0.00    +0.295 HD
ENDBRANCH  11  12
ENDBRANCH   9  11
ENDBRANCH   1   9
TORSDOF 4
ENDMDL
MODEL 3
REMARK VINA RESULT:      -5.8      1.629      2.003
REMARK  Name = NuBBE_277
REMARK  4 active torsions:
REMARK  status: ('A' for Active; 'I' for Inactive)
REMARK    1  A    between atoms: C_2  and  O_3
REMARK    2  A    between atoms: C_2  and  C_4
REMARK    3  A    between atoms: C_4  and  C_5
REMARK    4  A    between atoms: C_10  and  O_11
REMARK                            x       y       z     vdW  Elec       q    Type
REMARK                         _______ _______ _______ _____ _____    ______ ____
ROOT
ATOM      1  C   LIG A   1     -11.160   7.683 129.114  0.00  0.00    +0.005 A 
ATOM      2  C   LIG A   1     -12.433   8.000 129.609  0.00  0.00    +0.008 A 
ATOM      3  C   LIG A   1     -12.827   7.567 130.876  0.00  0.00    +0.001 A 
ATOM      4  C   LIG A   1     -11.956   6.810 131.659  0.00  0.00    +0.004 A 
ATOM      5  C   LIG A   1     -10.680   6.503 131.189  0.00  0.00    +0.045 A 
ATOM      6  C   LIG A   1     -10.288   6.957 129.931  0.00  0.00    +0.120 A 
ENDROOT
BRANCH   6   7
ATOM      7  O   LIG A   1      -9.011   6.746 129.485  0.00  0.00    -0.506 OA
ATOM      8  H   LIG A   1      -8.985   6.978 128.537  0.00  0.00    +0.292 HD
ENDBRANCH   6   7
BRANCH   1   9
ATOM      9  C   LIG A   1     -10.745   8.156 127.743  0.00  0.00    +0.159 C 
BRANCH   9  11
ATOM     10  O   LIG A   1      -9.713   6.426 126.414  0.00  0.00    -0.251 OA
ATOM     11  C   LIG A   1     -10.718   7.052 126.713  0.00  0.00    +0.309 C 
BRANCH  11  12
ATOM     12  O   LIG A   1     -11.912   6.841 126.106  0.00  0.00    -0.480 OA
ATOM     13  H   LIG A   1     -12.518   6.311 126.671  0.00  0.00    +0.295 HD
ENDBRANCH  11  12
ENDBRANCH   9  11
ENDBRANCH   1   9
TORSDOF 4
ENDMDL
MODEL 4
REMARK VINA RESULT:      -5.1      2.818      3.409
REMARK  Name = NuBBE_277
REMARK  4 active torsions:
REMARK  status: ('A' for Active; 'I' for Inactive)
REMARK    1  A    between atoms: C_2  and  O_3
REMARK    2  A    between atoms: C_2  and  C_4
REMARK    3  A    between atoms: C_4  and  C_5
REMARK    4  A    between atoms: C_10  and  O_11
REMARK                            x       y       z     vdW  Elec       q    Type
REMARK                         _______ _______ _______ _____ _____    ______ ____
ROOT
ATOM      1  C   LIG A   1     -10.667   7.202 130.452  0.00  0.00    +0.005 A 
ATOM      2  C   LIG A   1      -9.311   7.325 130.122  0.00  0.00    +0.008 A 
ATOM      3  C   LIG A   1      -8.329   6.784 130.953  0.00  0.00    +0.001 A 
ATOM      4  C   LIG A   1      -8.691   6.118 132.122  0.00  0.00    +0.004 A 
ATOM      5  C   LIG A   1     -10.037   5.969 132.455  0.00  0.00    +0.045 A 
ATOM      6  C   LIG A   1     -11.011   6.496 131.610  0.00  0.00    +0.120 A 
ENDROOT
BRANCH   6   7
ATOM      7  O   LIG A   1     -12.339   6.287 131.867  0.00  0.00    -0.506 OA
ATOM      8  H   LIG A   1     -12.402   5.685 132.633  0.00  0.00    +0.292 HD
ENDBRANCH   6   7
BRANCH   1   9
ATOM      9  C   LIG A   1     -11.721   7.793 129.547  0.00  0.00    +0.159 C 
BRANCH   9  11
ATOM     10  O   LIG A   1     -11.504   6.587 127.468  0.00  0.00    -0.251 OA
ATOM     11  C   LIG A   1     -11.401   7.639 128.079  0.00  0.00    +0.309 C 
BRANCH  11  12
ATOM     12  O   LIG A   1     -10.941   8.774 127.499  0.00  0.00    -0.480 OA
ATOM     13  H   LIG A   1     -10.481   9.353 128.147  0.00  0.00    +0.295 HD
ENDBRANCH  11  12
ENDBRANCH   9  11
ENDBRANCH   1   9
TORSDOF 4
ENDMDL
MODEL 5
REMARK VINA RESULT:      -5.1      2.401      4.092
REMARK  Name = NuBBE_277
REMARK  4 active torsions:
REMARK  status: ('A' for Active; 'I' for Inactive)
REMARK    1  A    between atoms: C_2  and  O_3
REMARK    2  A    between atoms: C_2  and  C_4
REMARK    3  A    between atoms: C_4  and  C_5
REMARK    4  A    between atoms: C_10  and  O_11
REMARK                            x       y       z     vdW  Elec       q    Type
REMARK                         _______ _______ _______ _____ _____    ______ ____
ROOT
ATOM      1  C   LIG A   1     -11.280   6.759 129.918  0.00  0.00    +0.005 A 
ATOM      2  C   LIG A   1     -12.335   7.524 130.433  0.00  0.00    +0.008 A 
ATOM      3  C   LIG A   1     -12.813   8.632 129.733  0.00  0.00    +0.001 A 
ATOM      4  C   LIG A   1     -12.240   8.990 128.514  0.00  0.00    +0.004 A 
ATOM      5  C   LIG A   1     -11.203   8.228 127.978  0.00  0.00    +0.045 A 
ATOM      6  C   LIG A   1     -10.745   7.112 128.675  0.00  0.00    +0.120 A 
ENDROOT
BRANCH   6   7
ATOM      7  O   LIG A   1      -9.790   6.297 128.128  0.00  0.00    -0.506 OA
ATOM      8  H   LIG A   1      -9.341   5.833 128.860  0.00  0.00    +0.292 HD
ENDBRANCH   6   7
BRANCH   1   9
ATOM      9  C   LIG A   1     -10.769   5.564 130.684  0.00  0.00    +0.159 C 
BRANCH   9  11
ATOM     10  O   LIG A   1      -9.017   6.679 131.912  0.00  0.00    -0.251 OA
ATOM     11  C   LIG A   1      -9.986   5.936 131.920  0.00  0.00    +0.309 C 
BRANCH  11  12
ATOM     12  O   LIG A   1     -10.428   5.332 133.050  0.00  0.00    -0.480 OA
ATOM     13  H   LIG A   1      -9.990   4.463 133.192  0.00  0.00    +0.295 HD
ENDBRANCH  11  12
ENDBRANCH   9  11
ENDBRANCH   1   9
TORSDOF 4
ENDMDL
MODEL 6
REMARK VINA RESULT:      -5.1      2.896      3.780
REMARK  Name = NuBBE_277
REMARK  4 active torsions:
REMARK  status: ('A' for Active; 'I' for Inactive)
REMARK    1  A    between atoms: C_2  and  O_3
REMARK    2  A    between atoms: C_2  and  C_4
REMARK    3  A    between atoms: C_4  and  C_5
REMARK    4  A    between atoms: C_10  and  O_11
REMARK                            x       y       z     vdW  Elec       q    Type
REMARK                         _______ _______ _______ _____ _____    ______ ____
ROOT
ATOM      1  C   LIG A   1     -10.614   6.949 129.914  0.00  0.00    +0.005 A 
ATOM      2  C   LIG A   1     -10.575   7.875 128.863  0.00  0.00    +0.008 A 
ATOM      3  C   LIG A   1     -11.667   8.707 128.612  0.00  0.00    +0.001 A 
ATOM      4  C   LIG A   1     -12.810   8.619 129.405  0.00  0.00    +0.004 A 
ATOM      5  C   LIG A   1     -12.858   7.717 130.467  0.00  0.00    +0.045 A 
ATOM      6  C   LIG A   1     -11.755   6.904 130.722  0.00  0.00    +0.120 A 
ENDROOT
BRANCH   6   7
ATOM      7  O   LIG A   1     -11.742   6.075 131.812  0.00  0.00    -0.506 OA
ATOM      8  H   LIG A   1     -12.642   5.714 131.921  0.00  0.00    +0.292 HD
ENDBRANCH   6   7
BRANCH   1   9
ATOM      9  C   LIG A   1      -9.428   6.054 130.176  0.00  0.00    +0.159 C 
BRANCH   9  11
ATOM     10  O   LIG A   1      -7.409   7.257 130.724  0.00  0.00    -0.251 OA
ATOM     11  C   LIG A   1      -8.409   6.670 131.106  0.00  0.00    +0.309 C 
BRANCH  11  12
ATOM     12  O   LIG A   1      -8.679   6.472 132.420  0.00  0.00    -0.480 OA
ATOM     13  H   LIG A   1      -7.862   6.284 132.934  0.00  0.00    +0.295 HD
ENDBRANCH  11  12
ENDBRANCH   9  11
ENDBRANCH   1   9
TORSDOF 4
ENDMDL
MODEL 7
REMARK VINA RESULT:      -5.0      2.741      3.922
REMARK  Name = NuBBE_277
REMARK  4 active torsions:
REMARK  status: ('A' for Active; 'I' for Inactive)
REMARK    1  A    between atoms: C_2  and  O_3
REMARK    2  A    between atoms: C_2  and  C_4
REMARK    3  A    between atoms: C_4  and  C_5
REMARK    4  A    between atoms: C_10  and  O_11
REMARK                            x       y       z     vdW  Elec       q    Type
REMARK                         _______ _______ _______ _____ _____    ______ ____
ROOT
ATOM      1  C   LIG A   1     -10.556   7.047 130.380  0.00  0.00    +0.005 A 
ATOM      2  C   LIG A   1     -10.170   7.801 129.263  0.00  0.00    +0.008 A 
ATOM      3  C   LIG A   1     -11.127   8.448 128.481  0.00  0.00    +0.001 A 
ATOM      4  C   LIG A   1     -12.479   8.346 128.803  0.00  0.00    +0.004 A 
ATOM      5  C   LIG A   1     -12.879   7.617 129.922  0.00  0.00    +0.045 A 
ATOM      6  C   LIG A   1     -11.915   6.990 130.709  0.00  0.00    +0.120 A 
ENDROOT
BRANCH   6   7
ATOM      7  O   LIG A   1     -12.273   6.344 131.861  0.00  0.00    -0.506 OA
ATOM      8  H   LIG A   1     -12.217   6.988 132.593  0.00  0.00    +0.292 HD
ENDBRANCH   6   7
BRANCH   1   9
ATOM      9  C   LIG A   1      -9.513   6.351 131.218  0.00  0.00    +0.159 C 
BRANCH   9  11
ATOM     10  O   LIG A   1      -8.691   4.403 130.054  0.00  0.00    -0.251 OA
ATOM     11  C   LIG A   1      -9.403   4.873 130.929  0.00  0.00    +0.309 C 
BRANCH  11  12
ATOM     12  O   LIG A   1     -10.207   4.103 131.702  0.00  0.00    -0.480 OA
ATOM     13  H   LIG A   1     -11.075   3.937 131.270  0.00  0.00    +0.295 HD
ENDBRANCH  11  12
ENDBRANCH   9  11
ENDBRANCH   1   9
TORSDOF 4
ENDMDL
MODEL 8
REMARK VINA RESULT:      -4.9      8.503      9.744
REMARK  Name = NuBBE_277
REMARK  4 active torsions:
REMARK  status: ('A' for Active; 'I' for Inactive)
REMARK    1  A    between atoms: C_2  and  O_3
REMARK    2  A    between atoms: C_2  and  C_4
REMARK    3  A    between atoms: C_4  and  C_5
REMARK    4  A    between atoms: C_10  and  O_11
REMARK                            x       y       z     vdW  Elec       q    Type
REMARK                         _______ _______ _______ _____ _____    ______ ____
ROOT
ATOM      1  C   LIG A   1      -8.341   2.890 122.263  0.00  0.00    +0.005 A 
ATOM      2  C   LIG A   1      -8.788   3.447 121.057  0.00  0.00    +0.008 A 
ATOM      3  C   LIG A   1      -7.882   4.020 120.163  0.00  0.00    +0.001 A 
ATOM      4  C   LIG A   1      -6.522   4.046 120.466  0.00  0.00    +0.004 A 
ATOM      5  C   LIG A   1      -6.058   3.479 121.653  0.00  0.00    +0.045 A 
ATOM      6  C   LIG A   1      -6.968   2.892 122.530  0.00  0.00    +0.120 A 
ENDROOT
BRANCH   6   7
ATOM      7  O   LIG A   1      -6.529   2.250 123.657  0.00  0.00    -0.506 OA
ATOM      8  H   LIG A   1      -5.891   1.566 123.380  0.00  0.00    +0.292 HD
ENDBRANCH   6   7
BRANCH   1   9
ATOM      9  C   LIG A   1      -9.329   2.275 123.223  0.00  0.00    +0.159 C 
BRANCH   9  11
ATOM     10  O   LIG A   1      -8.671  -0.046 123.216  0.00  0.00    -0.251 OA
ATOM     11  C   LIG A   1      -9.531   0.794 123.004  0.00  0.00    +0.309 C 
BRANCH  11  12
ATOM     12  O   LIG A   1     -10.750   0.477 122.503  0.00  0.00    -0.480 OA
ATOM     13  H   LIG A   1     -11.476   0.837 123.060  0.00  0.00    +0.295 HD
ENDBRANCH  11  12
ENDBRANCH   9  11
ENDBRANCH   1   9
TORSDOF 4
ENDMDL
MODEL 9
REMARK VINA RESULT:      -4.8      7.876      9.935
REMARK  Name = NuBBE_277
REMARK  4 active torsions:
REMARK  status: ('A' for Active; 'I' for Inactive)
REMARK    1  A    between atoms: C_2  and  O_3
REMARK    2  A    between atoms: C_2  and  C_4
REMARK    3  A    between atoms: C_4  and  C_5
REMARK    4  A    between atoms: C_10  and  O_11
REMARK                            x       y       z     vdW  Elec       q    Type
REMARK                         _______ _______ _______ _____ _____    ______ ____
ROOT
ATOM      1  C   LIG A   1      -7.307   3.429 121.612  0.00  0.00    +0.005 A 
ATOM      2  C   LIG A   1      -8.663   3.472 121.261  0.00  0.00    +0.008 A 
ATOM      3  C   LIG A   1      -9.056   3.949 120.009  0.00  0.00    +0.001 A 
ATOM      4  C   LIG A   1      -8.099   4.391 119.098  0.00  0.00    +0.004 A 
ATOM      5  C   LIG A   1      -6.744   4.337 119.423  0.00  0.00    +0.045 A 
ATOM      6  C   LIG A   1      -6.360   3.841 120.668  0.00  0.00    +0.120 A 
ENDROOT
BRANCH   6   7
ATOM      7  O   LIG A   1      -5.035   3.694 120.977  0.00  0.00    -0.506 OA
ATOM      8  H   LIG A   1      -4.868   4.176 121.808  0.00  0.00    +0.292 HD
ENDBRANCH   6   7
BRANCH   1   9
ATOM      9  C   LIG A   1      -6.894   2.913 122.968  0.00  0.00    +0.159 C 
BRANCH   9  11
ATOM     10  O   LIG A   1      -5.738   4.476 124.398  0.00  0.00    -0.251 OA
ATOM     11  C   LIG A   1      -6.794   3.997 124.015  0.00  0.00    +0.309 C 
BRANCH  11  12
ATOM     12  O   LIG A   1      -7.990   4.367 124.534  0.00  0.00    -0.480 OA
ATOM     13  H   LIG A   1      -8.626   4.628 123.830  0.00  0.00    +0.295 HD
ENDBRANCH  11  12
ENDBRANCH   9  11
ENDBRANCH   1   9
TORSDOF 4
ENDMDL
