MODEL 1
REMARK VINA RESULT:      -7.1      0.000      0.000
REMARK  Name = NuBBE_1900
REMARK  13 active torsions:
REMARK  status: ('A' for Active; 'I' for Inactive)
REMARK    1  A    between atoms: C_4  and  C_5
REMARK    2  A    between atoms: C_5  and  O_6
REMARK    3  A    between atoms: O_6  and  C_7
REMARK    4  A    between atoms: C_10  and  C_11
REMARK    5  A    between atoms: C_14  and  C_16
REMARK    6  A    between atoms: C_16  and  C_17
REMARK    7  A    between atoms: C_16  and  C_18
REMARK    8  A    between atoms: C_16  and  O_19
REMARK    9  A    between atoms: O_19  and  C_20
REMARK   10  A    between atoms: C_20  and  C_21
REMARK   11  A    between atoms: C_23  and  O_25
REMARK   12  A    between atoms: O_25  and  C_26
REMARK   13  A    between atoms: C_26  and  C_27
REMARK                            x       y       z     vdW  Elec       q    Type
REMARK                         _______ _______ _______ _____ _____    ______ ____
ROOT
ATOM      1  O   LIG A   1      -8.033   1.810 126.154  0.00  0.00    -0.288 OA
ATOM      2  C   LIG A   1      -8.248   0.625 126.415  0.00  0.00    +0.204 C 
ATOM      3  C   LIG A   1      -8.058   0.093 127.788  0.00  0.00    +0.030 A 
ATOM      4  C   LIG A   1      -7.839   0.985 128.874  0.00  0.00    -0.011 A 
ATOM      5  C   LIG A   1      -7.712   0.437 130.158  0.00  0.00    +0.007 A 
ATOM      6  C   LIG A   1      -7.768  -0.935 130.367  0.00  0.00    +0.004 A 
ATOM      7  C   LIG A   1      -7.938  -1.817 129.295  0.00  0.00    -0.047 A 
ATOM      8  C   LIG A   1      -7.939  -3.294 129.586  0.00  0.00    +0.044 C 
ATOM      9  C   LIG A   1      -8.107  -1.305 127.985  0.00  0.00    -0.033 A 
ATOM     10  C   LIG A   1      -8.175  -2.276 126.825  0.00  0.00    +0.047 C 
ATOM     11  C   LIG A   1      -8.850  -1.808 125.524  0.00  0.00    +0.085 C 
ATOM     12  C   LIG A   1      -8.758  -0.291 125.309  0.00  0.00    +0.254 C 
ENDROOT
BRANCH  11  13
ATOM     13  C   LIG A   1      -8.307  -2.600 124.258  0.00  0.00    +0.115 C 
ATOM     14  C   LIG A   1      -7.721  -3.991 124.597  0.00  0.00    +0.056 C 
ATOM     15  C   LIG A   1      -9.443  -2.871 123.237  0.00  0.00    +0.056 C 
BRANCH  13  16
ATOM     16  O   LIG A   1      -7.311  -1.810 123.518  0.00  0.00    -0.458 OA
BRANCH  16  17
ATOM     17  C   LIG A   1      -5.993  -2.093 123.595  0.00  0.00    +0.304 C 
ATOM     18  C   LIG A   1      -5.380  -1.446 124.807  0.00  0.00    +0.136 C 
ATOM     19  O   LIG A   1      -5.337  -2.735 122.769  0.00  0.00    -0.251 OA
ENDBRANCH  16  17
ENDBRANCH  13  16
ENDBRANCH  11  13
BRANCH   4  20
ATOM     20  C   LIG A   1      -7.741   2.496 128.706  0.00  0.00    +0.195 C 
BRANCH  20  21
ATOM     21  O   LIG A   1      -8.971   3.135 129.081  0.00  0.00    -0.378 OA
ATOM     22  C   LIG A   1      -8.787   4.487 129.467  0.00  0.00    +0.194 C 
ENDBRANCH  20  21
ENDBRANCH   4  20
BRANCH  12  23
ATOM     23  O   LIG A   1      -9.976   0.229 124.739  0.00  0.00    -0.453 OA
BRANCH  23  24
ATOM     24  C   LIG A   1      -9.913   0.572 123.423  0.00  0.00    +0.305 C 
ATOM     25  C   LIG A   1      -8.661   1.346 123.155  0.00  0.00    +0.136 C 
ATOM     26  O   LIG A   1     -10.757   0.315 122.583  0.00  0.00    -0.251 OA
ENDBRANCH  23  24
ENDBRANCH  12  23
TORSDOF 7
ENDMDL
MODEL 2
REMARK VINA RESULT:      -7.0      1.293      2.103
REMARK  Name = NuBBE_1900
REMARK  13 active torsions:
REMARK  status: ('A' for Active; 'I' for Inactive)
REMARK    1  A    between atoms: C_4  and  C_5
REMARK    2  A    between atoms: C_5  and  O_6
REMARK    3  A    between atoms: O_6  and  C_7
REMARK    4  A    between atoms: C_10  and  C_11
REMARK    5  A    between atoms: C_14  and  C_16
REMARK    6  A    between atoms: C_16  and  C_17
REMARK    7  A    between atoms: C_16  and  C_18
REMARK    8  A    between atoms: C_16  and  O_19
REMARK    9  A    between atoms: O_19  and  C_20
REMARK   10  A    between atoms: C_20  and  C_21
REMARK   11  A    between atoms: C_23  and  O_25
REMARK   12  A    between atoms: O_25  and  C_26
REMARK   13  A    between atoms: C_26  and  C_27
REMARK                            x       y       z     vdW  Elec       q    Type
REMARK                         _______ _______ _______ _____ _____    ______ ____
ROOT
ATOM      1  O   LIG A   1      -8.662   2.604 126.573  0.00  0.00    -0.288 OA
ATOM      2  C   LIG A   1      -8.431   1.397 126.675  0.00  0.00    +0.204 C 
ATOM      3  C   LIG A   1      -8.169   0.773 127.996  0.00  0.00    +0.030 A 
ATOM      4  C   LIG A   1      -8.398   1.510 129.191  0.00  0.00    -0.011 A 
ATOM      5  C   LIG A   1      -8.180   0.861 130.414  0.00  0.00    +0.007 A 
ATOM      6  C   LIG A   1      -7.728  -0.451 130.466  0.00  0.00    +0.004 A 
ATOM      7  C   LIG A   1      -7.458  -1.163 129.293  0.00  0.00    -0.047 A 
ATOM      8  C   LIG A   1      -6.921  -2.563 129.421  0.00  0.00    +0.044 C 
ATOM      9  C   LIG A   1      -7.698  -0.559 128.034  0.00  0.00    -0.033 A 
ATOM     10  C   LIG A   1      -7.293  -1.302 126.779  0.00  0.00    +0.047 C 
ATOM     11  C   LIG A   1      -7.983  -0.925 125.456  0.00  0.00    +0.085 C 
ATOM     12  C   LIG A   1      -8.458   0.534 125.419  0.00  0.00    +0.254 C 
ENDROOT
BRANCH  11  13
ATOM     13  C   LIG A   1      -7.075  -1.263 124.197  0.00  0.00    +0.115 C 
ATOM     14  C   LIG A   1      -6.729  -0.031 123.328  0.00  0.00    +0.056 C 
ATOM     15  C   LIG A   1      -5.709  -1.853 124.635  0.00  0.00    +0.056 C 
BRANCH  13  16
ATOM     16  O   LIG A   1      -7.689  -2.304 123.358  0.00  0.00    -0.458 OA
BRANCH  16  17
ATOM     17  C   LIG A   1      -8.730  -3.041 123.801  0.00  0.00    +0.304 C 
ATOM     18  C   LIG A   1      -8.251  -4.173 124.667  0.00  0.00    +0.136 C 
ATOM     19  O   LIG A   1      -9.916  -2.874 123.504  0.00  0.00    -0.251 OA
ENDBRANCH  16  17
ENDBRANCH  13  16
ENDBRANCH  11  13
BRANCH   4  20
ATOM     20  C   LIG A   1      -8.870   2.958 129.200  0.00  0.00    +0.195 C 
BRANCH  20  21
ATOM     21  O   LIG A   1     -10.188   3.065 129.758  0.00  0.00    -0.378 OA
ATOM     22  C   LIG A   1     -10.329   4.190 130.610  0.00  0.00    +0.194 C 
ENDBRANCH  20  21
ENDBRANCH   4  20
BRANCH  12  23
ATOM     23  O   LIG A   1      -9.730   0.651 124.750  0.00  0.00    -0.453 OA
BRANCH  23  24
ATOM     24  C   LIG A   1      -9.717   1.334 123.572  0.00  0.00    +0.305 C 
ATOM     25  C   LIG A   1     -10.276   0.479 122.478  0.00  0.00    +0.136 C 
ATOM     26  O   LIG A   1      -9.292   2.464 123.412  0.00  0.00    -0.251 OA
ENDBRANCH  23  24
ENDBRANCH  12  23
TORSDOF 7
ENDMDL
MODEL 3
REMARK VINA RESULT:      -6.9      3.608      7.662
REMARK  Name = NuBBE_1900
REMARK  13 active torsions:
REMARK  status: ('A' for Active; 'I' for Inactive)
REMARK    1  A    between atoms: C_4  and  C_5
REMARK    2  A    between atoms: C_5  and  O_6
REMARK    3  A    between atoms: O_6  and  C_7
REMARK    4  A    between atoms: C_10  and  C_11
REMARK    5  A    between atoms: C_14  and  C_16
REMARK    6  A    between atoms: C_16  and  C_17
REMARK    7  A    between atoms: C_16  and  C_18
REMARK    8  A    between atoms: C_16  and  O_19
REMARK    9  A    between atoms: O_19  and  C_20
REMARK   10  A    between atoms: C_20  and  C_21
REMARK   11  A    between atoms: C_23  and  O_25
REMARK   12  A    between atoms: O_25  and  C_26
REMARK   13  A    between atoms: C_26  and  C_27
REMARK                            x       y       z     vdW  Elec       q    Type
REMARK                         _______ _______ _______ _____ _____    ______ ____
ROOT
ATOM      1  O   LIG A   1      -8.570   2.211 126.503  0.00  0.00    -0.288 OA
ATOM      2  C   LIG A   1      -7.643   2.867 126.022  0.00  0.00    +0.204 C 
ATOM      3  C   LIG A   1      -7.505   3.039 124.554  0.00  0.00    +0.030 A 
ATOM      4  C   LIG A   1      -8.560   2.642 123.687  0.00  0.00    -0.011 A 
ATOM      5  C   LIG A   1      -8.401   2.868 122.313  0.00  0.00    +0.007 A 
ATOM      6  C   LIG A   1      -7.241   3.438 121.803  0.00  0.00    +0.004 A 
ATOM      7  C   LIG A   1      -6.184   3.789 122.649  0.00  0.00    -0.047 A 
ATOM      8  C   LIG A   1      -4.935   4.354 122.026  0.00  0.00    +0.044 C 
ATOM      9  C   LIG A   1      -6.315   3.610 124.048  0.00  0.00    -0.033 A 
ATOM     10  C   LIG A   1      -5.120   3.888 124.935  0.00  0.00    +0.047 C 
ATOM     11  C   LIG A   1      -5.374   4.195 126.422  0.00  0.00    +0.085 C 
ATOM     12  C   LIG A   1      -6.652   3.540 126.963  0.00  0.00    +0.254 C 
ENDROOT
BRANCH  11  13
ATOM     13  C   LIG A   1      -4.118   3.831 127.323  0.00  0.00    +0.115 C 
ATOM     14  C   LIG A   1      -4.129   2.376 127.850  0.00  0.00    +0.056 C 
ATOM     15  C   LIG A   1      -2.795   3.967 126.524  0.00  0.00    +0.056 C 
BRANCH  13  16
ATOM     16  O   LIG A   1      -3.978   4.764 128.452  0.00  0.00    -0.458 OA
BRANCH  16  17
ATOM     17  C   LIG A   1      -3.540   6.028 128.268  0.00  0.00    +0.304 C 
ATOM     18  C   LIG A   1      -2.224   6.242 128.965  0.00  0.00    +0.136 C 
ATOM     19  O   LIG A   1      -4.140   6.926 127.670  0.00  0.00    -0.251 OA
ENDBRANCH  16  17
ENDBRANCH  13  16
ENDBRANCH  11  13
BRANCH   4  20
ATOM     20  C   LIG A   1      -9.845   1.989 124.181  0.00  0.00    +0.195 C 
BRANCH  20  21
ATOM     21  O   LIG A   1     -10.030   0.700 123.577  0.00  0.00    -0.378 OA
ATOM     22  C   LIG A   1      -9.123  -0.270 124.073  0.00  0.00    +0.194 C 
ENDBRANCH  20  21
ENDBRANCH   4  20
BRANCH  12  23
ATOM     23  O   LIG A   1      -7.337   4.416 127.880  0.00  0.00    -0.453 OA
BRANCH  23  24
ATOM     24  C   LIG A   1      -7.416   3.978 129.167  0.00  0.00    +0.305 C 
ATOM     25  C   LIG A   1      -8.032   5.033 130.031  0.00  0.00    +0.136 C 
ATOM     26  O   LIG A   1      -7.024   2.898 129.574  0.00  0.00    -0.251 OA
ENDBRANCH  23  24
ENDBRANCH  12  23
TORSDOF 7
ENDMDL
MODEL 4
REMARK VINA RESULT:      -6.9      1.522      1.981
REMARK  Name = NuBBE_1900
REMARK  13 active torsions:
REMARK  status: ('A' for Active; 'I' for Inactive)
REMARK    1  A    between atoms: C_4  and  C_5
REMARK    2  A    between atoms: C_5  and  O_6
REMARK    3  A    between atoms: O_6  and  C_7
REMARK    4  A    between atoms: C_10  and  C_11
REMARK    5  A    between atoms: C_14  and  C_16
REMARK    6  A    between atoms: C_16  and  C_17
REMARK    7  A    between atoms: C_16  and  C_18
REMARK    8  A    between atoms: C_16  and  O_19
REMARK    9  A    between atoms: O_19  and  C_20
REMARK   10  A    between atoms: C_20  and  C_21
REMARK   11  A    between atoms: C_23  and  O_25
REMARK   12  A    between atoms: O_25  and  C_26
REMARK   13  A    between atoms: C_26  and  C_27
REMARK                            x       y       z     vdW  Elec       q    Type
REMARK                         _______ _______ _______ _____ _____    ______ ____
ROOT
ATOM      1  O   LIG A   1      -6.886   1.314 127.188  0.00  0.00    -0.288 OA
ATOM      2  C   LIG A   1      -7.558   0.315 126.926  0.00  0.00    +0.204 C 
ATOM      3  C   LIG A   1      -7.695  -0.797 127.899  0.00  0.00    +0.030 A 
ATOM      4  C   LIG A   1      -7.239  -0.635 129.236  0.00  0.00    -0.011 A 
ATOM      5  C   LIG A   1      -7.433  -1.698 130.130  0.00  0.00    +0.007 A 
ATOM      6  C   LIG A   1      -8.027  -2.886 129.722  0.00  0.00    +0.004 A 
ATOM      7  C   LIG A   1      -8.435  -3.065 128.397  0.00  0.00    -0.047 A 
ATOM      8  C   LIG A   1      -9.024  -4.395 128.010  0.00  0.00    +0.044 C 
ATOM      9  C   LIG A   1      -8.291  -2.005 127.468  0.00  0.00    -0.033 A 
ATOM     10  C   LIG A   1      -8.632  -2.256 126.015  0.00  0.00    +0.047 C 
ATOM     11  C   LIG A   1      -8.972  -1.045 125.128  0.00  0.00    +0.085 C 
ATOM     12  C   LIG A   1      -8.290   0.250 125.590  0.00  0.00    +0.254 C 
ENDROOT
BRANCH  11  13
ATOM     13  C   LIG A   1      -8.674  -1.332 123.594  0.00  0.00    +0.115 C 
ATOM     14  C   LIG A   1      -8.826  -2.821 123.198  0.00  0.00    +0.056 C 
ATOM     15  C   LIG A   1      -9.660  -0.561 122.678  0.00  0.00    +0.056 C 
BRANCH  13  16
ATOM     16  O   LIG A   1      -7.338  -0.851 123.207  0.00  0.00    -0.458 OA
BRANCH  16  17
ATOM     17  C   LIG A   1      -6.309  -1.707 123.025  0.00  0.00    +0.304 C 
ATOM     18  C   LIG A   1      -5.561  -1.921 124.312  0.00  0.00    +0.136 C 
ATOM     19  O   LIG A   1      -5.964  -2.210 121.952  0.00  0.00    -0.251 OA
ENDBRANCH  16  17
ENDBRANCH  13  16
ENDBRANCH  11  13
BRANCH   4  20
ATOM     20  C   LIG A   1      -6.558   0.632 129.737  0.00  0.00    +0.195 C 
BRANCH  20  21
ATOM     21  O   LIG A   1      -7.310   1.231 130.804  0.00  0.00    -0.378 OA
ATOM     22  C   LIG A   1      -8.447   1.938 130.338  0.00  0.00    +0.194 C 
ENDBRANCH  20  21
ENDBRANCH   4  20
BRANCH  12  23
ATOM     23  O   LIG A   1      -9.167   1.384 125.436  0.00  0.00    -0.453 OA
BRANCH  23  24
ATOM     24  C   LIG A   1      -8.576   2.534 125.009  0.00  0.00    +0.305 C 
ATOM     25  C   LIG A   1      -7.667   2.246 123.857  0.00  0.00    +0.136 C 
ATOM     26  O   LIG A   1      -8.736   3.638 125.501  0.00  0.00    -0.251 OA
ENDBRANCH  23  24
ENDBRANCH  12  23
TORSDOF 7
ENDMDL
MODEL 5
REMARK VINA RESULT:      -6.8      1.664      2.875
REMARK  Name = NuBBE_1900
REMARK  13 active torsions:
REMARK  status: ('A' for Active; 'I' for Inactive)
REMARK    1  A    between atoms: C_4  and  C_5
REMARK    2  A    between atoms: C_5  and  O_6
REMARK    3  A    between atoms: O_6  and  C_7
REMARK    4  A    between atoms: C_10  and  C_11
REMARK    5  A    between atoms: C_14  and  C_16
REMARK    6  A    between atoms: C_16  and  C_17
REMARK    7  A    between atoms: C_16  and  C_18
REMARK    8  A    between atoms: C_16  and  O_19
REMARK    9  A    between atoms: O_19  and  C_20
REMARK   10  A    between atoms: C_20  and  C_21
REMARK   11  A    between atoms: C_23  and  O_25
REMARK   12  A    between atoms: O_25  and  C_26
REMARK   13  A    between atoms: C_26  and  C_27
REMARK                            x       y       z     vdW  Elec       q    Type
REMARK                         _______ _______ _______ _____ _____    ______ ____
ROOT
ATOM      1  O   LIG A   1      -8.667   3.386 127.914  0.00  0.00    -0.288 OA
ATOM      2  C   LIG A   1      -8.505   2.176 128.085  0.00  0.00    +0.204 C 
ATOM      3  C   LIG A   1      -8.539   1.579 129.443  0.00  0.00    +0.030 A 
ATOM      4  C   LIG A   1      -8.980   2.354 130.551  0.00  0.00    -0.011 A 
ATOM      5  C   LIG A   1      -9.039   1.731 131.806  0.00  0.00    +0.007 A 
ATOM      6  C   LIG A   1      -8.654   0.407 131.975  0.00  0.00    +0.004 A 
ATOM      7  C   LIG A   1      -8.177  -0.343 130.896  0.00  0.00    -0.047 A 
ATOM      8  C   LIG A   1      -7.728  -1.756 131.158  0.00  0.00    +0.044 C 
ATOM      9  C   LIG A   1      -8.134   0.234 129.603  0.00  0.00    -0.033 A 
ATOM     10  C   LIG A   1      -7.509  -0.554 128.471  0.00  0.00    +0.047 C 
ATOM     11  C   LIG A   1      -7.902  -0.190 127.028  0.00  0.00    +0.085 C 
ATOM     12  C   LIG A   1      -8.307   1.281 126.867  0.00  0.00    +0.254 C 
ENDROOT
BRANCH  11  13
ATOM     13  C   LIG A   1      -6.770  -0.590 125.988  0.00  0.00    +0.115 C 
ATOM     14  C   LIG A   1      -5.795   0.564 125.653  0.00  0.00    +0.056 C 
ATOM     15  C   LIG A   1      -5.879  -1.732 126.542  0.00  0.00    +0.056 C 
BRANCH  13  16
ATOM     16  O   LIG A   1      -7.348  -1.127 124.746  0.00  0.00    -0.458 OA
BRANCH  16  17
ATOM     17  C   LIG A   1      -8.343  -2.039 124.771  0.00  0.00    +0.304 C 
ATOM     18  C   LIG A   1      -7.858  -3.370 124.266  0.00  0.00    +0.136 C 
ATOM     19  O   LIG A   1      -9.515  -1.827 125.096  0.00  0.00    -0.251 OA
ENDBRANCH  16  17
ENDBRANCH  13  16
ENDBRANCH  11  13
BRANCH   4  20
ATOM     20  C   LIG A   1      -9.392   3.816 130.436  0.00  0.00    +0.195 C 
BRANCH  20  21
ATOM     21  O   LIG A   1     -10.806   3.936 130.223  0.00  0.00    -0.378 OA
ATOM     22  C   LIG A   1     -11.279   5.256 130.434  0.00  0.00    +0.194 C 
ENDBRANCH  20  21
ENDBRANCH   4  20
BRANCH  12  23
ATOM     23  O   LIG A   1      -9.411   1.420 125.950  0.00  0.00    -0.453 OA
BRANCH  23  24
ATOM     24  C   LIG A   1      -9.121   2.020 124.762  0.00  0.00    +0.305 C 
ATOM     25  C   LIG A   1      -9.916   1.390 123.662  0.00  0.00    +0.136 C 
ATOM     26  O   LIG A   1      -8.317   2.921 124.602  0.00  0.00    -0.251 OA
ENDBRANCH  23  24
ENDBRANCH  12  23
TORSDOF 7
ENDMDL
MODEL 6
REMARK VINA RESULT:      -6.7      2.208      5.083
REMARK  Name = NuBBE_1900
REMARK  13 active torsions:
REMARK  status: ('A' for Active; 'I' for Inactive)
REMARK    1  A    between atoms: C_4  and  C_5
REMARK    2  A    between atoms: C_5  and  O_6
REMARK    3  A    between atoms: O_6  and  C_7
REMARK    4  A    between atoms: C_10  and  C_11
REMARK    5  A    between atoms: C_14  and  C_16
REMARK    6  A    between atoms: C_16  and  C_17
REMARK    7  A    between atoms: C_16  and  C_18
REMARK    8  A    between atoms: C_16  and  O_19
REMARK    9  A    between atoms: O_19  and  C_20
REMARK   10  A    between atoms: C_20  and  C_21
REMARK   11  A    between atoms: C_23  and  O_25
REMARK   12  A    between atoms: O_25  and  C_26
REMARK   13  A    between atoms: C_26  and  C_27
REMARK                            x       y       z     vdW  Elec       q    Type
REMARK                         _______ _______ _______ _____ _____    ______ ____
ROOT
ATOM      1  O   LIG A   1      -7.112   0.353 129.451  0.00  0.00    -0.288 OA
ATOM      2  C   LIG A   1      -7.670   0.137 128.373  0.00  0.00    +0.204 C 
ATOM      3  C   LIG A   1      -8.034  -1.241 127.958  0.00  0.00    +0.030 A 
ATOM      4  C   LIG A   1      -7.947  -2.312 128.889  0.00  0.00    -0.011 A 
ATOM      5  C   LIG A   1      -8.345  -3.587 128.463  0.00  0.00    +0.007 A 
ATOM      6  C   LIG A   1      -8.786  -3.810 127.165  0.00  0.00    +0.004 A 
ATOM      7  C   LIG A   1      -8.830  -2.767 126.234  0.00  0.00    -0.047 A 
ATOM      8  C   LIG A   1      -9.268  -3.088 124.830  0.00  0.00    +0.044 C 
ATOM      9  C   LIG A   1      -8.470  -1.456 126.631  0.00  0.00    -0.033 A 
ATOM     10  C   LIG A   1      -8.414  -0.365 125.583  0.00  0.00    +0.047 C 
ATOM     11  C   LIG A   1      -8.535   1.097 126.048  0.00  0.00    +0.085 C 
ATOM     12  C   LIG A   1      -8.026   1.319 127.478  0.00  0.00    +0.254 C 
ENDROOT
BRANCH  11  13
ATOM     13  C   LIG A   1      -7.840   2.101 125.031  0.00  0.00    +0.115 C 
ATOM     14  C   LIG A   1      -8.361   3.554 125.135  0.00  0.00    +0.056 C 
ATOM     15  C   LIG A   1      -6.313   2.193 125.290  0.00  0.00    +0.056 C 
BRANCH  13  16
ATOM     16  O   LIG A   1      -7.963   1.629 123.643  0.00  0.00    -0.458 OA
BRANCH  16  17
ATOM     17  C   LIG A   1      -8.923   2.106 122.822  0.00  0.00    +0.304 C 
ATOM     18  C   LIG A   1     -10.067   1.134 122.719  0.00  0.00    +0.136 C 
ATOM     19  O   LIG A   1      -8.873   3.159 122.179  0.00  0.00    -0.251 OA
ENDBRANCH  16  17
ENDBRANCH  13  16
ENDBRANCH  11  13
BRANCH   4  20
ATOM     20  C   LIG A   1      -7.448  -2.137 130.318  0.00  0.00    +0.195 C 
BRANCH  20  21
ATOM     21  O   LIG A   1      -6.366  -3.040 130.598  0.00  0.00    -0.378 OA
ATOM     22  C   LIG A   1      -5.097  -2.470 130.323  0.00  0.00    +0.194 C 
ENDBRANCH  20  21
ENDBRANCH   4  20
BRANCH  12  23
ATOM     23  O   LIG A   1      -8.856   2.261 128.187  0.00  0.00    -0.453 OA
BRANCH  23  24
ATOM     24  C   LIG A   1      -8.198   3.282 128.802  0.00  0.00    +0.305 C 
ATOM     25  C   LIG A   1      -8.942   3.706 130.029  0.00  0.00    +0.136 C 
ATOM     26  O   LIG A   1      -7.169   3.801 128.407  0.00  0.00    -0.251 OA
ENDBRANCH  23  24
ENDBRANCH  12  23
TORSDOF 7
ENDMDL
MODEL 7
REMARK VINA RESULT:      -6.7      2.361      5.172
REMARK  Name = NuBBE_1900
REMARK  13 active torsions:
REMARK  status: ('A' for Active; 'I' for Inactive)
REMARK    1  A    between atoms: C_4  and  C_5
REMARK    2  A    between atoms: C_5  and  O_6
REMARK    3  A    between atoms: O_6  and  C_7
REMARK    4  A    between atoms: C_10  and  C_11
REMARK    5  A    between atoms: C_14  and  C_16
REMARK    6  A    between atoms: C_16  and  C_17
REMARK    7  A    between atoms: C_16  and  C_18
REMARK    8  A    between atoms: C_16  and  O_19
REMARK    9  A    between atoms: O_19  and  C_20
REMARK   10  A    between atoms: C_20  and  C_21
REMARK   11  A    between atoms: C_23  and  O_25
REMARK   12  A    between atoms: O_25  and  C_26
REMARK   13  A    between atoms: C_26  and  C_27
REMARK                            x       y       z     vdW  Elec       q    Type
REMARK                         _______ _______ _______ _____ _____    ______ ____
ROOT
ATOM      1  O   LIG A   1      -9.066   1.675 126.629  0.00  0.00    -0.288 OA
ATOM      2  C   LIG A   1      -8.569   0.548 126.582  0.00  0.00    +0.204 C 
ATOM      3  C   LIG A   1      -8.745  -0.320 125.392  0.00  0.00    +0.030 A 
ATOM      4  C   LIG A   1      -9.300   0.213 124.196  0.00  0.00    -0.011 A 
ATOM      5  C   LIG A   1      -9.403  -0.635 123.084  0.00  0.00    +0.007 A 
ATOM      6  C   LIG A   1      -9.003  -1.964 123.150  0.00  0.00    +0.004 A 
ATOM      7  C   LIG A   1      -8.499  -2.503 124.337  0.00  0.00    -0.047 A 
ATOM      8  C   LIG A   1      -8.132  -3.963 124.354  0.00  0.00    +0.044 C 
ATOM      9  C   LIG A   1      -8.344  -1.673 125.475  0.00  0.00    -0.033 A 
ATOM     10  C   LIG A   1      -7.906  -2.300 126.782  0.00  0.00    +0.047 C 
ATOM     11  C   LIG A   1      -7.255  -1.392 127.841  0.00  0.00    +0.085 C 
ATOM     12  C   LIG A   1      -7.727   0.066 127.757  0.00  0.00    +0.254 C 
ENDROOT
BRANCH  11  13
ATOM     13  C   LIG A   1      -7.439  -1.970 129.309  0.00  0.00    +0.115 C 
ATOM     14  C   LIG A   1      -8.029  -0.950 130.311  0.00  0.00    +0.056 C 
ATOM     15  C   LIG A   1      -8.422  -3.171 129.319  0.00  0.00    +0.056 C 
BRANCH  13  16
ATOM     16  O   LIG A   1      -6.175  -2.508 129.837  0.00  0.00    -0.458 OA
BRANCH  16  17
ATOM     17  C   LIG A   1      -4.983  -1.998 129.459  0.00  0.00    +0.304 C 
ATOM     18  C   LIG A   1      -4.179  -3.024 128.708  0.00  0.00    +0.136 C 
ATOM     19  O   LIG A   1      -4.556  -0.873 129.731  0.00  0.00    -0.251 OA
ENDBRANCH  16  17
ENDBRANCH  13  16
ENDBRANCH  11  13
BRANCH   4  20
ATOM     20  C   LIG A   1      -9.781   1.653 124.069  0.00  0.00    +0.195 C 
BRANCH  20  21
ATOM     21  O   LIG A   1      -9.058   2.346 123.040  0.00  0.00    -0.378 OA
ATOM     22  C   LIG A   1      -8.001   3.138 123.557  0.00  0.00    +0.194 C 
ENDBRANCH  20  21
ENDBRANCH   4  20
BRANCH  12  23
ATOM     23  O   LIG A   1      -6.642   0.980 128.014  0.00  0.00    -0.453 OA
BRANCH  23  24
ATOM     24  C   LIG A   1      -5.730   1.110 127.011  0.00  0.00    +0.305 C 
ATOM     25  C   LIG A   1      -5.597   2.549 126.623  0.00  0.00    +0.136 C 
ATOM     26  O   LIG A   1      -5.123   0.195 126.482  0.00  0.00    -0.251 OA
ENDBRANCH  23  24
ENDBRANCH  12  23
TORSDOF 7
ENDMDL
MODEL 8
REMARK VINA RESULT:      -6.5      2.013      5.873
REMARK  Name = NuBBE_1900
REMARK  13 active torsions:
REMARK  status: ('A' for Active; 'I' for Inactive)
REMARK    1  A    between atoms: C_4  and  C_5
REMARK    2  A    between atoms: C_5  and  O_6
REMARK    3  A    between atoms: O_6  and  C_7
REMARK    4  A    between atoms: C_10  and  C_11
REMARK    5  A    between atoms: C_14  and  C_16
REMARK    6  A    between atoms: C_16  and  C_17
REMARK    7  A    between atoms: C_16  and  C_18
REMARK    8  A    between atoms: C_16  and  O_19
REMARK    9  A    between atoms: O_19  and  C_20
REMARK   10  A    between atoms: C_20  and  C_21
REMARK   11  A    between atoms: C_23  and  O_25
REMARK   12  A    between atoms: O_25  and  C_26
REMARK   13  A    between atoms: C_26  and  C_27
REMARK                            x       y       z     vdW  Elec       q    Type
REMARK                         _______ _______ _______ _____ _____    ______ ____
ROOT
ATOM      1  O   LIG A   1      -7.393   1.051 124.630  0.00  0.00    -0.288 OA
ATOM      2  C   LIG A   1      -7.255   0.399 125.667  0.00  0.00    +0.204 C 
ATOM      3  C   LIG A   1      -7.893  -0.931 125.829  0.00  0.00    +0.030 A 
ATOM      4  C   LIG A   1      -8.491  -1.576 124.712  0.00  0.00    -0.011 A 
ATOM      5  C   LIG A   1      -9.040  -2.852 124.905  0.00  0.00    +0.007 A 
ATOM      6  C   LIG A   1      -9.029  -3.461 126.154  0.00  0.00    +0.004 A 
ATOM      7  C   LIG A   1      -8.482  -2.810 127.264  0.00  0.00    -0.047 A 
ATOM      8  C   LIG A   1      -8.549  -3.505 128.598  0.00  0.00    +0.044 C 
ATOM      9  C   LIG A   1      -7.885  -1.535 127.107  0.00  0.00    -0.033 A 
ATOM     10  C   LIG A   1      -7.403  -0.798 128.338  0.00  0.00    +0.047 C 
ATOM     11  C   LIG A   1      -6.332   0.293 128.159  0.00  0.00    +0.085 C 
ATOM     12  C   LIG A   1      -6.377   0.961 126.778  0.00  0.00    +0.254 C 
ENDROOT
BRANCH  11  13
ATOM     13  C   LIG A   1      -6.390   1.375 129.321  0.00  0.00    +0.115 C 
ATOM     14  C   LIG A   1      -7.164   0.903 130.575  0.00  0.00    +0.056 C 
ATOM     15  C   LIG A   1      -4.967   1.731 129.827  0.00  0.00    +0.056 C 
BRANCH  13  16
ATOM     16  O   LIG A   1      -6.953   2.647 128.842  0.00  0.00    -0.458 OA
BRANCH  16  17
ATOM     17  C   LIG A   1      -8.262   2.938 128.997  0.00  0.00    +0.304 C 
ATOM     18  C   LIG A   1      -8.444   4.068 129.974  0.00  0.00    +0.136 C 
ATOM     19  O   LIG A   1      -9.207   2.339 128.475  0.00  0.00    -0.251 OA
ENDBRANCH  16  17
ENDBRANCH  13  16
ENDBRANCH  11  13
BRANCH   4  20
ATOM     20  C   LIG A   1      -8.558  -0.950 123.324  0.00  0.00    +0.195 C 
BRANCH  20  21
ATOM     21  O   LIG A   1      -9.920  -0.767 122.909  0.00  0.00    -0.378 OA
ATOM     22  C   LIG A   1     -10.200   0.572 122.537  0.00  0.00    +0.194 C 
ENDBRANCH  20  21
ENDBRANCH   4  20
BRANCH  12  23
ATOM     23  O   LIG A   1      -5.049   1.234 126.288  0.00  0.00    -0.453 OA
BRANCH  23  24
ATOM     24  C   LIG A   1      -4.705   2.550 126.216  0.00  0.00    +0.305 C 
ATOM     25  C   LIG A   1      -3.269   2.725 126.598  0.00  0.00    +0.136 C 
ATOM     26  O   LIG A   1      -5.452   3.462 125.912  0.00  0.00    -0.251 OA
ENDBRANCH  23  24
ENDBRANCH  12  23
TORSDOF 7
ENDMDL
MODEL 9
REMARK VINA RESULT:      -6.5      2.630      5.686
REMARK  Name = NuBBE_1900
REMARK  13 active torsions:
REMARK  status: ('A' for Active; 'I' for Inactive)
REMARK    1  A    between atoms: C_4  and  C_5
REMARK    2  A    between atoms: C_5  and  O_6
REMARK    3  A    between atoms: O_6  and  C_7
REMARK    4  A    between atoms: C_10  and  C_11
REMARK    5  A    between atoms: C_14  and  C_16
REMARK    6  A    between atoms: C_16  and  C_17
REMARK    7  A    between atoms: C_16  and  C_18
REMARK    8  A    between atoms: C_16  and  O_19
REMARK    9  A    between atoms: O_19  and  C_20
REMARK   10  A    between atoms: C_20  and  C_21
REMARK   11  A    between atoms: C_23  and  O_25
REMARK   12  A    between atoms: O_25  and  C_26
REMARK   13  A    between atoms: C_26  and  C_27
REMARK                            x       y       z     vdW  Elec       q    Type
REMARK                         _______ _______ _______ _____ _____    ______ ____
ROOT
ATOM      1  O   LIG A   1      -8.765   0.715 126.482  0.00  0.00    -0.288 OA
ATOM      2  C   LIG A   1      -7.727   0.060 126.371  0.00  0.00    +0.204 C 
ATOM      3  C   LIG A   1      -7.422  -0.692 125.128  0.00  0.00    +0.030 A 
ATOM      4  C   LIG A   1      -8.210  -0.491 123.962  0.00  0.00    -0.011 A 
ATOM      5  C   LIG A   1      -7.853  -1.189 122.800  0.00  0.00    +0.007 A 
ATOM      6  C   LIG A   1      -6.781  -2.072 122.788  0.00  0.00    +0.004 A 
ATOM      7  C   LIG A   1      -6.032  -2.305 123.945  0.00  0.00    -0.047 A 
ATOM      8  C   LIG A   1      -4.915  -3.313 123.876  0.00  0.00    +0.044 C 
ATOM      9  C   LIG A   1      -6.335  -1.595 125.133  0.00  0.00    -0.033 A 
ATOM     10  C   LIG A   1      -5.588  -1.944 126.403  0.00  0.00    +0.047 C 
ATOM     11  C   LIG A   1      -5.524  -0.889 127.522  0.00  0.00    +0.085 C 
ATOM     12  C   LIG A   1      -6.729   0.062 127.522  0.00  0.00    +0.254 C 
ENDROOT
BRANCH  11  13
ATOM     13  C   LIG A   1      -5.318  -1.553 128.950  0.00  0.00    +0.115 C 
ATOM     14  C   LIG A   1      -4.597  -2.921 128.903  0.00  0.00    +0.056 C 
ATOM     15  C   LIG A   1      -4.440  -0.657 129.863  0.00  0.00    +0.056 C 
BRANCH  13  16
ATOM     16  O   LIG A   1      -6.595  -1.691 129.667  0.00  0.00    -0.458 OA
BRANCH  16  17
ATOM     17  C   LIG A   1      -7.144  -2.903 129.897  0.00  0.00    +0.304 C 
ATOM     18  C   LIG A   1      -8.135  -3.251 128.819  0.00  0.00    +0.136 C 
ATOM     19  O   LIG A   1      -6.934  -3.622 130.877  0.00  0.00    -0.251 OA
ENDBRANCH  16  17
ENDBRANCH  13  16
ENDBRANCH  11  13
BRANCH   4  20
ATOM     20  C   LIG A   1      -9.413   0.443 123.918  0.00  0.00    +0.195 C 
BRANCH  20  21
ATOM     21  O   LIG A   1      -9.247   1.447 122.906  0.00  0.00    -0.378 OA
ATOM     22  C   LIG A   1      -8.499   2.562 123.362  0.00  0.00    +0.194 C 
ENDBRANCH  20  21
ENDBRANCH   4  20
BRANCH  12  23
ATOM     23  O   LIG A   1      -6.328   1.409 127.845  0.00  0.00    -0.453 OA
BRANCH  23  24
ATOM     24  C   LIG A   1      -5.351   1.939 127.058  0.00  0.00    +0.305 C 
ATOM     25  C   LIG A   1      -4.216   2.420 127.905  0.00  0.00    +0.136 C 
ATOM     26  O   LIG A   1      -5.394   2.037 125.844  0.00  0.00    -0.251 OA
ENDBRANCH  23  24
ENDBRANCH  12  23
TORSDOF 7
ENDMDL
