MODEL 1
REMARK VINA RESULT:      -7.6      0.000      0.000
REMARK  Name = NuBBE_2082
REMARK  9 active torsions:
REMARK  status: ('A' for Active; 'I' for Inactive)
REMARK    1  A    between atoms: O_1  and  C_2
REMARK    2  A    between atoms: C_3  and  C_4
REMARK    3  A    between atoms: C_5  and  O_6
REMARK    4  A    between atoms: C_7  and  C_8
REMARK    5  A    between atoms: C_8  and  C_9
REMARK    6  A    between atoms: C_9  and  C_10
REMARK    7  A    between atoms: C_10  and  C_11
REMARK    8  A    between atoms: C_19  and  O_20
REMARK    9  A    between atoms: C_22  and  C_23
REMARK                            x       y       z     vdW  Elec       q    Type
REMARK                         _______ _______ _______ _____ _____    ______ ____
ROOT
ATOM      1  C   LIG A   1      -5.732   6.361 131.736  0.00  0.00    +0.039 C 
ENDROOT
BRANCH   1   6
ATOM      2  C   LIG A   1      -3.128   4.630 128.750  0.00  0.00    +0.126 A 
ATOM      3  C   LIG A   1      -3.116   6.025 128.929  0.00  0.00    +0.033 A 
ATOM      4  C   LIG A   1      -2.207   6.894 128.101  0.00  0.00    +0.051 C 
ATOM      5  C   LIG A   1      -3.954   6.575 129.918  0.00  0.00    +0.126 A 
ATOM      6  C   LIG A   1      -4.814   5.773 130.684  0.00  0.00    -0.005 A 
ATOM      7  C   LIG A   1      -4.811   4.387 130.463  0.00  0.00    +0.014 A 
ATOM      8  C   LIG A   1      -3.981   3.800 129.494  0.00  0.00    -0.008 A 
ATOM      9  C   LIG A   1      -4.027   2.310 129.300  0.00  0.00    +0.048 C 
BRANCH   2  10
ATOM     10  O   LIG A   1      -2.267   4.107 127.819  0.00  0.00    -0.506 OA
ATOM     11  H   LIG A   1      -2.071   3.184 128.039  0.00  0.00    +0.292 HD
ENDBRANCH   2  10
BRANCH   5  12
ATOM     12  O   LIG A   1      -3.968   7.921 130.179  0.00  0.00    -0.506 OA
ATOM     13  H   LIG A   1      -4.201   8.403 129.372  0.00  0.00    +0.292 HD
ENDBRANCH   5  12
ENDBRANCH   1   6
BRANCH   1  14
ATOM     14  C   LIG A   1      -7.052   6.888 131.158  0.00  0.00    +0.010 C 
BRANCH  14  15
ATOM     15  C   LIG A   1      -8.255   6.133 131.742  0.00  0.00    +0.039 C 
BRANCH  15  16
ATOM     16  C   LIG A   1      -9.575   6.596 131.164  0.00  0.00    -0.002 A 
ATOM     17  C   LIG A   1      -9.583   7.370 129.989  0.00  0.00    +0.056 A 
ATOM     18  C   LIG A   1     -10.795   7.804 129.494  0.00  0.00    +0.167 A 
ATOM     19  O   LIG A   1     -10.975   8.568 128.383  0.00  0.00    -0.453 OA
ATOM     20  C   LIG A   1     -12.410   8.723 128.388  0.00  0.00    +0.466 C 
ATOM     21  O   LIG A   1     -13.059   8.022 129.470  0.00  0.00    -0.453 OA
ATOM     22  C   LIG A   1     -11.984   7.492 130.113  0.00  0.00    +0.170 A 
ATOM     23  C   LIG A   1     -12.025   6.728 131.258  0.00  0.00    +0.095 A 
ATOM     24  C   LIG A   1     -10.808   6.285 131.782  0.00  0.00    +0.124 A 
BRANCH  24  25
ATOM     25  O   LIG A   1     -10.796   5.528 132.921  0.00  0.00    -0.506 OA
ATOM     26  H   LIG A   1     -10.931   4.598 132.675  0.00  0.00    +0.292 HD
ENDBRANCH  24  25
ENDBRANCH  15  16
ENDBRANCH  14  15
ENDBRANCH   1  14
TORSDOF 7
ENDMDL
MODEL 2
REMARK VINA RESULT:      -7.5      8.778     11.116
REMARK  Name = NuBBE_2082
REMARK  9 active torsions:
REMARK  status: ('A' for Active; 'I' for Inactive)
REMARK    1  A    between atoms: O_1  and  C_2
REMARK    2  A    between atoms: C_3  and  C_4
REMARK    3  A    between atoms: C_5  and  O_6
REMARK    4  A    between atoms: C_7  and  C_8
REMARK    5  A    between atoms: C_8  and  C_9
REMARK    6  A    between atoms: C_9  and  C_10
REMARK    7  A    between atoms: C_10  and  C_11
REMARK    8  A    between atoms: C_19  and  O_20
REMARK    9  A    between atoms: C_22  and  C_23
REMARK                            x       y       z     vdW  Elec       q    Type
REMARK                         _______ _______ _______ _____ _____    ______ ____
ROOT
ATOM      1  C   LIG A   1      -8.042   2.695 123.400  0.00  0.00    +0.039 C 
ENDROOT
BRANCH   1   6
ATOM      2  C   LIG A   1      -5.869   4.646 120.211  0.00  0.00    +0.126 A 
ATOM      3  C   LIG A   1      -7.184   4.212 119.965  0.00  0.00    +0.033 A 
ATOM      4  C   LIG A   1      -7.822   4.431 118.619  0.00  0.00    +0.051 C 
ATOM      5  C   LIG A   1      -7.888   3.596 121.018  0.00  0.00    +0.126 A 
ATOM      6  C   LIG A   1      -7.295   3.375 122.270  0.00  0.00    -0.005 A 
ATOM      7  C   LIG A   1      -5.975   3.805 122.472  0.00  0.00    +0.014 A 
ATOM      8  C   LIG A   1      -5.245   4.434 121.450  0.00  0.00    -0.008 A 
ATOM      9  C   LIG A   1      -3.832   4.868 121.725  0.00  0.00    +0.048 C 
BRANCH   2  10
ATOM     10  O   LIG A   1      -5.217   5.290 119.192  0.00  0.00    -0.506 OA
ATOM     11  H   LIG A   1      -5.792   5.975 118.818  0.00  0.00    +0.292 HD
ENDBRANCH   2  10
BRANCH   5  12
ATOM     12  O   LIG A   1      -9.187   3.183 120.867  0.00  0.00    -0.506 OA
ATOM     13  H   LIG A   1      -9.724   3.923 120.546  0.00  0.00    +0.292 HD
ENDBRANCH   5  12
ENDBRANCH   1   6
BRANCH   1  14
ATOM     14  C   LIG A   1      -8.126   1.172 123.238  0.00  0.00    +0.010 C 
BRANCH  14  15
ATOM     15  C   LIG A   1      -8.067   0.463 124.598  0.00  0.00    +0.039 C 
BRANCH  15  16
ATOM     16  C   LIG A   1      -7.506  -0.939 124.504  0.00  0.00    -0.002 A 
ATOM     17  C   LIG A   1      -6.182  -1.128 124.068  0.00  0.00    +0.056 A 
ATOM     18  C   LIG A   1      -5.700  -2.417 123.965  0.00  0.00    +0.167 A 
ATOM     19  O   LIG A   1      -4.454  -2.770 123.548  0.00  0.00    -0.453 OA
ATOM     20  C   LIG A   1      -4.542  -4.209 123.616  0.00  0.00    +0.466 C 
ATOM     21  O   LIG A   1      -5.814  -4.683 124.106  0.00  0.00    -0.453 OA
ATOM     22  C   LIG A   1      -6.474  -3.508 124.285  0.00  0.00    +0.170 A 
ATOM     23  C   LIG A   1      -7.771  -3.371 124.726  0.00  0.00    +0.095 A 
ATOM     24  C   LIG A   1      -8.284  -2.075 124.830  0.00  0.00    +0.124 A 
BRANCH  24  25
ATOM     25  O   LIG A   1      -9.569  -1.886 125.259  0.00  0.00    -0.506 OA
ATOM     26  H   LIG A   1     -10.172  -2.081 124.523  0.00  0.00    +0.292 HD
ENDBRANCH  24  25
ENDBRANCH  15  16
ENDBRANCH  14  15
ENDBRANCH   1  14
TORSDOF 7
ENDMDL
MODEL 3
REMARK VINA RESULT:      -7.3      6.901      8.932
REMARK  Name = NuBBE_2082
REMARK  9 active torsions:
REMARK  status: ('A' for Active; 'I' for Inactive)
REMARK    1  A    between atoms: O_1  and  C_2
REMARK    2  A    between atoms: C_3  and  C_4
REMARK    3  A    between atoms: C_5  and  O_6
REMARK    4  A    between atoms: C_7  and  C_8
REMARK    5  A    between atoms: C_8  and  C_9
REMARK    6  A    between atoms: C_9  and  C_10
REMARK    7  A    between atoms: C_10  and  C_11
REMARK    8  A    between atoms: C_19  and  O_20
REMARK    9  A    between atoms: C_22  and  C_23
REMARK                            x       y       z     vdW  Elec       q    Type
REMARK                         _______ _______ _______ _____ _____    ______ ____
ROOT
ATOM      1  C   LIG A   1      -5.428   0.456 127.090  0.00  0.00    +0.039 C 
ENDROOT
BRANCH   1   6
ATOM      2  C   LIG A   1      -7.115  -2.813 124.816  0.00  0.00    +0.126 A 
ATOM      3  C   LIG A   1      -7.895  -2.219 125.825  0.00  0.00    +0.033 A 
ATOM      4  C   LIG A   1      -9.292  -2.709 126.099  0.00  0.00    +0.051 C 
ATOM      5  C   LIG A   1      -7.341  -1.143 126.544  0.00  0.00    +0.126 A 
ATOM      6  C   LIG A   1      -6.035  -0.689 126.304  0.00  0.00    -0.005 A 
ATOM      7  C   LIG A   1      -5.281  -1.320 125.303  0.00  0.00    +0.014 A 
ATOM      8  C   LIG A   1      -5.803  -2.389 124.555  0.00  0.00    -0.008 A 
ATOM      9  C   LIG A   1      -4.944  -3.027 123.499  0.00  0.00    +0.048 C 
BRANCH   2  10
ATOM     10  O   LIG A   1      -7.688  -3.825 124.090  0.00  0.00    -0.506 OA
ATOM     11  H   LIG A   1      -8.645  -3.832 124.238  0.00  0.00    +0.292 HD
ENDBRANCH   2  10
BRANCH   5  12
ATOM     12  O   LIG A   1      -8.055  -0.486 127.514  0.00  0.00    -0.506 OA
ATOM     13  H   LIG A   1      -8.974  -0.793 127.501  0.00  0.00    +0.292 HD
ENDBRANCH   5  12
ENDBRANCH   1   6
BRANCH   1  14
ATOM     14  C   LIG A   1      -4.893   1.583 126.197  0.00  0.00    +0.010 C 
BRANCH  14  15
ATOM     15  C   LIG A   1      -5.834   2.797 126.211  0.00  0.00    +0.039 C 
BRANCH  15  16
ATOM     16  C   LIG A   1      -6.701   2.880 124.973  0.00  0.00    -0.002 A 
ATOM     17  C   LIG A   1      -6.137   3.309 123.759  0.00  0.00    +0.056 A 
ATOM     18  C   LIG A   1      -6.951   3.403 122.649  0.00  0.00    +0.167 A 
ATOM     19  O   LIG A   1      -6.567   3.813 121.411  0.00  0.00    -0.453 OA
ATOM     20  C   LIG A   1      -7.819   3.736 120.698  0.00  0.00    +0.466 C 
ATOM     21  O   LIG A   1      -8.911   3.248 121.506  0.00  0.00    -0.453 OA
ATOM     22  C   LIG A   1      -8.287   3.080 122.703  0.00  0.00    +0.170 A 
ATOM     23  C   LIG A   1      -8.881   2.644 123.867  0.00  0.00    +0.095 A 
ATOM     24  C   LIG A   1      -8.076   2.550 125.005  0.00  0.00    +0.124 A 
BRANCH  24  25
ATOM     25  O   LIG A   1      -8.620   2.127 126.187  0.00  0.00    -0.506 OA
ATOM     26  H   LIG A   1      -8.055   2.436 126.915  0.00  0.00    +0.292 HD
ENDBRANCH  24  25
ENDBRANCH  15  16
ENDBRANCH  14  15
ENDBRANCH   1  14
TORSDOF 7
ENDMDL
MODEL 4
REMARK VINA RESULT:      -7.3      2.266      8.071
REMARK  Name = NuBBE_2082
REMARK  9 active torsions:
REMARK  status: ('A' for Active; 'I' for Inactive)
REMARK    1  A    between atoms: O_1  and  C_2
REMARK    2  A    between atoms: C_3  and  C_4
REMARK    3  A    between atoms: C_5  and  O_6
REMARK    4  A    between atoms: C_7  and  C_8
REMARK    5  A    between atoms: C_8  and  C_9
REMARK    6  A    between atoms: C_9  and  C_10
REMARK    7  A    between atoms: C_10  and  C_11
REMARK    8  A    between atoms: C_19  and  O_20
REMARK    9  A    between atoms: C_22  and  C_23
REMARK                            x       y       z     vdW  Elec       q    Type
REMARK                         _______ _______ _______ _____ _____    ______ ____
ROOT
ATOM      1  C   LIG A   1      -8.756   5.432 130.610  0.00  0.00    +0.039 C 
ENDROOT
BRANCH   1   6
ATOM      2  C   LIG A   1     -12.195   7.608 129.151  0.00  0.00    +0.126 A 
ATOM      3  C   LIG A   1     -11.236   7.162 128.224  0.00  0.00    +0.033 A 
ATOM      4  C   LIG A   1     -11.412   7.431 126.753  0.00  0.00    +0.051 C 
ATOM      5  C   LIG A   1     -10.131   6.437 128.710  0.00  0.00    +0.126 A 
ATOM      6  C   LIG A   1      -9.954   6.194 130.080  0.00  0.00    -0.005 A 
ATOM      7  C   LIG A   1     -10.923   6.673 130.976  0.00  0.00    +0.014 A 
ATOM      8  C   LIG A   1     -12.045   7.389 130.529  0.00  0.00    -0.008 A 
ATOM      9  C   LIG A   1     -13.045   7.880 131.538  0.00  0.00    +0.048 C 
BRANCH   2  10
ATOM     10  O   LIG A   1     -13.292   8.267 128.656  0.00  0.00    -0.506 OA
ATOM     11  H   LIG A   1     -14.100   7.851 128.990  0.00  0.00    +0.292 HD
ENDBRANCH   2  10
BRANCH   5  12
ATOM     12  O   LIG A   1      -9.176   5.934 127.864  0.00  0.00    -0.506 OA
ATOM     13  H   LIG A   1      -8.458   6.576 127.771  0.00  0.00    +0.292 HD
ENDBRANCH   5  12
ENDBRANCH   1   6
BRANCH   1  14
ATOM     14  C   LIG A   1      -7.931   6.233 131.624  0.00  0.00    +0.010 C 
BRANCH  14  15
ATOM     15  C   LIG A   1      -6.943   7.174 130.919  0.00  0.00    +0.039 C 
BRANCH  15  16
ATOM     16  C   LIG A   1      -5.500   6.758 131.108  0.00  0.00    -0.002 A 
ATOM     17  C   LIG A   1      -5.199   5.655 131.928  0.00  0.00    +0.056 A 
ATOM     18  C   LIG A   1      -3.876   5.309 132.107  0.00  0.00    +0.167 A 
ATOM     19  O   LIG A   1      -3.417   4.284 132.875  0.00  0.00    -0.453 OA
ATOM     20  C   LIG A   1      -1.992   4.432 132.704  0.00  0.00    +0.466 C 
ATOM     21  O   LIG A   1      -1.630   5.508 131.813  0.00  0.00    -0.453 OA
ATOM     22  C   LIG A   1      -2.856   6.006 131.501  0.00  0.00    +0.170 A 
ATOM     23  C   LIG A   1      -3.104   7.084 130.681  0.00  0.00    +0.095 A 
ATOM     24  C   LIG A   1      -4.437   7.458 130.492  0.00  0.00    +0.124 A 
BRANCH  24  25
ATOM     25  O   LIG A   1      -4.735   8.526 129.691  0.00  0.00    -0.506 OA
ATOM     26  H   LIG A   1      -5.693   8.681 129.727  0.00  0.00    +0.292 HD
ENDBRANCH  24  25
ENDBRANCH  15  16
ENDBRANCH  14  15
ENDBRANCH   1  14
TORSDOF 7
ENDMDL
MODEL 5
REMARK VINA RESULT:      -7.2      9.266     11.417
REMARK  Name = NuBBE_2082
REMARK  9 active torsions:
REMARK  status: ('A' for Active; 'I' for Inactive)
REMARK    1  A    between atoms: O_1  and  C_2
REMARK    2  A    between atoms: C_3  and  C_4
REMARK    3  A    between atoms: C_5  and  O_6
REMARK    4  A    between atoms: C_7  and  C_8
REMARK    5  A    between atoms: C_8  and  C_9
REMARK    6  A    between atoms: C_9  and  C_10
REMARK    7  A    between atoms: C_10  and  C_11
REMARK    8  A    between atoms: C_19  and  O_20
REMARK    9  A    between atoms: C_22  and  C_23
REMARK                            x       y       z     vdW  Elec       q    Type
REMARK                         _______ _______ _______ _____ _____    ______ ____
ROOT
ATOM      1  C   LIG A   1      -9.396  -3.442 126.695  0.00  0.00    +0.039 C 
ENDROOT
BRANCH   1   6
ATOM      2  C   LIG A   1      -6.901  -1.803 123.568  0.00  0.00    +0.126 A 
ATOM      3  C   LIG A   1      -8.030  -1.074 123.983  0.00  0.00    +0.033 A 
ATOM      4  C   LIG A   1      -8.355   0.254 123.352  0.00  0.00    +0.051 C 
ATOM      5  C   LIG A   1      -8.823  -1.609 125.015  0.00  0.00    +0.126 A 
ATOM      6  C   LIG A   1      -8.534  -2.853 125.597  0.00  0.00    -0.005 A 
ATOM      7  C   LIG A   1      -7.409  -3.559 125.144  0.00  0.00    +0.014 A 
ATOM      8  C   LIG A   1      -6.587  -3.053 124.124  0.00  0.00    -0.008 A 
ATOM      9  C   LIG A   1      -5.399  -3.859 123.678  0.00  0.00    +0.048 C 
BRANCH   2  10
ATOM     10  O   LIG A   1      -6.110  -1.243 122.598  0.00  0.00    -0.506 OA
ATOM     11  H   LIG A   1      -6.665  -0.890 121.888  0.00  0.00    +0.292 HD
ENDBRANCH   2  10
BRANCH   5  12
ATOM     12  O   LIG A   1      -9.916  -0.938 125.501  0.00  0.00    -0.506 OA
ATOM     13  H   LIG A   1      -9.801   0.012 125.355  0.00  0.00    +0.292 HD
ENDBRANCH   5  12
ENDBRANCH   1   6
BRANCH   1  14
ATOM     14  C   LIG A   1      -8.602  -3.807 127.956  0.00  0.00    +0.010 C 
BRANCH  14  15
ATOM     15  C   LIG A   1      -7.940  -2.567 128.574  0.00  0.00    +0.039 C 
BRANCH  15  16
ATOM     16  C   LIG A   1      -6.636  -2.886 129.274  0.00  0.00    -0.002 A 
ATOM     17  C   LIG A   1      -6.661  -3.476 130.551  0.00  0.00    +0.056 A 
ATOM     18  C   LIG A   1      -5.462  -3.734 131.182  0.00  0.00    +0.167 A 
ATOM     19  O   LIG A   1      -5.313  -4.285 132.416  0.00  0.00    -0.453 OA
ATOM     20  C   LIG A   1      -3.876  -4.277 132.547  0.00  0.00    +0.466 C 
ATOM     21  O   LIG A   1      -3.197  -3.764 131.381  0.00  0.00    -0.453 OA
ATOM     22  C   LIG A   1      -4.255  -3.439 130.591  0.00  0.00    +0.170 A 
ATOM     23  C   LIG A   1      -4.181  -2.871 129.339  0.00  0.00    +0.095 A 
ATOM     24  C   LIG A   1      -5.385  -2.593 128.685  0.00  0.00    +0.124 A 
BRANCH  24  25
ATOM     25  O   LIG A   1      -5.365  -2.024 127.440  0.00  0.00    -0.506 OA
ATOM     26  H   LIG A   1      -4.533  -1.532 127.339  0.00  0.00    +0.292 HD
ENDBRANCH  24  25
ENDBRANCH  15  16
ENDBRANCH  14  15
ENDBRANCH   1  14
TORSDOF 7
ENDMDL
MODEL 6
REMARK VINA RESULT:      -7.2      1.709      2.192
REMARK  Name = NuBBE_2082
REMARK  9 active torsions:
REMARK  status: ('A' for Active; 'I' for Inactive)
REMARK    1  A    between atoms: O_1  and  C_2
REMARK    2  A    between atoms: C_3  and  C_4
REMARK    3  A    between atoms: C_5  and  O_6
REMARK    4  A    between atoms: C_7  and  C_8
REMARK    5  A    between atoms: C_8  and  C_9
REMARK    6  A    between atoms: C_9  and  C_10
REMARK    7  A    between atoms: C_10  and  C_11
REMARK    8  A    between atoms: C_19  and  O_20
REMARK    9  A    between atoms: C_22  and  C_23
REMARK                            x       y       z     vdW  Elec       q    Type
REMARK                         _______ _______ _______ _____ _____    ______ ____
ROOT
ATOM      1  C   LIG A   1      -6.548   7.091 131.118  0.00  0.00    +0.039 C 
ENDROOT
BRANCH   1   6
ATOM      2  C   LIG A   1      -2.397   6.084 131.783  0.00  0.00    +0.126 A 
ATOM      3  C   LIG A   1      -2.814   6.399 130.478  0.00  0.00    +0.033 A 
ATOM      4  C   LIG A   1      -1.829   6.392 129.338  0.00  0.00    +0.051 C 
ATOM      5  C   LIG A   1      -4.164   6.744 130.277  0.00  0.00    +0.126 A 
ATOM      6  C   LIG A   1      -5.090   6.739 131.331  0.00  0.00    -0.005 A 
ATOM      7  C   LIG A   1      -4.640   6.401 132.617  0.00  0.00    +0.014 A 
ATOM      8  C   LIG A   1      -3.298   6.063 132.859  0.00  0.00    -0.008 A 
ATOM      9  C   LIG A   1      -2.877   5.704 134.257  0.00  0.00    +0.048 C 
BRANCH   2  10
ATOM     10  O   LIG A   1      -1.068   5.801 131.969  0.00  0.00    -0.506 OA
ATOM     11  H   LIG A   1      -0.532   6.567 131.713  0.00  0.00    +0.292 HD
ENDBRANCH   2  10
BRANCH   5  12
ATOM     12  O   LIG A   1      -4.637   7.103 129.041  0.00  0.00    -0.506 OA
ATOM     13  H   LIG A   1      -5.347   6.497 128.780  0.00  0.00    +0.292 HD
ENDBRANCH   5  12
ENDBRANCH   1   6
BRANCH   1  14
ATOM     14  C   LIG A   1      -7.503   6.256 131.981  0.00  0.00    +0.010 C 
BRANCH  14  15
ATOM     15  C   LIG A   1      -8.506   5.483 131.112  0.00  0.00    +0.039 C 
BRANCH  15  16
ATOM     16  C   LIG A   1      -9.775   6.264 130.846  0.00  0.00    -0.002 A 
ATOM     17  C   LIG A   1      -9.864   7.072 129.698  0.00  0.00    +0.056 A 
ATOM     18  C   LIG A   1     -11.019   7.796 129.489  0.00  0.00    +0.167 A 
ATOM     19  O   LIG A   1     -11.258   8.631 128.442  0.00  0.00    -0.453 OA
ATOM     20  C   LIG A   1     -12.578   9.112 128.773  0.00  0.00    +0.466 C 
ATOM     21  O   LIG A   1     -13.115   8.530 129.979  0.00  0.00    -0.453 OA
ATOM     22  C   LIG A   1     -12.079   7.737 130.364  0.00  0.00    +0.170 A 
ATOM     23  C   LIG A   1     -12.042   6.952 131.494  0.00  0.00    +0.095 A 
ATOM     24  C   LIG A   1     -10.878   6.216 131.731  0.00  0.00    +0.124 A 
BRANCH  24  25
ATOM     25  O   LIG A   1     -10.789   5.425 132.843  0.00  0.00    -0.506 OA
ATOM     26  H   LIG A   1     -11.638   5.460 133.315  0.00  0.00    +0.292 HD
ENDBRANCH  24  25
ENDBRANCH  15  16
ENDBRANCH  14  15
ENDBRANCH   1  14
TORSDOF 7
ENDMDL
MODEL 7
REMARK VINA RESULT:      -7.0      3.978      7.832
REMARK  Name = NuBBE_2082
REMARK  9 active torsions:
REMARK  status: ('A' for Active; 'I' for Inactive)
REMARK    1  A    between atoms: O_1  and  C_2
REMARK    2  A    between atoms: C_3  and  C_4
REMARK    3  A    between atoms: C_5  and  O_6
REMARK    4  A    between atoms: C_7  and  C_8
REMARK    5  A    between atoms: C_8  and  C_9
REMARK    6  A    between atoms: C_9  and  C_10
REMARK    7  A    between atoms: C_10  and  C_11
REMARK    8  A    between atoms: C_19  and  O_20
REMARK    9  A    between atoms: C_22  and  C_23
REMARK                            x       y       z     vdW  Elec       q    Type
REMARK                         _______ _______ _______ _____ _____    ______ ____
ROOT
ATOM      1  C   LIG A   1      -9.385   4.716 130.541  0.00  0.00    +0.039 C 
ENDROOT
BRANCH   1   6
ATOM      2  C   LIG A   1     -11.961   7.977 129.347  0.00  0.00    +0.126 A 
ATOM      3  C   LIG A   1     -12.113   7.434 130.635  0.00  0.00    +0.033 A 
ATOM      4  C   LIG A   1     -13.148   7.985 131.580  0.00  0.00    +0.051 C 
ATOM      5  C   LIG A   1     -11.255   6.386 131.019  0.00  0.00    +0.126 A 
ATOM      6  C   LIG A   1     -10.298   5.857 130.140  0.00  0.00    -0.005 A 
ATOM      7  C   LIG A   1     -10.189   6.413 128.856  0.00  0.00    +0.014 A 
ATOM      8  C   LIG A   1     -11.019   7.467 128.440  0.00  0.00    -0.008 A 
ATOM      9  C   LIG A   1     -10.858   8.017 127.050  0.00  0.00    +0.048 C 
BRANCH   2  10
ATOM     10  O   LIG A   1     -12.769   9.031 129.008  0.00  0.00    -0.506 OA
ATOM     11  H   LIG A   1     -12.892   9.608 129.776  0.00  0.00    +0.292 HD
ENDBRANCH   2  10
BRANCH   5  12
ATOM     12  O   LIG A   1     -11.315   5.833 132.273  0.00  0.00    -0.506 OA
ATOM     13  H   LIG A   1     -12.140   6.100 132.703  0.00  0.00    +0.292 HD
ENDBRANCH   5  12
ENDBRANCH   1   6
BRANCH   1  14
ATOM     14  C   LIG A   1     -10.004   3.334 130.299  0.00  0.00    +0.010 C 
BRANCH  14  15
ATOM     15  C   LIG A   1     -10.017   2.497 131.586  0.00  0.00    +0.039 C 
BRANCH  15  16
ATOM     16  C   LIG A   1      -8.777   2.700 132.430  0.00  0.00    -0.002 A 
ATOM     17  C   LIG A   1      -7.565   2.105 132.034  0.00  0.00    +0.056 A 
ATOM     18  C   LIG A   1      -6.453   2.280 132.831  0.00  0.00    +0.167 A 
ATOM     19  O   LIG A   1      -5.216   1.764 132.600  0.00  0.00    -0.453 OA
ATOM     20  C   LIG A   1      -4.498   2.245 133.755  0.00  0.00    +0.466 C 
ATOM     21  O   LIG A   1      -5.302   3.067 134.628  0.00  0.00    -0.453 OA
ATOM     22  C   LIG A   1      -6.501   3.024 133.987  0.00  0.00    +0.170 A 
ATOM     23  C   LIG A   1      -7.662   3.634 134.408  0.00  0.00    +0.095 A 
ATOM     24  C   LIG A   1      -8.803   3.462 133.620  0.00  0.00    +0.124 A 
BRANCH  24  25
ATOM     25  O   LIG A   1      -9.982   4.043 133.999  0.00  0.00    -0.506 OA
ATOM     26  H   LIG A   1     -10.335   4.545 133.245  0.00  0.00    +0.292 HD
ENDBRANCH  24  25
ENDBRANCH  15  16
ENDBRANCH  14  15
ENDBRANCH   1  14
TORSDOF 7
ENDMDL
MODEL 8
REMARK VINA RESULT:      -6.9      5.643      9.215
REMARK  Name = NuBBE_2082
REMARK  9 active torsions:
REMARK  status: ('A' for Active; 'I' for Inactive)
REMARK    1  A    between atoms: O_1  and  C_2
REMARK    2  A    between atoms: C_3  and  C_4
REMARK    3  A    between atoms: C_5  and  O_6
REMARK    4  A    between atoms: C_7  and  C_8
REMARK    5  A    between atoms: C_8  and  C_9
REMARK    6  A    between atoms: C_9  and  C_10
REMARK    7  A    between atoms: C_10  and  C_11
REMARK    8  A    between atoms: C_19  and  O_20
REMARK    9  A    between atoms: C_22  and  C_23
REMARK                            x       y       z     vdW  Elec       q    Type
REMARK                         _______ _______ _______ _____ _____    ______ ____
ROOT
ATOM      1  C   LIG A   1      -5.641   0.497 126.039  0.00  0.00    +0.039 C 
ENDROOT
BRANCH   1   6
ATOM      2  C   LIG A   1      -8.885  -2.237 125.204  0.00  0.00    +0.126 A 
ATOM      3  C   LIG A   1      -8.216  -2.339 126.437  0.00  0.00    +0.033 A 
ATOM      4  C   LIG A   1      -8.630  -3.377 127.447  0.00  0.00    +0.051 C 
ATOM      5  C   LIG A   1      -7.174  -1.431 126.705  0.00  0.00    +0.126 A 
ATOM      6  C   LIG A   1      -6.774  -0.471 125.764  0.00  0.00    -0.005 A 
ATOM      7  C   LIG A   1      -7.453  -0.411 124.537  0.00  0.00    +0.014 A 
ATOM      8  C   LIG A   1      -8.505  -1.293 124.238  0.00  0.00    -0.008 A 
ATOM      9  C   LIG A   1      -9.190  -1.184 122.904  0.00  0.00    +0.048 C 
BRANCH   2  10
ATOM     10  O   LIG A   1      -9.931  -3.095 124.981  0.00  0.00    -0.506 OA
ATOM     11  H   LIG A   1     -10.631  -2.636 124.494  0.00  0.00    +0.292 HD
ENDBRANCH   2  10
BRANCH   5  12
ATOM     12  O   LIG A   1      -6.503  -1.442 127.901  0.00  0.00    -0.506 OA
ATOM     13  H   LIG A   1      -6.636  -0.595 128.352  0.00  0.00    +0.292 HD
ENDBRANCH   5  12
ENDBRANCH   1   6
BRANCH   1  14
ATOM     14  C   LIG A   1      -6.110   1.949 126.192  0.00  0.00    +0.010 C 
BRANCH  14  15
ATOM     15  C   LIG A   1      -5.192   2.914 125.428  0.00  0.00    +0.039 C 
BRANCH  15  16
ATOM     16  C   LIG A   1      -4.317   3.741 126.346  0.00  0.00    -0.002 A 
ATOM     17  C   LIG A   1      -4.793   4.972 126.832  0.00  0.00    +0.056 A 
ATOM     18  C   LIG A   1      -3.970   5.723 127.645  0.00  0.00    +0.167 A 
ATOM     19  O   LIG A   1      -4.271   6.935 128.184  0.00  0.00    -0.453 OA
ATOM     20  C   LIG A   1      -3.048   7.231 128.891  0.00  0.00    +0.466 C 
ATOM     21  O   LIG A   1      -2.062   6.181 128.796  0.00  0.00    -0.453 OA
ATOM     22  C   LIG A   1      -2.711   5.292 127.995  0.00  0.00    +0.170 A 
ATOM     23  C   LIG A   1      -2.208   4.090 127.553  0.00  0.00    +0.095 A 
ATOM     24  C   LIG A   1      -3.021   3.317 126.720  0.00  0.00    +0.124 A 
BRANCH  24  25
ATOM     25  O   LIG A   1      -2.565   2.116 126.250  0.00  0.00    -0.506 OA
ATOM     26  H   LIG A   1      -2.381   1.537 127.008  0.00  0.00    +0.292 HD
ENDBRANCH  24  25
ENDBRANCH  15  16
ENDBRANCH  14  15
ENDBRANCH   1  14
TORSDOF 7
ENDMDL
MODEL 9
REMARK VINA RESULT:      -6.9      5.645      9.159
REMARK  Name = NuBBE_2082
REMARK  9 active torsions:
REMARK  status: ('A' for Active; 'I' for Inactive)
REMARK    1  A    between atoms: O_1  and  C_2
REMARK    2  A    between atoms: C_3  and  C_4
REMARK    3  A    between atoms: C_5  and  O_6
REMARK    4  A    between atoms: C_7  and  C_8
REMARK    5  A    between atoms: C_8  and  C_9
REMARK    6  A    between atoms: C_9  and  C_10
REMARK    7  A    between atoms: C_10  and  C_11
REMARK    8  A    between atoms: C_19  and  O_20
REMARK    9  A    between atoms: C_22  and  C_23
REMARK                            x       y       z     vdW  Elec       q    Type
REMARK                         _______ _______ _______ _____ _____    ______ ____
ROOT
ATOM      1  C   LIG A   1      -5.633   0.483 125.993  0.00  0.00    +0.039 C 
ENDROOT
BRANCH   1   6
ATOM      2  C   LIG A   1      -8.871  -2.240 125.099  0.00  0.00    +0.126 A 
ATOM      3  C   LIG A   1      -8.496  -1.295 124.127  0.00  0.00    +0.033 A 
ATOM      4  C   LIG A   1      -9.206  -1.241 122.801  0.00  0.00    +0.051 C 
ATOM      5  C   LIG A   1      -7.428  -0.427 124.423  0.00  0.00    +0.126 A 
ATOM      6  C   LIG A   1      -6.771  -0.462 125.662  0.00  0.00    -0.005 A 
ATOM      7  C   LIG A   1      -7.186  -1.407 126.614  0.00  0.00    +0.014 A 
ATOM      8  C   LIG A   1      -8.241  -2.297 126.351  0.00  0.00    -0.008 A 
ATOM      9  C   LIG A   1      -8.643  -3.283 127.413  0.00  0.00    +0.048 C 
BRANCH   2  10
ATOM     10  O   LIG A   1      -9.879  -3.112 124.775  0.00  0.00    -0.506 OA
ATOM     11  H   LIG A   1      -9.687  -3.985 125.148  0.00  0.00    +0.292 HD
ENDBRANCH   2  10
BRANCH   5  12
ATOM     12  O   LIG A   1      -6.978   0.493 123.511  0.00  0.00    -0.506 OA
ATOM     13  H   LIG A   1      -6.056   0.300 123.287  0.00  0.00    +0.292 HD
ENDBRANCH   5  12
ENDBRANCH   1   6
BRANCH   1  14
ATOM     14  C   LIG A   1      -6.095   1.928 126.218  0.00  0.00    +0.010 C 
BRANCH  14  15
ATOM     15  C   LIG A   1      -5.212   2.920 125.447  0.00  0.00    +0.039 C 
BRANCH  15  16
ATOM     16  C   LIG A   1      -4.326   3.744 126.355  0.00  0.00    -0.002 A 
ATOM     17  C   LIG A   1      -4.793   4.976 126.847  0.00  0.00    +0.056 A 
ATOM     18  C   LIG A   1      -3.959   5.724 127.652  0.00  0.00    +0.167 A 
ATOM     19  O   LIG A   1      -4.251   6.936 128.196  0.00  0.00    -0.453 OA
ATOM     20  C   LIG A   1      -3.020   7.229 128.889  0.00  0.00    +0.466 C 
ATOM     21  O   LIG A   1      -2.037   6.177 128.781  0.00  0.00    -0.453 OA
ATOM     22  C   LIG A   1      -2.697   5.291 127.987  0.00  0.00    +0.170 A 
ATOM     23  C   LIG A   1      -2.201   4.087 127.538  0.00  0.00    +0.095 A 
ATOM     24  C   LIG A   1      -3.026   3.317 126.714  0.00  0.00    +0.124 A 
BRANCH  24  25
ATOM     25  O   LIG A   1      -2.578   2.116 126.237  0.00  0.00    -0.506 OA
ATOM     26  H   LIG A   1      -2.386   1.536 126.992  0.00  0.00    +0.292 HD
ENDBRANCH  24  25
ENDBRANCH  15  16
ENDBRANCH  14  15
ENDBRANCH   1  14
TORSDOF 7
ENDMDL
