MODEL 1
REMARK VINA RESULT:      -8.0      0.000      0.000
REMARK  Name = NuBBE_216
REMARK  0 active torsions:
REMARK  status: ('A' for Active; 'I' for Inactive)
REMARK                            x       y       z     vdW  Elec       q    Type
REMARK                         _______ _______ _______ _____ _____    ______ ____
ROOT
ATOM      1  O   LIG A   1      -9.264   2.956 120.898  0.00  0.00    -0.285 OA
ATOM      2  C   LIG A   1      -8.346   3.087 121.705  0.00  0.00    +0.212 C 
ATOM      3  C   LIG A   1      -7.078   3.778 121.343  0.00  0.00    +0.032 A 
ATOM      4  C   LIG A   1      -5.967   3.960 122.276  0.00  0.00    -0.003 A 
ATOM      5  C   LIG A   1      -4.887   4.637 121.683  0.00  0.00    +0.009 A 
ATOM      6  C   LIG A   1      -4.917   5.074 120.310  0.00  0.00    +0.001 A 
ATOM      7  C   LIG A   1      -6.012   4.865 119.472  0.00  0.00    +0.001 A 
ATOM      8  C   LIG A   1      -7.100   4.212 119.995  0.00  0.00    +0.012 A 
ATOM      9  C   LIG A   1      -6.077   3.416 123.748  0.00  0.00    +0.038 A 
ATOM     10  C   LIG A   1      -7.413   2.761 123.916  0.00  0.00    +0.023 A 
ATOM     11  C   LIG A   1      -8.495   2.576 123.041  0.00  0.00    +0.119 A 
ATOM     12  N   LIG A   1      -9.714   1.969 123.305  0.00  0.00    -0.251 NA
ATOM     13  C   LIG A   1      -9.883   1.483 124.567  0.00  0.00    +0.112 A 
ATOM     14  C   LIG A   1      -8.980   1.582 125.482  0.00  0.00    +0.028 A 
ATOM     15  C   LIG A   1      -7.803   2.165 125.135  0.00  0.00    -0.010 A 
ATOM     16  C   LIG A   1      -6.987   2.221 126.182  0.00  0.00    +0.058 A 
ATOM     17  C   LIG A   1      -5.785   2.783 126.084  0.00  0.00    +0.167 A 
ATOM     18  C   LIG A   1      -5.250   3.399 124.974  0.00  0.00    +0.175 A 
ATOM     19  O   LIG A   1      -4.018   3.837 125.489  0.00  0.00    -0.452 OA
ATOM     20  C   LIG A   1      -3.981   3.342 126.937  0.00  0.00    +0.466 C 
ATOM     21  O   LIG A   1      -5.164   2.695 127.272  0.00  0.00    -0.453 OA
ENDROOT
TORSDOF 0
ENDMDL
MODEL 2
REMARK VINA RESULT:      -8.0      2.155      4.118
REMARK  Name = NuBBE_216
REMARK  0 active torsions:
REMARK  status: ('A' for Active; 'I' for Inactive)
REMARK                            x       y       z     vdW  Elec       q    Type
REMARK                         _______ _______ _______ _____ _____    ______ ____
ROOT
ATOM      1  O   LIG A   1      -3.968   5.308 121.991  0.00  0.00    -0.285 OA
ATOM      2  C   LIG A   1      -5.035   4.701 122.049  0.00  0.00    +0.212 C 
ATOM      3  C   LIG A   1      -5.935   4.584 120.870  0.00  0.00    +0.032 A 
ATOM      4  C   LIG A   1      -7.207   3.864 120.898  0.00  0.00    -0.003 A 
ATOM      5  C   LIG A   1      -7.865   3.911 119.656  0.00  0.00    +0.009 A 
ATOM      6  C   LIG A   1      -7.312   4.604 118.520  0.00  0.00    +0.001 A 
ATOM      7  C   LIG A   1      -6.090   5.274 118.564  0.00  0.00    +0.001 A 
ATOM      8  C   LIG A   1      -5.397   5.262 119.748  0.00  0.00    +0.012 A 
ATOM      9  C   LIG A   1      -7.686   3.161 122.220  0.00  0.00    +0.038 A 
ATOM     10  C   LIG A   1      -6.655   3.390 123.282  0.00  0.00    +0.023 A 
ATOM     11  C   LIG A   1      -5.428   4.071 123.281  0.00  0.00    +0.119 A 
ATOM     12  N   LIG A   1      -4.524   4.206 124.324  0.00  0.00    -0.251 NA
ATOM     13  C   LIG A   1      -4.871   3.611 125.501  0.00  0.00    +0.112 A 
ATOM     14  C   LIG A   1      -5.964   2.946 125.653  0.00  0.00    +0.028 A 
ATOM     15  C   LIG A   1      -6.810   2.885 124.592  0.00  0.00    -0.010 A 
ATOM     16  C   LIG A   1      -7.874   2.148 124.888  0.00  0.00    +0.058 A 
ATOM     17  C   LIG A   1      -8.825   1.922 123.984  0.00  0.00    +0.167 A 
ATOM     18  C   LIG A   1      -8.833   2.344 122.673  0.00  0.00    +0.175 A 
ATOM     19  O   LIG A   1     -10.030   1.762 122.221  0.00  0.00    -0.452 OA
ATOM     20  C   LIG A   1     -10.625   1.053 123.441  0.00  0.00    +0.466 C 
ATOM     21  O   LIG A   1      -9.785   1.166 124.541  0.00  0.00    -0.453 OA
ENDROOT
TORSDOF 0
ENDMDL
MODEL 3
REMARK VINA RESULT:      -7.5      1.494      4.950
REMARK  Name = NuBBE_216
REMARK  0 active torsions:
REMARK  status: ('A' for Active; 'I' for Inactive)
REMARK                            x       y       z     vdW  Elec       q    Type
REMARK                         _______ _______ _______ _____ _____    ______ ____
ROOT
ATOM      1  O   LIG A   1      -7.794   1.666 127.741  0.00  0.00    -0.285 OA
ATOM      2  C   LIG A   1      -7.295   2.166 126.735  0.00  0.00    +0.212 C 
ATOM      3  C   LIG A   1      -5.939   2.779 126.755  0.00  0.00    +0.032 A 
ATOM      4  C   LIG A   1      -5.308   3.376 125.579  0.00  0.00    -0.003 A 
ATOM      5  C   LIG A   1      -4.032   3.889 125.870  0.00  0.00    +0.009 A 
ATOM      6  C   LIG A   1      -3.458   3.816 127.190  0.00  0.00    +0.001 A 
ATOM      7  C   LIG A   1      -4.118   3.232 128.271  0.00  0.00    +0.001 A 
ATOM      8  C   LIG A   1      -5.367   2.710 128.050  0.00  0.00    +0.012 A 
ATOM      9  C   LIG A   1      -6.066   3.391 124.201  0.00  0.00    +0.038 A 
ATOM     10  C   LIG A   1      -7.400   2.735 124.383  0.00  0.00    +0.023 A 
ATOM     11  C   LIG A   1      -8.026   2.152 125.496  0.00  0.00    +0.119 A 
ATOM     12  N   LIG A   1      -9.270   1.542 125.555  0.00  0.00    -0.251 NA
ATOM     13  C   LIG A   1      -9.980   1.509 124.391  0.00  0.00    +0.112 A 
ATOM     14  C   LIG A   1      -9.534   2.000 123.286  0.00  0.00    +0.028 A 
ATOM     15  C   LIG A   1      -8.319   2.606 123.318  0.00  0.00    -0.010 A 
ATOM     16  C   LIG A   1      -7.981   3.035 122.107  0.00  0.00    +0.058 A 
ATOM     17  C   LIG A   1      -6.812   3.633 121.893  0.00  0.00    +0.167 A 
ATOM     18  C   LIG A   1      -5.812   3.845 122.816  0.00  0.00    +0.175 A 
ATOM     19  O   LIG A   1      -4.834   4.445 122.006  0.00  0.00    -0.452 OA
ATOM     20  C   LIG A   1      -5.463   4.547 120.614  0.00  0.00    +0.466 C 
ATOM     21  O   LIG A   1      -6.729   3.977 120.597  0.00  0.00    -0.453 OA
ENDROOT
TORSDOF 0
ENDMDL
MODEL 4
REMARK VINA RESULT:      -7.5      8.677     10.021
REMARK  Name = NuBBE_216
REMARK  0 active torsions:
REMARK  status: ('A' for Active; 'I' for Inactive)
REMARK                            x       y       z     vdW  Elec       q    Type
REMARK                         _______ _______ _______ _____ _____    ______ ____
ROOT
ATOM      1  O   LIG A   1      -4.378   4.936 134.033  0.00  0.00    -0.285 OA
ATOM      2  C   LIG A   1      -5.199   5.444 133.273  0.00  0.00    +0.212 C 
ATOM      3  C   LIG A   1      -4.786   6.352 132.168  0.00  0.00    +0.032 A 
ATOM      4  C   LIG A   1      -5.731   6.970 131.239  0.00  0.00    -0.003 A 
ATOM      5  C   LIG A   1      -5.083   7.788 130.296  0.00  0.00    +0.009 A 
ATOM      6  C   LIG A   1      -3.653   7.968 130.291  0.00  0.00    +0.001 A 
ATOM      7  C   LIG A   1      -2.809   7.348 131.211  0.00  0.00    +0.001 A 
ATOM      8  C   LIG A   1      -3.381   6.534 132.155  0.00  0.00    +0.012 A 
ATOM      9  C   LIG A   1      -7.271   6.685 131.377  0.00  0.00    +0.038 A 
ATOM     10  C   LIG A   1      -7.484   5.758 132.534  0.00  0.00    +0.023 A 
ATOM     11  C   LIG A   1      -6.598   5.150 133.436  0.00  0.00    +0.119 A 
ATOM     12  N   LIG A   1      -6.897   4.277 134.472  0.00  0.00    -0.251 NA
ATOM     13  C   LIG A   1      -8.216   3.977 134.642  0.00  0.00    +0.112 A 
ATOM     14  C   LIG A   1      -9.146   4.455 133.888  0.00  0.00    +0.028 A 
ATOM     15  C   LIG A   1      -8.773   5.326 132.915  0.00  0.00    -0.010 A 
ATOM     16  C   LIG A   1      -9.829   5.709 132.206  0.00  0.00    +0.058 A 
ATOM     17  C   LIG A   1      -9.697   6.539 131.174  0.00  0.00    +0.167 A 
ATOM     18  C   LIG A   1      -8.521   7.058 130.678  0.00  0.00    +0.175 A 
ATOM     19  O   LIG A   1      -9.004   7.792 129.581  0.00  0.00    -0.452 OA
ATOM     20  C   LIG A   1     -10.525   7.620 129.612  0.00  0.00    +0.466 C 
ATOM     21  O   LIG A   1     -10.909   6.775 130.645  0.00  0.00    -0.453 OA
ENDROOT
TORSDOF 0
ENDMDL
MODEL 5
REMARK VINA RESULT:      -7.4      3.815      5.617
REMARK  Name = NuBBE_216
REMARK  0 active torsions:
REMARK  status: ('A' for Active; 'I' for Inactive)
REMARK                            x       y       z     vdW  Elec       q    Type
REMARK                         _______ _______ _______ _____ _____    ______ ____
ROOT
ATOM      1  O   LIG A   1      -9.288   0.867 122.791  0.00  0.00    -0.285 OA
ATOM      2  C   LIG A   1      -8.973   0.462 123.907  0.00  0.00    +0.212 C 
ATOM      3  C   LIG A   1      -8.542   1.393 124.986  0.00  0.00    +0.032 A 
ATOM      4  C   LIG A   1      -8.166   0.951 126.327  0.00  0.00    -0.003 A 
ATOM      5  C   LIG A   1      -7.793   2.028 127.151  0.00  0.00    +0.009 A 
ATOM      6  C   LIG A   1      -7.792   3.389 126.680  0.00  0.00    +0.001 A 
ATOM      7  C   LIG A   1      -8.160   3.742 125.382  0.00  0.00    +0.001 A 
ATOM      8  C   LIG A   1      -8.539   2.735 124.530  0.00  0.00    +0.012 A 
ATOM      9  C   LIG A   1      -8.208  -0.578 126.693  0.00  0.00    +0.038 A 
ATOM     10  C   LIG A   1      -8.662  -1.345 125.490  0.00  0.00    +0.023 A 
ATOM     11  C   LIG A   1      -9.031  -0.946 124.196  0.00  0.00    +0.119 A 
ATOM     12  N   LIG A   1      -9.465  -1.743 123.146  0.00  0.00    -0.251 NA
ATOM     13  C   LIG A   1      -9.536  -3.081 123.397  0.00  0.00    +0.112 A 
ATOM     14  C   LIG A   1      -9.234  -3.596 124.540  0.00  0.00    +0.028 A 
ATOM     15  C   LIG A   1      -8.790  -2.751 125.506  0.00  0.00    -0.010 A 
ATOM     16  C   LIG A   1      -8.546  -3.417 126.629  0.00  0.00    +0.058 A 
ATOM     17  C   LIG A   1      -8.132  -2.786 127.725  0.00  0.00    +0.167 A 
ATOM     18  C   LIG A   1      -7.949  -1.429 127.876  0.00  0.00    +0.175 A 
ATOM     19  O   LIG A   1      -7.574  -1.367 129.228  0.00  0.00    -0.452 OA
ATOM     20  C   LIG A   1      -7.549  -2.819 129.713  0.00  0.00    +0.466 C 
ATOM     21  O   LIG A   1      -7.948  -3.687 128.704  0.00  0.00    -0.453 OA
ENDROOT
TORSDOF 0
ENDMDL
MODEL 6
REMARK VINA RESULT:      -7.4      3.496      6.245
REMARK  Name = NuBBE_216
REMARK  0 active torsions:
REMARK  status: ('A' for Active; 'I' for Inactive)
REMARK                            x       y       z     vdW  Elec       q    Type
REMARK                         _______ _______ _______ _____ _____    ______ ____
ROOT
ATOM      1  O   LIG A   1      -9.626  -2.633 124.644  0.00  0.00    -0.285 OA
ATOM      2  C   LIG A   1      -9.164  -1.717 125.320  0.00  0.00    +0.212 C 
ATOM      3  C   LIG A   1      -8.615  -1.950 126.684  0.00  0.00    +0.032 A 
ATOM      4  C   LIG A   1      -8.049  -0.889 127.515  0.00  0.00    -0.003 A 
ATOM      5  C   LIG A   1      -7.609  -1.374 128.760  0.00  0.00    +0.009 A 
ATOM      6  C   LIG A   1      -7.728  -2.762 129.128  0.00  0.00    +0.001 A 
ATOM      7  C   LIG A   1      -8.282  -3.724 128.285  0.00  0.00    +0.001 A 
ATOM      8  C   LIG A   1      -8.727  -3.314 127.054  0.00  0.00    +0.012 A 
ATOM      9  C   LIG A   1      -7.996   0.588 126.978  0.00  0.00    +0.038 A 
ATOM     10  C   LIG A   1      -8.588   0.618 125.603  0.00  0.00    +0.023 A 
ATOM     11  C   LIG A   1      -9.133  -0.383 124.784  0.00  0.00    +0.119 A 
ATOM     12  N   LIG A   1      -9.640  -0.254 123.499  0.00  0.00    -0.251 NA
ATOM     13  C   LIG A   1      -9.615   1.000 122.966  0.00  0.00    +0.112 A 
ATOM     14  C   LIG A   1      -9.141   2.019 123.597  0.00  0.00    +0.028 A 
ATOM     15  C   LIG A   1      -8.689   1.816 124.861  0.00  0.00    -0.010 A 
ATOM     16  C   LIG A   1      -8.208   2.944 125.370  0.00  0.00    +0.058 A 
ATOM     17  C   LIG A   1      -7.680   2.975 126.592  0.00  0.00    +0.167 A 
ATOM     18  C   LIG A   1      -7.513   1.907 127.445  0.00  0.00    +0.175 A 
ATOM     19  O   LIG A   1      -6.866   2.535 128.523  0.00  0.00    -0.452 OA
ATOM     20  C   LIG A   1      -6.770   4.013 128.137  0.00  0.00    +0.466 C 
ATOM     21  O   LIG A   1      -7.285   4.229 126.865  0.00  0.00    -0.453 OA
ENDROOT
TORSDOF 0
ENDMDL
MODEL 7
REMARK VINA RESULT:      -7.4      3.478      6.313
REMARK  Name = NuBBE_216
REMARK  0 active torsions:
REMARK  status: ('A' for Active; 'I' for Inactive)
REMARK                            x       y       z     vdW  Elec       q    Type
REMARK                         _______ _______ _______ _____ _____    ______ ____
ROOT
ATOM      1  O   LIG A   1      -9.412  -1.960 124.385  0.00  0.00    -0.285 OA
ATOM      2  C   LIG A   1      -8.640  -1.466 125.203  0.00  0.00    +0.212 C 
ATOM      3  C   LIG A   1      -8.388  -2.102 126.525  0.00  0.00    +0.032 A 
ATOM      4  C   LIG A   1      -7.472  -1.550 127.521  0.00  0.00    -0.003 A 
ATOM      5  C   LIG A   1      -7.421  -2.339 128.684  0.00  0.00    +0.009 A 
ATOM      6  C   LIG A   1      -8.204  -3.540 128.831  0.00  0.00    +0.001 A 
ATOM      7  C   LIG A   1      -9.063  -4.010 127.838  0.00  0.00    +0.001 A 
ATOM      8  C   LIG A   1      -9.153  -3.285 126.677  0.00  0.00    +0.012 A 
ATOM      9  C   LIG A   1      -6.690  -0.219 127.221  0.00  0.00    +0.038 A 
ATOM     10  C   LIG A   1      -7.074   0.262 125.856  0.00  0.00    +0.023 A 
ATOM     11  C   LIG A   1      -7.945  -0.248 124.881  0.00  0.00    +0.119 A 
ATOM     12  N   LIG A   1      -8.216   0.267 123.622  0.00  0.00    -0.251 NA
ATOM     13  C   LIG A   1      -7.563   1.417 123.290  0.00  0.00    +0.112 A 
ATOM     14  C   LIG A   1      -6.729   2.001 124.080  0.00  0.00    +0.028 A 
ATOM     15  C   LIG A   1      -6.540   1.449 125.306  0.00  0.00    -0.010 A 
ATOM     16  C   LIG A   1      -5.638   2.140 125.993  0.00  0.00    +0.058 A 
ATOM     17  C   LIG A   1      -5.268   1.762 127.214  0.00  0.00    +0.167 A 
ATOM     18  C   LIG A   1      -5.694   0.644 127.895  0.00  0.00    +0.175 A 
ATOM     19  O   LIG A   1      -4.929   0.748 129.069  0.00  0.00    -0.452 OA
ATOM     20  C   LIG A   1      -4.124   2.041 128.919  0.00  0.00    +0.466 C 
ATOM     21  O   LIG A   1      -4.363   2.635 127.686  0.00  0.00    -0.453 OA
ENDROOT
TORSDOF 0
ENDMDL
MODEL 8
REMARK VINA RESULT:      -7.2      3.893      6.948
REMARK  Name = NuBBE_216
REMARK  0 active torsions:
REMARK  status: ('A' for Active; 'I' for Inactive)
REMARK                            x       y       z     vdW  Elec       q    Type
REMARK                         _______ _______ _______ _____ _____    ______ ____
ROOT
ATOM      1  O   LIG A   1      -8.623  -4.026 126.530  0.00  0.00    -0.285 OA
ATOM      2  C   LIG A   1      -8.549  -2.799 126.507  0.00  0.00    +0.212 C 
ATOM      3  C   LIG A   1      -8.194  -2.014 127.721  0.00  0.00    +0.032 A 
ATOM      4  C   LIG A   1      -8.089  -0.556 127.733  0.00  0.00    -0.003 A 
ATOM      5  C   LIG A   1      -7.747  -0.063 129.005  0.00  0.00    +0.009 A 
ATOM      6  C   LIG A   1      -7.541  -0.934 130.134  0.00  0.00    +0.001 A 
ATOM      7  C   LIG A   1      -7.660  -2.321 130.053  0.00  0.00    +0.001 A 
ATOM      8  C   LIG A   1      -7.988  -2.863 128.836  0.00  0.00    +0.012 A 
ATOM      9  C   LIG A   1      -8.354   0.264 126.417  0.00  0.00    +0.038 A 
ATOM     10  C   LIG A   1      -8.693  -0.695 125.318  0.00  0.00    +0.023 A 
ATOM     11  C   LIG A   1      -8.797  -2.094 125.278  0.00  0.00    +0.119 A 
ATOM     12  N   LIG A   1      -9.097  -2.899 124.190  0.00  0.00    -0.251 NA
ATOM     13  C   LIG A   1      -9.329  -2.254 123.011  0.00  0.00    +0.112 A 
ATOM     14  C   LIG A   1      -9.266  -0.972 122.890  0.00  0.00    +0.028 A 
ATOM     15  C   LIG A   1      -8.994  -0.253 124.010  0.00  0.00    -0.010 A 
ATOM     16  C   LIG A   1      -8.933   1.043 123.727  0.00  0.00    +0.058 A 
ATOM     17  C   LIG A   1      -8.646   1.938 124.669  0.00  0.00    +0.167 A 
ATOM     18  C   LIG A   1      -8.338   1.679 125.986  0.00  0.00    +0.175 A 
ATOM     19  O   LIG A   1      -8.078   2.979 126.451  0.00  0.00    -0.452 OA
ATOM     20  C   LIG A   1      -8.329   3.900 125.254  0.00  0.00    +0.466 C 
ATOM     21  O   LIG A   1      -8.663   3.165 124.123  0.00  0.00    -0.453 OA
ENDROOT
TORSDOF 0
ENDMDL
MODEL 9
REMARK VINA RESULT:      -7.2      3.611      7.406
REMARK  Name = NuBBE_216
REMARK  0 active torsions:
REMARK  status: ('A' for Active; 'I' for Inactive)
REMARK                            x       y       z     vdW  Elec       q    Type
REMARK                         _______ _______ _______ _____ _____    ______ ____
ROOT
ATOM      1  O   LIG A   1      -5.310  -0.803 128.831  0.00  0.00    -0.285 OA
ATOM      2  C   LIG A   1      -6.109  -0.730 127.899  0.00  0.00    +0.212 C 
ATOM      3  C   LIG A   1      -7.170  -1.754 127.696  0.00  0.00    +0.032 A 
ATOM      4  C   LIG A   1      -8.142  -1.698 126.605  0.00  0.00    -0.003 A 
ATOM      5  C   LIG A   1      -9.030  -2.789 126.636  0.00  0.00    +0.009 A 
ATOM      6  C   LIG A   1      -8.947  -3.818 127.641  0.00  0.00    +0.001 A 
ATOM      7  C   LIG A   1      -7.989  -3.810 128.655  0.00  0.00    +0.001 A 
ATOM      8  C   LIG A   1      -7.096  -2.769 128.681  0.00  0.00    +0.012 A 
ATOM      9  C   LIG A   1      -8.102  -0.512 125.574  0.00  0.00    +0.038 A 
ATOM     10  C   LIG A   1      -6.977   0.405 125.944  0.00  0.00    +0.023 A 
ATOM     11  C   LIG A   1      -6.035   0.377 126.983  0.00  0.00    +0.119 A 
ATOM     12  N   LIG A   1      -5.035   1.298 127.257  0.00  0.00    -0.251 NA
ATOM     13  C   LIG A   1      -4.949   2.361 126.407  0.00  0.00    +0.112 A 
ATOM     14  C   LIG A   1      -5.748   2.526 125.409  0.00  0.00    +0.028 A 
ATOM     15  C   LIG A   1      -6.681   1.563 125.193  0.00  0.00    -0.010 A 
ATOM     16  C   LIG A   1      -7.445   1.882 124.154  0.00  0.00    +0.058 A 
ATOM     17  C   LIG A   1      -8.452   1.098 123.776  0.00  0.00    +0.167 A 
ATOM     18  C   LIG A   1      -8.867  -0.063 124.389  0.00  0.00    +0.175 A 
ATOM     19  O   LIG A   1      -9.977  -0.394 123.593  0.00  0.00    -0.452 OA
ATOM     20  C   LIG A   1     -10.040   0.687 122.511  0.00  0.00    +0.466 C 
ATOM     21  O   LIG A   1      -9.047   1.640 122.701  0.00  0.00    -0.453 OA
ENDROOT
TORSDOF 0
ENDMDL
