MODEL 1
REMARK VINA RESULT:      -6.2      0.000      0.000
REMARK  Name = NuBBE_138
REMARK  5 active torsions:
REMARK  status: ('A' for Active; 'I' for Inactive)
REMARK    1  A    between atoms: O_1  and  C_2
REMARK    2  A    between atoms: C_4  and  C_5
REMARK    3  A    between atoms: C_5  and  O_6
REMARK    4  A    between atoms: C_9  and  O_10
REMARK    5  A    between atoms: C_11  and  O_12
REMARK                            x       y       z     vdW  Elec       q    Type
REMARK                         _______ _______ _______ _____ _____    ______ ____
ROOT
ATOM      1  C   LIG A   1     -12.445   7.047 130.795  0.00  0.00    +0.163 A 
ATOM      2  C   LIG A   1     -12.830   8.385 130.887  0.00  0.00    +0.064 A 
ATOM      3  C   LIG A   1     -12.973   9.149 129.717  0.00  0.00    +0.066 A 
ATOM      4  C   LIG A   1     -12.733   8.572 128.460  0.00  0.00    +0.064 A 
ATOM      5  C   LIG A   1     -12.350   7.239 128.388  0.00  0.00    +0.163 A 
ATOM      6  C   LIG A   1     -12.206   6.477 129.548  0.00  0.00    +0.201 A 
ENDROOT
BRANCH   1   7
ATOM      7  O   LIG A   1     -12.300   6.289 131.922  0.00  0.00    -0.503 OA
ATOM      8  H   LIG A   1     -11.846   5.461 131.700  0.00  0.00    +0.292 HD
ENDBRANCH   1   7
BRANCH   3   9
ATOM      9  C   LIG A   1     -13.380  10.573 129.759  0.00  0.00    +0.337 C 
ATOM     10  O   LIG A   1     -13.343  11.291 130.741  0.00  0.00    -0.245 OA
BRANCH   9  11
ATOM     11  O   LIG A   1     -13.814  11.029 128.572  0.00  0.00    -0.477 OA
ATOM     12  H   LIG A   1     -14.464  10.355 128.281  0.00  0.00    +0.295 HD
ENDBRANCH   9  11
ENDBRANCH   3   9
BRANCH   5  13
ATOM     13  O   LIG A   1     -12.103   6.625 127.190  0.00  0.00    -0.503 OA
ATOM     14  H   LIG A   1     -12.688   5.851 127.111  0.00  0.00    +0.292 HD
ENDBRANCH   5  13
BRANCH   6  15
ATOM     15  O   LIG A   1     -11.828   5.167 129.439  0.00  0.00    -0.501 OA
ATOM     16  H   LIG A   1     -11.386   5.103 128.571  0.00  0.00    +0.292 HD
ENDBRANCH   6  15
TORSDOF 5
ENDMDL
MODEL 2
REMARK VINA RESULT:      -6.2      0.075      2.392
REMARK  Name = NuBBE_138
REMARK  5 active torsions:
REMARK  status: ('A' for Active; 'I' for Inactive)
REMARK    1  A    between atoms: O_1  and  C_2
REMARK    2  A    between atoms: C_4  and  C_5
REMARK    3  A    between atoms: C_5  and  O_6
REMARK    4  A    between atoms: C_9  and  O_10
REMARK    5  A    between atoms: C_11  and  O_12
REMARK                            x       y       z     vdW  Elec       q    Type
REMARK                         _______ _______ _______ _____ _____    ______ ____
ROOT
ATOM      1  C   LIG A   1     -12.402   7.228 128.357  0.00  0.00    +0.163 A 
ATOM      2  C   LIG A   1     -12.769   8.572 128.425  0.00  0.00    +0.064 A 
ATOM      3  C   LIG A   1     -12.976   9.174 129.676  0.00  0.00    +0.066 A 
ATOM      4  C   LIG A   1     -12.815   8.432 130.856  0.00  0.00    +0.064 A 
ATOM      5  C   LIG A   1     -12.449   7.094 130.770  0.00  0.00    +0.163 A 
ATOM      6  C   LIG A   1     -12.243   6.492 129.528  0.00  0.00    +0.201 A 
ENDROOT
BRANCH   1   7
ATOM      7  O   LIG A   1     -12.197   6.624 127.150  0.00  0.00    -0.503 OA
ATOM      8  H   LIG A   1     -12.955   6.792 126.569  0.00  0.00    +0.292 HD
ENDBRANCH   1   7
BRANCH   3   9
ATOM      9  C   LIG A   1     -13.366  10.599 129.803  0.00  0.00    +0.337 C 
ATOM     10  O   LIG A   1     -13.346  11.249 130.830  0.00  0.00    -0.245 OA
BRANCH   9  11
ATOM     11  O   LIG A   1     -13.764  11.138 128.638  0.00  0.00    -0.477 OA
ATOM     12  H   LIG A   1     -14.505  10.563 128.350  0.00  0.00    +0.295 HD
ENDBRANCH   9  11
ENDBRANCH   3   9
BRANCH   5  13
ATOM     13  O   LIG A   1     -12.278   6.322 131.887  0.00  0.00    -0.503 OA
ATOM     14  H   LIG A   1     -11.334   6.096 131.967  0.00  0.00    +0.292 HD
ENDBRANCH   5  13
BRANCH   6  15
ATOM     15  O   LIG A   1     -11.885   5.173 129.482  0.00  0.00    -0.501 OA
ATOM     16  H   LIG A   1     -11.264   5.106 128.731  0.00  0.00    +0.292 HD
ENDBRANCH   6  15
TORSDOF 5
ENDMDL
MODEL 3
REMARK VINA RESULT:      -5.6      1.562      3.985
REMARK  Name = NuBBE_138
REMARK  5 active torsions:
REMARK  status: ('A' for Active; 'I' for Inactive)
REMARK    1  A    between atoms: O_1  and  C_2
REMARK    2  A    between atoms: C_4  and  C_5
REMARK    3  A    between atoms: C_5  and  O_6
REMARK    4  A    between atoms: C_9  and  O_10
REMARK    5  A    between atoms: C_11  and  O_12
REMARK                            x       y       z     vdW  Elec       q    Type
REMARK                         _______ _______ _______ _____ _____    ______ ____
ROOT
ATOM      1  C   LIG A   1     -12.512   8.681 129.677  0.00  0.00    +0.163 A 
ATOM      2  C   LIG A   1     -11.934   8.624 128.409  0.00  0.00    +0.064 A 
ATOM      3  C   LIG A   1     -11.280   7.452 127.996  0.00  0.00    +0.066 A 
ATOM      4  C   LIG A   1     -11.208   6.341 128.850  0.00  0.00    +0.064 A 
ATOM      5  C   LIG A   1     -11.789   6.416 130.110  0.00  0.00    +0.163 A 
ATOM      6  C   LIG A   1     -12.439   7.579 130.525  0.00  0.00    +0.201 A 
ENDROOT
BRANCH   1   7
ATOM      7  O   LIG A   1     -13.151   9.813 130.097  0.00  0.00    -0.503 OA
ATOM      8  H   LIG A   1     -12.995   9.942 131.045  0.00  0.00    +0.292 HD
ENDBRANCH   1   7
BRANCH   3   9
ATOM      9  C   LIG A   1     -10.650   7.338 126.659  0.00  0.00    +0.337 C 
ATOM     10  O   LIG A   1     -10.876   8.060 125.706  0.00  0.00    -0.245 OA
BRANCH   9  11
ATOM     11  O   LIG A   1      -9.770   6.325 126.579  0.00  0.00    -0.477 OA
ATOM     12  H   LIG A   1     -10.253   5.560 126.956  0.00  0.00    +0.295 HD
ENDBRANCH   9  11
ENDBRANCH   3   9
BRANCH   5  13
ATOM     13  O   LIG A   1     -11.749   5.365 130.984  0.00  0.00    -0.503 OA
ATOM     14  H   LIG A   1     -12.046   4.562 130.520  0.00  0.00    +0.292 HD
ENDBRANCH   5  13
BRANCH   6  15
ATOM     15  O   LIG A   1     -13.000   7.618 131.771  0.00  0.00    -0.501 OA
ATOM     16  H   LIG A   1     -13.890   7.995 131.636  0.00  0.00    +0.292 HD
ENDBRANCH   6  15
TORSDOF 5
ENDMDL
MODEL 4
REMARK VINA RESULT:      -5.5      1.549      3.809
REMARK  Name = NuBBE_138
REMARK  5 active torsions:
REMARK  status: ('A' for Active; 'I' for Inactive)
REMARK    1  A    between atoms: O_1  and  C_2
REMARK    2  A    between atoms: C_4  and  C_5
REMARK    3  A    between atoms: C_5  and  O_6
REMARK    4  A    between atoms: C_9  and  O_10
REMARK    5  A    between atoms: C_11  and  O_12
REMARK                            x       y       z     vdW  Elec       q    Type
REMARK                         _______ _______ _______ _____ _____    ______ ____
ROOT
ATOM      1  C   LIG A   1     -11.821   6.672 130.309  0.00  0.00    +0.163 A 
ATOM      2  C   LIG A   1     -11.209   6.473 129.072  0.00  0.00    +0.064 A 
ATOM      3  C   LIG A   1     -11.269   7.481 128.096  0.00  0.00    +0.066 A 
ATOM      4  C   LIG A   1     -11.940   8.685 128.361  0.00  0.00    +0.064 A 
ATOM      5  C   LIG A   1     -12.543   8.867 129.599  0.00  0.00    +0.163 A 
ATOM      6  C   LIG A   1     -12.487   7.867 130.571  0.00  0.00    +0.201 A 
ENDROOT
BRANCH   1   7
ATOM      7  O   LIG A   1     -11.774   5.704 131.271  0.00  0.00    -0.503 OA
ATOM      8  H   LIG A   1     -11.570   6.106 132.129  0.00  0.00    +0.292 HD
ENDBRANCH   1   7
BRANCH   3   9
ATOM      9  C   LIG A   1     -10.636   7.320 126.766  0.00  0.00    +0.337 C 
ATOM     10  O   LIG A   1     -10.898   7.971 125.773  0.00  0.00    -0.245 OA
BRANCH   9  11
ATOM     11  O   LIG A   1      -9.707   6.348 126.743  0.00  0.00    -0.477 OA
ATOM     12  H   LIG A   1      -9.739   6.010 125.824  0.00  0.00    +0.295 HD
ENDBRANCH   9  11
ENDBRANCH   3   9
BRANCH   5  13
ATOM     13  O   LIG A   1     -13.210  10.020 129.912  0.00  0.00    -0.503 OA
ATOM     14  H   LIG A   1     -14.167   9.858 129.826  0.00  0.00    +0.292 HD
ENDBRANCH   5  13
BRANCH   6  15
ATOM     15  O   LIG A   1     -13.092   8.080 131.778  0.00  0.00    -0.501 OA
ATOM     16  H   LIG A   1     -13.149   7.197 132.191  0.00  0.00    +0.292 HD
ENDBRANCH   6  15
TORSDOF 5
ENDMDL
MODEL 5
REMARK VINA RESULT:      -5.4      1.965      4.088
REMARK  Name = NuBBE_138
REMARK  5 active torsions:
REMARK  status: ('A' for Active; 'I' for Inactive)
REMARK    1  A    between atoms: O_1  and  C_2
REMARK    2  A    between atoms: C_4  and  C_5
REMARK    3  A    between atoms: C_5  and  O_6
REMARK    4  A    between atoms: C_9  and  O_10
REMARK    5  A    between atoms: C_11  and  O_12
REMARK                            x       y       z     vdW  Elec       q    Type
REMARK                         _______ _______ _______ _____ _____    ______ ____
ROOT
ATOM      1  C   LIG A   1     -11.826   8.449 128.689  0.00  0.00    +0.163 A 
ATOM      2  C   LIG A   1     -11.781   8.007 130.011  0.00  0.00    +0.064 A 
ATOM      3  C   LIG A   1     -10.933   6.943 130.360  0.00  0.00    +0.066 A 
ATOM      4  C   LIG A   1     -10.132   6.327 129.386  0.00  0.00    +0.064 A 
ATOM      5  C   LIG A   1     -10.189   6.780 128.074  0.00  0.00    +0.163 A 
ATOM      6  C   LIG A   1     -11.031   7.836 127.724  0.00  0.00    +0.201 A 
ENDROOT
BRANCH   1   7
ATOM      7  O   LIG A   1     -12.645   9.481 128.330  0.00  0.00    -0.503 OA
ATOM      8  H   LIG A   1     -13.219   9.716 129.075  0.00  0.00    +0.292 HD
ENDBRANCH   1   7
BRANCH   3   9
ATOM      9  C   LIG A   1     -10.848   6.435 131.749  0.00  0.00    +0.337 C 
ATOM     10  O   LIG A   1      -9.851   6.441 132.445  0.00  0.00    -0.245 OA
BRANCH   9  11
ATOM     11  O   LIG A   1     -12.015   5.943 132.199  0.00  0.00    -0.477 OA
ATOM     12  H   LIG A   1     -12.692   6.523 131.791  0.00  0.00    +0.295 HD
ENDBRANCH   9  11
ENDBRANCH   3   9
BRANCH   5  13
ATOM     13  O   LIG A   1      -9.431   6.217 127.085  0.00  0.00    -0.503 OA
ATOM     14  H   LIG A   1      -8.715   5.702 127.497  0.00  0.00    +0.292 HD
ENDBRANCH   5  13
BRANCH   6  15
ATOM     15  O   LIG A   1     -11.062   8.256 126.423  0.00  0.00    -0.501 OA
ATOM     16  H   LIG A   1     -10.751   7.491 125.903  0.00  0.00    +0.292 HD
ENDBRANCH   6  15
TORSDOF 5
ENDMDL
MODEL 6
REMARK VINA RESULT:      -5.4      1.981      4.238
REMARK  Name = NuBBE_138
REMARK  5 active torsions:
REMARK  status: ('A' for Active; 'I' for Inactive)
REMARK    1  A    between atoms: O_1  and  C_2
REMARK    2  A    between atoms: C_4  and  C_5
REMARK    3  A    between atoms: C_5  and  O_6
REMARK    4  A    between atoms: C_9  and  O_10
REMARK    5  A    between atoms: C_11  and  O_12
REMARK                            x       y       z     vdW  Elec       q    Type
REMARK                         _______ _______ _______ _____ _____    ______ ____
ROOT
ATOM      1  C   LIG A   1     -10.181   6.752 128.056  0.00  0.00    +0.163 A 
ATOM      2  C   LIG A   1     -10.135   6.285 129.369  0.00  0.00    +0.064 A 
ATOM      3  C   LIG A   1     -10.926   6.901 130.353  0.00  0.00    +0.066 A 
ATOM      4  C   LIG A   1     -11.760   7.979 130.021  0.00  0.00    +0.064 A 
ATOM      5  C   LIG A   1     -11.794   8.430 128.707  0.00  0.00    +0.163 A 
ATOM      6  C   LIG A   1     -11.009   7.822 127.727  0.00  0.00    +0.201 A 
ENDROOT
BRANCH   1   7
ATOM      7  O   LIG A   1      -9.419   6.167 127.085  0.00  0.00    -0.503 OA
ATOM      8  H   LIG A   1      -8.676   5.697 127.493  0.00  0.00    +0.292 HD
ENDBRANCH   1   7
BRANCH   3   9
ATOM      9  C   LIG A   1     -10.914   6.444 131.763  0.00  0.00    +0.337 C 
ATOM     10  O   LIG A   1      -9.939   6.416 132.490  0.00  0.00    -0.245 OA
BRANCH   9  11
ATOM     11  O   LIG A   1     -12.122   6.041 132.193  0.00  0.00    -0.477 OA
ATOM     12  H   LIG A   1     -12.500   6.837 132.623  0.00  0.00    +0.295 HD
ENDBRANCH   9  11
ENDBRANCH   3   9
BRANCH   5  13
ATOM     13  O   LIG A   1     -12.588   9.477 128.326  0.00  0.00    -0.503 OA
ATOM     14  H   LIG A   1     -13.126   9.198 127.564  0.00  0.00    +0.292 HD
ENDBRANCH   5  13
BRANCH   6  15
ATOM     15  O   LIG A   1     -11.067   8.292 126.444  0.00  0.00    -0.501 OA
ATOM     16  H   LIG A   1     -10.780   9.224 126.503  0.00  0.00    +0.292 HD
ENDBRANCH   6  15
TORSDOF 5
ENDMDL
MODEL 7
REMARK VINA RESULT:      -5.3      1.225      1.231
REMARK  Name = NuBBE_138
REMARK  5 active torsions:
REMARK  status: ('A' for Active; 'I' for Inactive)
REMARK    1  A    between atoms: O_1  and  C_2
REMARK    2  A    between atoms: C_4  and  C_5
REMARK    3  A    between atoms: C_5  and  O_6
REMARK    4  A    between atoms: C_9  and  O_10
REMARK    5  A    between atoms: C_11  and  O_12
REMARK                            x       y       z     vdW  Elec       q    Type
REMARK                         _______ _______ _______ _____ _____    ______ ____
ROOT
ATOM      1  C   LIG A   1     -11.777   6.802 131.255  0.00  0.00    +0.163 A 
ATOM      2  C   LIG A   1     -12.523   7.972 131.117  0.00  0.00    +0.064 A 
ATOM      3  C   LIG A   1     -12.436   8.715 129.928  0.00  0.00    +0.066 A 
ATOM      4  C   LIG A   1     -11.605   8.285 128.882  0.00  0.00    +0.064 A 
ATOM      5  C   LIG A   1     -10.869   7.117 129.037  0.00  0.00    +0.163 A 
ATOM      6  C   LIG A   1     -10.952   6.376 130.217  0.00  0.00    +0.201 A 
ENDROOT
BRANCH   1   7
ATOM      7  O   LIG A   1     -11.847   6.066 132.403  0.00  0.00    -0.503 OA
ATOM      8  H   LIG A   1     -12.772   5.987 132.683  0.00  0.00    +0.292 HD
ENDBRANCH   1   7
BRANCH   3   9
ATOM      9  C   LIG A   1     -13.207   9.965 129.730  0.00  0.00    +0.337 C 
ATOM     10  O   LIG A   1     -13.463  10.783 130.593  0.00  0.00    -0.245 OA
BRANCH   9  11
ATOM     11  O   LIG A   1     -13.623  10.128 128.463  0.00  0.00    -0.477 OA
ATOM     12  H   LIG A   1     -14.567   9.865 128.486  0.00  0.00    +0.295 HD
ENDBRANCH   9  11
ENDBRANCH   3   9
BRANCH   5  13
ATOM     13  O   LIG A   1     -10.043   6.651 128.051  0.00  0.00    -0.503 OA
ATOM     14  H   LIG A   1      -9.604   5.843 128.370  0.00  0.00    +0.292 HD
ENDBRANCH   5  13
BRANCH   6  15
ATOM     15  O   LIG A   1     -10.214   5.231 130.335  0.00  0.00    -0.501 OA
ATOM     16  H   LIG A   1     -10.677   4.574 129.782  0.00  0.00    +0.292 HD
ENDBRANCH   6  15
TORSDOF 5
ENDMDL
MODEL 8
REMARK VINA RESULT:      -5.3     10.533     12.201
REMARK  Name = NuBBE_138
REMARK  5 active torsions:
REMARK  status: ('A' for Active; 'I' for Inactive)
REMARK    1  A    between atoms: O_1  and  C_2
REMARK    2  A    between atoms: C_4  and  C_5
REMARK    3  A    between atoms: C_5  and  O_6
REMARK    4  A    between atoms: C_9  and  O_10
REMARK    5  A    between atoms: C_11  and  O_12
REMARK                            x       y       z     vdW  Elec       q    Type
REMARK                         _______ _______ _______ _____ _____    ______ ____
ROOT
ATOM      1  C   LIG A   1      -6.723   4.338 119.687  0.00  0.00    +0.163 A 
ATOM      2  C   LIG A   1      -7.043   3.487 120.745  0.00  0.00    +0.064 A 
ATOM      3  C   LIG A   1      -6.277   3.523 121.922  0.00  0.00    +0.066 A 
ATOM      4  C   LIG A   1      -5.197   4.411 122.038  0.00  0.00    +0.064 A 
ATOM      5  C   LIG A   1      -4.893   5.252 120.975  0.00  0.00    +0.163 A 
ATOM      6  C   LIG A   1      -5.650   5.219 119.803  0.00  0.00    +0.201 A 
ENDROOT
BRANCH   1   7
ATOM      7  O   LIG A   1      -7.454   4.317 118.534  0.00  0.00    -0.503 OA
ATOM      8  H   LIG A   1      -6.920   3.944 117.816  0.00  0.00    +0.292 HD
ENDBRANCH   1   7
BRANCH   3   9
ATOM      9  C   LIG A   1      -6.575   2.640 123.074  0.00  0.00    +0.337 C 
ATOM     10  O   LIG A   1      -7.175   1.583 123.020  0.00  0.00    -0.245 OA
BRANCH   9  11
ATOM     11  O   LIG A   1      -6.109   3.124 124.239  0.00  0.00    -0.477 OA
ATOM     12  H   LIG A   1      -6.749   2.797 124.906  0.00  0.00    +0.295 HD
ENDBRANCH   9  11
ENDBRANCH   3   9
BRANCH   5  13
ATOM     13  O   LIG A   1      -3.852   6.137 121.033  0.00  0.00    -0.503 OA
ATOM     14  H   LIG A   1      -3.668   6.461 120.133  0.00  0.00    +0.292 HD
ENDBRANCH   5  13
BRANCH   6  15
ATOM     15  O   LIG A   1      -5.323   6.061 118.777  0.00  0.00    -0.501 OA
ATOM     16  H   LIG A   1      -5.566   5.576 117.965  0.00  0.00    +0.292 HD
ENDBRANCH   6  15
TORSDOF 5
ENDMDL
MODEL 9
REMARK VINA RESULT:      -5.3      2.477      3.756
REMARK  Name = NuBBE_138
REMARK  5 active torsions:
REMARK  status: ('A' for Active; 'I' for Inactive)
REMARK    1  A    between atoms: O_1  and  C_2
REMARK    2  A    between atoms: C_4  and  C_5
REMARK    3  A    between atoms: C_5  and  O_6
REMARK    4  A    between atoms: C_9  and  O_10
REMARK    5  A    between atoms: C_11  and  O_12
REMARK                            x       y       z     vdW  Elec       q    Type
REMARK                         _______ _______ _______ _____ _____    ______ ____
ROOT
ATOM      1  C   LIG A   1     -10.020   6.122 130.487  0.00  0.00    +0.163 A 
ATOM      2  C   LIG A   1     -10.087   6.441 129.131  0.00  0.00    +0.064 A 
ATOM      3  C   LIG A   1     -11.254   7.023 128.611  0.00  0.00    +0.066 A 
ATOM      4  C   LIG A   1     -12.349   7.286 129.448  0.00  0.00    +0.064 A 
ATOM      5  C   LIG A   1     -12.265   6.962 130.796  0.00  0.00    +0.163 A 
ATOM      6  C   LIG A   1     -11.107   6.382 131.317  0.00  0.00    +0.201 A 
ENDROOT
BRANCH   1   7
ATOM      7  O   LIG A   1      -8.894   5.554 131.012  0.00  0.00    -0.503 OA
ATOM      8  H   LIG A   1      -9.077   4.635 131.258  0.00  0.00    +0.292 HD
ENDBRANCH   1   7
BRANCH   3   9
ATOM      9  C   LIG A   1     -11.377   7.381 127.178  0.00  0.00    +0.337 C 
ATOM     10  O   LIG A   1     -10.825   8.318 126.632  0.00  0.00    -0.245 OA
BRANCH   9  11
ATOM     11  O   LIG A   1     -12.186   6.550 126.498  0.00  0.00    -0.477 OA
ATOM     12  H   LIG A   1     -11.738   5.680 126.558  0.00  0.00    +0.295 HD
ENDBRANCH   9  11
ENDBRANCH   3   9
BRANCH   5  13
ATOM     13  O   LIG A   1     -13.302   7.196 131.658  0.00  0.00    -0.503 OA
ATOM     14  H   LIG A   1     -12.976   7.744 132.394  0.00  0.00    +0.292 HD
ENDBRANCH   5  13
BRANCH   6  15
ATOM     15  O   LIG A   1     -11.060   6.077 132.649  0.00  0.00    -0.501 OA
ATOM     16  H   LIG A   1     -10.111   5.954 132.846  0.00  0.00    +0.292 HD
ENDBRANCH   6  15
TORSDOF 5
ENDMDL
