MODEL 1
REMARK VINA RESULT:      -6.7      0.000      0.000
REMARK  Name = NuBBE_2178
REMARK  13 active torsions:
REMARK  status: ('A' for Active; 'I' for Inactive)
REMARK    1  A    between atoms: C_1  and  C_3
REMARK    2  A    between atoms: C_1  and  C_13
REMARK    3  A    between atoms: C_1  and  C_14
REMARK    4  A    between atoms: C_3  and  C_4
REMARK    5  A    between atoms: C_6  and  O_7
REMARK    6  A    between atoms: O_7  and  C_8
REMARK    7  A    between atoms: C_9  and  O_12
REMARK    8  A    between atoms: C_14  and  O_15
REMARK    9  A    between atoms: O_15  and  C_16
REMARK   10  A    between atoms: C_17  and  O_26
REMARK   11  A    between atoms: C_21  and  C_23
REMARK   12  A    between atoms: C_23  and  C_24
REMARK   13  A    between atoms: O_26  and  C_27
REMARK                            x       y       z     vdW  Elec       q    Type
REMARK                         _______ _______ _______ _____ _____    ______ ____
ROOT
ATOM      1  C   LIG A   1      -8.138  -2.480 125.435  0.00  0.00    +0.147 C 
ATOM      2  C   LIG A   1      -6.641  -2.565 125.057  0.00  0.00    +0.137 C 
ATOM      3  C   LIG A   1      -5.736  -1.697 125.541  0.00  0.00    +0.095 C 
ATOM      4  C   LIG A   1      -6.091  -0.627 126.493  0.00  0.00    +0.185 C 
ATOM      5  O   LIG A   1      -5.234   0.182 126.844  0.00  0.00    -0.287 OA
ATOM      6  C   LIG A   1      -7.470  -0.610 127.040  0.00  0.00    +0.002 C 
ATOM      7  C   LIG A   1      -8.376  -1.472 126.542  0.00  0.00    +0.023 C 
ENDROOT
BRANCH   1   8
ATOM      8  C   LIG A   1      -9.059  -2.150 124.180  0.00  0.00    +0.034 C 
ATOM      9  C   LIG A   1      -9.570  -3.407 123.462  0.00  0.00    +0.011 C 
BRANCH   8  10
ATOM     10  C   LIG A   1      -8.355  -1.210 123.145  0.00  0.00    +0.042 C 
BRANCH  10  11
ATOM     11  C   LIG A   1      -8.344   0.275 123.476  0.00  0.00    -0.043 A 
ATOM     12  C   LIG A   1      -7.166   1.038 123.314  0.00  0.00    +0.053 A 
ATOM     13  C   LIG A   1      -7.148   2.402 123.622  0.00  0.00    +0.162 A 
ATOM     14  C   LIG A   1      -8.306   2.988 124.145  0.00  0.00    +0.159 A 
ATOM     15  C   LIG A   1      -9.471   2.254 124.323  0.00  0.00    +0.049 A 
ATOM     16  C   LIG A   1      -9.494   0.899 123.980  0.00  0.00    +0.007 A 
BRANCH  13  17
ATOM     17  O   LIG A   1      -6.089   3.258 123.464  0.00  0.00    -0.491 OA
ATOM     18  C   LIG A   1      -5.838   3.733 122.146  0.00  0.00    +0.277 C 
ENDBRANCH  13  17
BRANCH  14  19
ATOM     19  O   LIG A   1      -8.309   4.311 124.500  0.00  0.00    -0.503 OA
ATOM     20  H   LIG A   1      -9.057   4.402 125.122  0.00  0.00    +0.292 HD
ENDBRANCH  14  19
ENDBRANCH  10  11
ENDBRANCH   8  10
ENDBRANCH   1   8
BRANCH   1  21
ATOM     21  O   LIG A   1      -8.586  -3.770 125.927  0.00  0.00    -0.364 OA
ATOM     22  C   LIG A   1      -8.867  -3.857 127.322  0.00  0.00    +0.195 C 
ENDBRANCH   1  21
BRANCH   2  23
ATOM     23  O   LIG A   1      -6.301  -3.649 124.247  0.00  0.00    -0.496 OA
ATOM     24  C   LIG A   1      -4.917  -3.788 123.918  0.00  0.00    +0.277 C 
ENDBRANCH   2  23
BRANCH   6  25
ATOM     25  C   LIG A   1      -7.746   0.325 128.187  0.00  0.00    +0.065 C 
BRANCH  25  26
ATOM     26  C   LIG A   1      -8.436   1.594 127.770  0.00  0.00    -0.030 C 
ATOM     27  C   LIG A   1      -7.903   2.818 127.892  0.00  0.00    +0.004 C 
ENDBRANCH  25  26
ENDBRANCH   6  25
TORSDOF 9
ENDMDL
MODEL 2
REMARK VINA RESULT:      -6.4      1.974      4.480
REMARK  Name = NuBBE_2178
REMARK  13 active torsions:
REMARK  status: ('A' for Active; 'I' for Inactive)
REMARK    1  A    between atoms: C_1  and  C_3
REMARK    2  A    between atoms: C_1  and  C_13
REMARK    3  A    between atoms: C_1  and  C_14
REMARK    4  A    between atoms: C_3  and  C_4
REMARK    5  A    between atoms: C_6  and  O_7
REMARK    6  A    between atoms: O_7  and  C_8
REMARK    7  A    between atoms: C_9  and  O_12
REMARK    8  A    between atoms: C_14  and  O_15
REMARK    9  A    between atoms: O_15  and  C_16
REMARK   10  A    between atoms: C_17  and  O_26
REMARK   11  A    between atoms: C_21  and  C_23
REMARK   12  A    between atoms: C_23  and  C_24
REMARK   13  A    between atoms: O_26  and  C_27
REMARK                            x       y       z     vdW  Elec       q    Type
REMARK                         _______ _______ _______ _____ _____    ______ ____
ROOT
ATOM      1  C   LIG A   1      -8.004  -0.622 125.235  0.00  0.00    +0.147 C 
ATOM      2  C   LIG A   1      -8.626  -0.608 123.819  0.00  0.00    +0.137 C 
ATOM      3  C   LIG A   1      -7.964  -1.080 122.749  0.00  0.00    +0.095 C 
ATOM      4  C   LIG A   1      -6.619  -1.680 122.846  0.00  0.00    +0.185 C 
ATOM      5  O   LIG A   1      -6.034  -2.027 121.822  0.00  0.00    -0.287 OA
ATOM      6  C   LIG A   1      -6.048  -1.894 124.199  0.00  0.00    +0.002 C 
ATOM      7  C   LIG A   1      -6.707  -1.407 125.266  0.00  0.00    +0.023 C 
ENDROOT
BRANCH   1   8
ATOM      8  C   LIG A   1      -7.775   0.845 125.807  0.00  0.00    +0.034 C 
ATOM      9  C   LIG A   1      -8.320   1.027 127.231  0.00  0.00    +0.011 C 
BRANCH   8  10
ATOM     10  C   LIG A   1      -8.368   1.955 124.878  0.00  0.00    +0.042 C 
BRANCH  10  11
ATOM     11  C   LIG A   1      -7.367   2.796 124.101  0.00  0.00    -0.043 A 
ATOM     12  C   LIG A   1      -7.267   2.679 122.697  0.00  0.00    +0.053 A 
ATOM     13  C   LIG A   1      -6.344   3.445 121.977  0.00  0.00    +0.162 A 
ATOM     14  C   LIG A   1      -5.482   4.292 122.681  0.00  0.00    +0.159 A 
ATOM     15  C   LIG A   1      -5.555   4.415 124.062  0.00  0.00    +0.049 A 
ATOM     16  C   LIG A   1      -6.503   3.673 124.772  0.00  0.00    +0.007 A 
BRANCH  13  17
ATOM     17  O   LIG A   1      -6.183   3.458 120.616  0.00  0.00    -0.491 OA
ATOM     18  C   LIG A   1      -7.198   4.104 119.856  0.00  0.00    +0.277 C 
ENDBRANCH  13  17
BRANCH  14  19
ATOM     19  O   LIG A   1      -4.536   5.023 122.011  0.00  0.00    -0.503 OA
ATOM     20  H   LIG A   1      -3.711   4.889 122.519  0.00  0.00    +0.292 HD
ENDBRANCH  14  19
ENDBRANCH  10  11
ENDBRANCH   8  10
ENDBRANCH   1   8
BRANCH   1  21
ATOM     21  O   LIG A   1      -8.919  -1.269 126.158  0.00  0.00    -0.364 OA
ATOM     22  C   LIG A   1      -9.105  -2.672 125.990  0.00  0.00    +0.195 C 
ENDBRANCH   1  21
BRANCH   2  23
ATOM     23  O   LIG A   1      -9.940  -0.144 123.759  0.00  0.00    -0.496 OA
ATOM     24  C   LIG A   1     -10.362   0.412 122.512  0.00  0.00    +0.277 C 
ENDBRANCH   2  23
BRANCH   6  25
ATOM     25  C   LIG A   1      -4.797  -2.726 124.295  0.00  0.00    +0.065 C 
BRANCH  25  26
ATOM     26  C   LIG A   1      -5.034  -4.190 124.044  0.00  0.00    -0.030 C 
ATOM     27  C   LIG A   1      -4.184  -4.989 123.386  0.00  0.00    +0.004 C 
ENDBRANCH  25  26
ENDBRANCH   6  25
TORSDOF 9
ENDMDL
MODEL 3
REMARK VINA RESULT:      -6.4      1.587      4.270
REMARK  Name = NuBBE_2178
REMARK  13 active torsions:
REMARK  status: ('A' for Active; 'I' for Inactive)
REMARK    1  A    between atoms: C_1  and  C_3
REMARK    2  A    between atoms: C_1  and  C_13
REMARK    3  A    between atoms: C_1  and  C_14
REMARK    4  A    between atoms: C_3  and  C_4
REMARK    5  A    between atoms: C_6  and  O_7
REMARK    6  A    between atoms: O_7  and  C_8
REMARK    7  A    between atoms: C_9  and  O_12
REMARK    8  A    between atoms: C_14  and  O_15
REMARK    9  A    between atoms: O_15  and  C_16
REMARK   10  A    between atoms: C_17  and  O_26
REMARK   11  A    between atoms: C_21  and  C_23
REMARK   12  A    between atoms: C_23  and  C_24
REMARK   13  A    between atoms: O_26  and  C_27
REMARK                            x       y       z     vdW  Elec       q    Type
REMARK                         _______ _______ _______ _____ _____    ______ ____
ROOT
ATOM      1  C   LIG A   1      -6.402  -1.173 126.985  0.00  0.00    +0.147 C 
ATOM      2  C   LIG A   1      -7.554  -2.159 127.291  0.00  0.00    +0.137 C 
ATOM      3  C   LIG A   1      -8.060  -2.973 126.349  0.00  0.00    +0.095 C 
ATOM      4  C   LIG A   1      -7.536  -3.017 124.971  0.00  0.00    +0.185 C 
ATOM      5  O   LIG A   1      -8.088  -3.729 124.134  0.00  0.00    -0.287 OA
ATOM      6  C   LIG A   1      -6.313  -2.235 124.665  0.00  0.00    +0.002 C 
ATOM      7  C   LIG A   1      -5.817  -1.412 125.606  0.00  0.00    +0.023 C 
ENDROOT
BRANCH   1   8
ATOM      8  C   LIG A   1      -6.851   0.345 127.139  0.00  0.00    +0.034 C 
ATOM      9  C   LIG A   1      -6.778   0.850 128.587  0.00  0.00    +0.011 C 
BRANCH   8  10
ATOM     10  C   LIG A   1      -8.283   0.613 126.567  0.00  0.00    +0.042 C 
BRANCH  10  11
ATOM     11  C   LIG A   1      -8.360   1.409 125.274  0.00  0.00    -0.043 A 
ATOM     12  C   LIG A   1      -7.363   2.357 124.953  0.00  0.00    +0.053 A 
ATOM     13  C   LIG A   1      -7.431   3.096 123.768  0.00  0.00    +0.162 A 
ATOM     14  C   LIG A   1      -8.536   2.919 122.929  0.00  0.00    +0.159 A 
ATOM     15  C   LIG A   1      -9.534   2.001 123.230  0.00  0.00    +0.049 A 
ATOM     16  C   LIG A   1      -9.442   1.239 124.398  0.00  0.00    +0.007 A 
BRANCH  13  17
ATOM     17  O   LIG A   1      -6.508   4.006 123.322  0.00  0.00    -0.491 OA
ATOM     18  C   LIG A   1      -5.371   4.226 124.150  0.00  0.00    +0.277 C 
ENDBRANCH  13  17
BRANCH  14  19
ATOM     19  O   LIG A   1      -8.657   3.660 121.783  0.00  0.00    -0.503 OA
ATOM     20  H   LIG A   1      -9.578   3.516 121.488  0.00  0.00    +0.292 HD
ENDBRANCH  14  19
ENDBRANCH  10  11
ENDBRANCH   8  10
ENDBRANCH   1   8
BRANCH   1  21
ATOM     21  O   LIG A   1      -5.331  -1.369 127.944  0.00  0.00    -0.364 OA
ATOM     22  C   LIG A   1      -4.845  -2.700 128.093  0.00  0.00    +0.195 C 
ENDBRANCH   1  21
BRANCH   2  23
ATOM     23  O   LIG A   1      -7.962  -2.188 128.624  0.00  0.00    -0.496 OA
ATOM     24  C   LIG A   1      -8.555  -3.404 129.082  0.00  0.00    +0.277 C 
ENDBRANCH   2  23
BRANCH   6  25
ATOM     25  C   LIG A   1      -5.650  -2.483 123.336  0.00  0.00    +0.065 C 
BRANCH  25  26
ATOM     26  C   LIG A   1      -4.442  -3.373 123.429  0.00  0.00    -0.030 C 
ATOM     27  C   LIG A   1      -4.481  -4.661 123.796  0.00  0.00    +0.004 C 
ENDBRANCH  25  26
ENDBRANCH   6  25
TORSDOF 9
ENDMDL
MODEL 4
REMARK VINA RESULT:      -6.1      2.472      4.020
REMARK  Name = NuBBE_2178
REMARK  13 active torsions:
REMARK  status: ('A' for Active; 'I' for Inactive)
REMARK    1  A    between atoms: C_1  and  C_3
REMARK    2  A    between atoms: C_1  and  C_13
REMARK    3  A    between atoms: C_1  and  C_14
REMARK    4  A    between atoms: C_3  and  C_4
REMARK    5  A    between atoms: C_6  and  O_7
REMARK    6  A    between atoms: O_7  and  C_8
REMARK    7  A    between atoms: C_9  and  O_12
REMARK    8  A    between atoms: C_14  and  O_15
REMARK    9  A    between atoms: O_15  and  C_16
REMARK   10  A    between atoms: C_17  and  O_26
REMARK   11  A    between atoms: C_21  and  C_23
REMARK   12  A    between atoms: C_23  and  C_24
REMARK   13  A    between atoms: O_26  and  C_27
REMARK                            x       y       z     vdW  Elec       q    Type
REMARK                         _______ _______ _______ _____ _____    ______ ____
ROOT
ATOM      1  C   LIG A   1      -8.019  -0.812 125.910  0.00  0.00    +0.147 C 
ATOM      2  C   LIG A   1      -8.822  -2.004 125.337  0.00  0.00    +0.137 C 
ATOM      3  C   LIG A   1      -9.047  -3.119 126.053  0.00  0.00    +0.095 C 
ATOM      4  C   LIG A   1      -8.582  -3.277 127.445  0.00  0.00    +0.185 C 
ATOM      5  O   LIG A   1      -8.753  -4.348 128.024  0.00  0.00    -0.287 OA
ATOM      6  C   LIG A   1      -7.973  -2.101 128.114  0.00  0.00    +0.002 C 
ATOM      7  C   LIG A   1      -7.737  -0.992 127.389  0.00  0.00    +0.023 C 
ENDROOT
BRANCH   1   8
ATOM      8  C   LIG A   1      -6.664  -0.561 125.116  0.00  0.00    +0.034 C 
ATOM      9  C   LIG A   1      -5.938  -1.860 124.740  0.00  0.00    +0.011 C 
BRANCH   8  10
ATOM     10  C   LIG A   1      -5.679   0.381 125.886  0.00  0.00    +0.042 C 
BRANCH  10  11
ATOM     11  C   LIG A   1      -5.824   1.872 125.628  0.00  0.00    -0.043 A 
ATOM     12  C   LIG A   1      -5.516   2.810 126.638  0.00  0.00    +0.053 A 
ATOM     13  C   LIG A   1      -5.654   4.183 126.408  0.00  0.00    +0.162 A 
ATOM     14  C   LIG A   1      -6.155   4.610 125.174  0.00  0.00    +0.159 A 
ATOM     15  C   LIG A   1      -6.475   3.705 124.171  0.00  0.00    +0.049 A 
ATOM     16  C   LIG A   1      -6.301   2.336 124.394  0.00  0.00    +0.007 A 
BRANCH  13  17
ATOM     17  O   LIG A   1      -5.343   5.190 127.285  0.00  0.00    -0.491 OA
ATOM     18  C   LIG A   1      -3.961   5.423 127.532  0.00  0.00    +0.277 C 
ENDBRANCH  13  17
BRANCH  14  19
ATOM     19  O   LIG A   1      -6.345   5.945 124.932  0.00  0.00    -0.503 OA
ATOM     20  H   LIG A   1      -6.082   6.070 123.999  0.00  0.00    +0.292 HD
ENDBRANCH  14  19
ENDBRANCH  10  11
ENDBRANCH   8  10
ENDBRANCH   1   8
BRANCH   1  21
ATOM     21  O   LIG A   1      -8.795   0.406 125.767  0.00  0.00    -0.364 OA
ATOM     22  C   LIG A   1      -9.007   1.169 126.952  0.00  0.00    +0.195 C 
ENDBRANCH   1  21
BRANCH   2  23
ATOM     23  O   LIG A   1      -9.352  -1.796 124.063  0.00  0.00    -0.496 OA
ATOM     24  C   LIG A   1      -9.382  -2.929 123.194  0.00  0.00    +0.277 C 
ENDBRANCH   2  23
BRANCH   6  25
ATOM     25  C   LIG A   1      -7.734  -2.199 129.597  0.00  0.00    +0.065 C 
BRANCH  25  26
ATOM     26  C   LIG A   1      -6.329  -2.603 129.949  0.00  0.00    -0.030 C 
ATOM     27  C   LIG A   1      -5.909  -3.873 130.036  0.00  0.00    +0.004 C 
ENDBRANCH  25  26
ENDBRANCH   6  25
TORSDOF 9
ENDMDL
MODEL 5
REMARK VINA RESULT:      -5.9      2.811      5.010
REMARK  Name = NuBBE_2178
REMARK  13 active torsions:
REMARK  status: ('A' for Active; 'I' for Inactive)
REMARK    1  A    between atoms: C_1  and  C_3
REMARK    2  A    between atoms: C_1  and  C_13
REMARK    3  A    between atoms: C_1  and  C_14
REMARK    4  A    between atoms: C_3  and  C_4
REMARK    5  A    between atoms: C_6  and  O_7
REMARK    6  A    between atoms: O_7  and  C_8
REMARK    7  A    between atoms: C_9  and  O_12
REMARK    8  A    between atoms: C_14  and  O_15
REMARK    9  A    between atoms: O_15  and  C_16
REMARK   10  A    between atoms: C_17  and  O_26
REMARK   11  A    between atoms: C_21  and  C_23
REMARK   12  A    between atoms: C_23  and  C_24
REMARK   13  A    between atoms: O_26  and  C_27
REMARK                            x       y       z     vdW  Elec       q    Type
REMARK                         _______ _______ _______ _____ _____    ______ ____
ROOT
ATOM      1  C   LIG A   1      -7.810  -0.772 125.320  0.00  0.00    +0.147 C 
ATOM      2  C   LIG A   1      -8.448  -0.667 123.915  0.00  0.00    +0.137 C 
ATOM      3  C   LIG A   1      -7.812  -1.102 122.813  0.00  0.00    +0.095 C 
ATOM      4  C   LIG A   1      -6.484  -1.742 122.862  0.00  0.00    +0.185 C 
ATOM      5  O   LIG A   1      -5.920  -2.052 121.814  0.00  0.00    -0.287 OA
ATOM      6  C   LIG A   1      -5.903  -2.042 124.194  0.00  0.00    +0.002 C 
ATOM      7  C   LIG A   1      -6.536  -1.593 125.293  0.00  0.00    +0.023 C 
ENDROOT
BRANCH   1   8
ATOM      8  C   LIG A   1      -7.534   0.656 125.964  0.00  0.00    +0.034 C 
ATOM      9  C   LIG A   1      -8.807   1.336 126.487  0.00  0.00    +0.011 C 
BRANCH   8  10
ATOM     10  C   LIG A   1      -6.791   1.626 124.986  0.00  0.00    +0.042 C 
BRANCH  10  11
ATOM     11  C   LIG A   1      -5.895   2.677 125.623  0.00  0.00    -0.043 A 
ATOM     12  C   LIG A   1      -4.675   2.309 126.232  0.00  0.00    +0.053 A 
ATOM     13  C   LIG A   1      -3.851   3.270 126.825  0.00  0.00    +0.162 A 
ATOM     14  C   LIG A   1      -4.282   4.601 126.852  0.00  0.00    +0.159 A 
ATOM     15  C   LIG A   1      -5.483   4.983 126.269  0.00  0.00    +0.049 A 
ATOM     16  C   LIG A   1      -6.286   4.024 125.647  0.00  0.00    +0.007 A 
BRANCH  13  17
ATOM     17  O   LIG A   1      -2.627   3.048 127.403  0.00  0.00    -0.491 OA
ATOM     18  C   LIG A   1      -1.515   2.923 126.524  0.00  0.00    +0.277 C 
ENDBRANCH  13  17
BRANCH  14  19
ATOM     19  O   LIG A   1      -3.520   5.560 127.464  0.00  0.00    -0.503 OA
ATOM     20  H   LIG A   1      -3.876   6.409 127.137  0.00  0.00    +0.292 HD
ENDBRANCH  14  19
ENDBRANCH  10  11
ENDBRANCH   8  10
ENDBRANCH   1   8
BRANCH   1  21
ATOM     21  O   LIG A   1      -8.732  -1.441 126.220  0.00  0.00    -0.364 OA
ATOM     22  C   LIG A   1      -8.192  -2.486 127.024  0.00  0.00    +0.195 C 
ENDBRANCH   1  21
BRANCH   2  23
ATOM     23  O   LIG A   1      -9.749  -0.165 123.896  0.00  0.00    -0.496 OA
ATOM     24  C   LIG A   1     -10.059   0.759 122.851  0.00  0.00    +0.277 C 
ENDBRANCH   2  23
BRANCH   6  25
ATOM     25  C   LIG A   1      -4.675  -2.912 124.231  0.00  0.00    +0.065 C 
BRANCH  25  26
ATOM     26  C   LIG A   1      -4.970  -4.369 124.009  0.00  0.00    -0.030 C 
ATOM     27  C   LIG A   1      -4.188  -5.198 123.304  0.00  0.00    +0.004 C 
ENDBRANCH  25  26
ENDBRANCH   6  25
TORSDOF 9
ENDMDL
MODEL 6
REMARK VINA RESULT:      -5.9      2.980      5.594
REMARK  Name = NuBBE_2178
REMARK  13 active torsions:
REMARK  status: ('A' for Active; 'I' for Inactive)
REMARK    1  A    between atoms: C_1  and  C_3
REMARK    2  A    between atoms: C_1  and  C_13
REMARK    3  A    between atoms: C_1  and  C_14
REMARK    4  A    between atoms: C_3  and  C_4
REMARK    5  A    between atoms: C_6  and  O_7
REMARK    6  A    between atoms: O_7  and  C_8
REMARK    7  A    between atoms: C_9  and  O_12
REMARK    8  A    between atoms: C_14  and  O_15
REMARK    9  A    between atoms: O_15  and  C_16
REMARK   10  A    between atoms: C_17  and  O_26
REMARK   11  A    between atoms: C_21  and  C_23
REMARK   12  A    between atoms: C_23  and  C_24
REMARK   13  A    between atoms: O_26  and  C_27
REMARK                            x       y       z     vdW  Elec       q    Type
REMARK                         _______ _______ _______ _____ _____    ______ ____
ROOT
ATOM      1  C   LIG A   1      -6.229  -1.038 126.936  0.00  0.00    +0.147 C 
ATOM      2  C   LIG A   1      -7.447  -1.930 127.274  0.00  0.00    +0.137 C 
ATOM      3  C   LIG A   1      -8.002  -2.748 126.363  0.00  0.00    +0.095 C 
ATOM      4  C   LIG A   1      -7.474  -2.888 124.993  0.00  0.00    +0.185 C 
ATOM      5  O   LIG A   1      -8.068  -3.596 124.182  0.00  0.00    -0.287 OA
ATOM      6  C   LIG A   1      -6.199  -2.204 124.664  0.00  0.00    +0.002 C 
ATOM      7  C   LIG A   1      -5.654  -1.375 125.574  0.00  0.00    +0.023 C 
ENDROOT
BRANCH   1   8
ATOM      8  C   LIG A   1      -6.576   0.513 127.020  0.00  0.00    +0.034 C 
ATOM      9  C   LIG A   1      -8.078   0.801 126.884  0.00  0.00    +0.011 C 
BRANCH   8  10
ATOM     10  C   LIG A   1      -5.786   1.366 125.973  0.00  0.00    +0.042 C 
BRANCH  10  11
ATOM     11  C   LIG A   1      -4.842   2.420 126.531  0.00  0.00    -0.043 A 
ATOM     12  C   LIG A   1      -5.344   3.530 127.245  0.00  0.00    +0.053 A 
ATOM     13  C   LIG A   1      -4.481   4.504 127.755  0.00  0.00    +0.162 A 
ATOM     14  C   LIG A   1      -3.110   4.389 127.498  0.00  0.00    +0.159 A 
ATOM     15  C   LIG A   1      -2.596   3.313 126.788  0.00  0.00    +0.049 A 
ATOM     16  C   LIG A   1      -3.460   2.323 126.312  0.00  0.00    +0.007 A 
BRANCH  13  17
ATOM     17  O   LIG A   1      -4.838   5.597 128.503  0.00  0.00    -0.491 OA
ATOM     18  C   LIG A   1      -5.366   5.343 129.800  0.00  0.00    +0.277 C 
ENDBRANCH  13  17
BRANCH  14  19
ATOM     19  O   LIG A   1      -2.242   5.350 127.945  0.00  0.00    -0.503 OA
ATOM     20  H   LIG A   1      -2.538   5.552 128.854  0.00  0.00    +0.292 HD
ENDBRANCH  14  19
ENDBRANCH  10  11
ENDBRANCH   8  10
ENDBRANCH   1   8
BRANCH   1  21
ATOM     21  O   LIG A   1      -5.180  -1.263 127.912  0.00  0.00    -0.364 OA
ATOM     22  C   LIG A   1      -5.127  -0.356 129.010  0.00  0.00    +0.195 C 
ENDBRANCH   1  21
BRANCH   2  23
ATOM     23  O   LIG A   1      -7.865  -1.873 128.603  0.00  0.00    -0.496 OA
ATOM     24  C   LIG A   1      -8.156  -3.122 129.233  0.00  0.00    +0.277 C 
ENDBRANCH   2  23
BRANCH   6  25
ATOM     25  C   LIG A   1      -5.547  -2.553 123.353  0.00  0.00    +0.065 C 
BRANCH  25  26
ATOM     26  C   LIG A   1      -4.361  -3.466 123.502  0.00  0.00    -0.030 C 
ATOM     27  C   LIG A   1      -4.446  -4.798 123.620  0.00  0.00    +0.004 C 
ENDBRANCH  25  26
ENDBRANCH   6  25
TORSDOF 9
ENDMDL
MODEL 7
REMARK VINA RESULT:      -5.9      2.206      6.208
REMARK  Name = NuBBE_2178
REMARK  13 active torsions:
REMARK  status: ('A' for Active; 'I' for Inactive)
REMARK    1  A    between atoms: C_1  and  C_3
REMARK    2  A    between atoms: C_1  and  C_13
REMARK    3  A    between atoms: C_1  and  C_14
REMARK    4  A    between atoms: C_3  and  C_4
REMARK    5  A    between atoms: C_6  and  O_7
REMARK    6  A    between atoms: O_7  and  C_8
REMARK    7  A    between atoms: C_9  and  O_12
REMARK    8  A    between atoms: C_14  and  O_15
REMARK    9  A    between atoms: O_15  and  C_16
REMARK   10  A    between atoms: C_17  and  O_26
REMARK   11  A    between atoms: C_21  and  C_23
REMARK   12  A    between atoms: C_23  and  C_24
REMARK   13  A    between atoms: O_26  and  C_27
REMARK                            x       y       z     vdW  Elec       q    Type
REMARK                         _______ _______ _______ _____ _____    ______ ____
ROOT
ATOM      1  C   LIG A   1      -8.147   1.335 124.217  0.00  0.00    +0.147 C 
ATOM      2  C   LIG A   1      -8.003   2.307 125.412  0.00  0.00    +0.137 C 
ATOM      3  C   LIG A   1      -7.272   3.432 125.328  0.00  0.00    +0.095 C 
ATOM      4  C   LIG A   1      -6.588   3.844 124.088  0.00  0.00    +0.185 C 
ATOM      5  O   LIG A   1      -5.873   4.845 124.092  0.00  0.00    -0.287 OA
ATOM      6  C   LIG A   1      -6.840   3.056 122.856  0.00  0.00    +0.002 C 
ATOM      7  C   LIG A   1      -7.561   1.923 122.948  0.00  0.00    +0.023 C 
ENDROOT
BRANCH   1   8
ATOM      8  C   LIG A   1      -7.501  -0.088 124.516  0.00  0.00    +0.034 C 
ATOM      9  C   LIG A   1      -6.736  -0.664 123.316  0.00  0.00    +0.011 C 
BRANCH   8  10
ATOM     10  C   LIG A   1      -8.551  -1.136 125.014  0.00  0.00    +0.042 C 
BRANCH  10  11
ATOM     11  C   LIG A   1      -8.269  -1.793 126.357  0.00  0.00    -0.043 A 
ATOM     12  C   LIG A   1      -7.294  -1.259 127.228  0.00  0.00    +0.053 A 
ATOM     13  C   LIG A   1      -7.027  -1.862 128.461  0.00  0.00    +0.162 A 
ATOM     14  C   LIG A   1      -7.705  -3.040 128.794  0.00  0.00    +0.159 A 
ATOM     15  C   LIG A   1      -8.659  -3.589 127.947  0.00  0.00    +0.049 A 
ATOM     16  C   LIG A   1      -8.948  -2.961 126.732  0.00  0.00    +0.007 A 
BRANCH  13  17
ATOM     17  O   LIG A   1      -6.144  -1.416 129.411  0.00  0.00    -0.491 OA
ATOM     18  C   LIG A   1      -5.523  -0.159 129.170  0.00  0.00    +0.277 C 
ENDBRANCH  13  17
BRANCH  14  19
ATOM     19  O   LIG A   1      -7.434  -3.681 129.973  0.00  0.00    -0.503 OA
ATOM     20  H   LIG A   1      -7.405  -2.971 130.644  0.00  0.00    +0.292 HD
ENDBRANCH  14  19
ENDBRANCH  10  11
ENDBRANCH   8  10
ENDBRANCH   1   8
BRANCH   1  21
ATOM     21  O   LIG A   1      -9.554   1.086 123.964  0.00  0.00    -0.364 OA
ATOM     22  C   LIG A   1      -9.979   1.157 122.606  0.00  0.00    +0.195 C 
ENDBRANCH   1  21
BRANCH   2  23
ATOM     23  O   LIG A   1      -8.746   1.963 126.541  0.00  0.00    -0.496 OA
ATOM     24  C   LIG A   1      -8.153   2.255 127.807  0.00  0.00    +0.277 C 
ENDBRANCH   2  23
BRANCH   6  25
ATOM     25  C   LIG A   1      -6.341   3.627 121.556  0.00  0.00    +0.065 C 
BRANCH  25  26
ATOM     26  C   LIG A   1      -7.434   3.870 120.553  0.00  0.00    -0.030 C 
ATOM     27  C   LIG A   1      -7.228   4.321 119.308  0.00  0.00    +0.004 C 
ENDBRANCH  25  26
ENDBRANCH   6  25
TORSDOF 9
ENDMDL
MODEL 8
REMARK VINA RESULT:      -5.9      3.569      6.901
REMARK  Name = NuBBE_2178
REMARK  13 active torsions:
REMARK  status: ('A' for Active; 'I' for Inactive)
REMARK    1  A    between atoms: C_1  and  C_3
REMARK    2  A    between atoms: C_1  and  C_13
REMARK    3  A    between atoms: C_1  and  C_14
REMARK    4  A    between atoms: C_3  and  C_4
REMARK    5  A    between atoms: C_6  and  O_7
REMARK    6  A    between atoms: O_7  and  C_8
REMARK    7  A    between atoms: C_9  and  O_12
REMARK    8  A    between atoms: C_14  and  O_15
REMARK    9  A    between atoms: O_15  and  C_16
REMARK   10  A    between atoms: C_17  and  O_26
REMARK   11  A    between atoms: C_21  and  C_23
REMARK   12  A    between atoms: C_23  and  C_24
REMARK   13  A    between atoms: O_26  and  C_27
REMARK                            x       y       z     vdW  Elec       q    Type
REMARK                         _______ _______ _______ _____ _____    ______ ____
ROOT
ATOM      1  C   LIG A   1      -7.268  -1.925 126.123  0.00  0.00    +0.147 C 
ATOM      2  C   LIG A   1      -7.194  -2.644 124.755  0.00  0.00    +0.137 C 
ATOM      3  C   LIG A   1      -7.999  -2.308 123.733  0.00  0.00    +0.095 C 
ATOM      4  C   LIG A   1      -8.982  -1.211 123.821  0.00  0.00    +0.185 C 
ATOM      5  O   LIG A   1      -9.742  -0.999 122.878  0.00  0.00    -0.287 OA
ATOM      6  C   LIG A   1      -8.971  -0.362 125.038  0.00  0.00    +0.002 C 
ATOM      7  C   LIG A   1      -8.173  -0.710 126.064  0.00  0.00    +0.023 C 
ENDROOT
BRANCH   1   8
ATOM      8  C   LIG A   1      -7.727  -2.900 127.293  0.00  0.00    +0.034 C 
ATOM      9  C   LIG A   1      -9.049  -3.619 126.992  0.00  0.00    +0.011 C 
BRANCH   8  10
ATOM     10  C   LIG A   1      -7.834  -2.175 128.676  0.00  0.00    +0.042 C 
BRANCH  10  11
ATOM     11  C   LIG A   1      -7.189  -2.877 129.861  0.00  0.00    -0.043 A 
ATOM     12  C   LIG A   1      -7.450  -2.446 131.181  0.00  0.00    +0.053 A 
ATOM     13  C   LIG A   1      -6.855  -3.084 132.274  0.00  0.00    +0.162 A 
ATOM     14  C   LIG A   1      -5.952  -4.125 132.034  0.00  0.00    +0.159 A 
ATOM     15  C   LIG A   1      -5.672  -4.558 130.745  0.00  0.00    +0.049 A 
ATOM     16  C   LIG A   1      -6.297  -3.940 129.658  0.00  0.00    +0.007 A 
BRANCH  13  17
ATOM     17  O   LIG A   1      -7.063  -2.794 133.598  0.00  0.00    -0.491 OA
ATOM     18  C   LIG A   1      -8.277  -3.261 134.174  0.00  0.00    +0.277 C 
ENDBRANCH  13  17
BRANCH  14  19
ATOM     19  O   LIG A   1      -5.317  -4.741 133.080  0.00  0.00    -0.503 OA
ATOM     20  H   LIG A   1      -5.732  -4.365 133.881  0.00  0.00    +0.292 HD
ENDBRANCH  14  19
ENDBRANCH  10  11
ENDBRANCH   8  10
ENDBRANCH   1   8
BRANCH   1  21
ATOM     21  O   LIG A   1      -5.945  -1.456 126.494  0.00  0.00    -0.364 OA
ATOM     22  C   LIG A   1      -5.489  -0.267 125.854  0.00  0.00    +0.195 C 
ENDBRANCH   1  21
BRANCH   2  23
ATOM     23  O   LIG A   1      -6.185  -3.601 124.650  0.00  0.00    -0.496 OA
ATOM     24  C   LIG A   1      -5.194  -3.372 123.646  0.00  0.00    +0.277 C 
ENDBRANCH   2  23
BRANCH   6  25
ATOM     25  C   LIG A   1      -9.799   0.895 125.009  0.00  0.00    +0.065 C 
BRANCH  25  26
ATOM     26  C   LIG A   1      -9.043   2.095 124.511  0.00  0.00    -0.030 C 
ATOM     27  C   LIG A   1      -8.950   2.445 123.220  0.00  0.00    +0.004 C 
ENDBRANCH  25  26
ENDBRANCH   6  25
TORSDOF 9
ENDMDL
MODEL 9
REMARK VINA RESULT:      -5.9      2.496      5.502
REMARK  Name = NuBBE_2178
REMARK  13 active torsions:
REMARK  status: ('A' for Active; 'I' for Inactive)
REMARK    1  A    between atoms: C_1  and  C_3
REMARK    2  A    between atoms: C_1  and  C_13
REMARK    3  A    between atoms: C_1  and  C_14
REMARK    4  A    between atoms: C_3  and  C_4
REMARK    5  A    between atoms: C_6  and  O_7
REMARK    6  A    between atoms: O_7  and  C_8
REMARK    7  A    between atoms: C_9  and  O_12
REMARK    8  A    between atoms: C_14  and  O_15
REMARK    9  A    between atoms: O_15  and  C_16
REMARK   10  A    between atoms: C_17  and  O_26
REMARK   11  A    between atoms: C_21  and  C_23
REMARK   12  A    between atoms: C_23  and  C_24
REMARK   13  A    between atoms: O_26  and  C_27
REMARK                            x       y       z     vdW  Elec       q    Type
REMARK                         _______ _______ _______ _____ _____    ______ ____
ROOT
ATOM      1  C   LIG A   1      -7.289   0.032 124.252  0.00  0.00    +0.147 C 
ATOM      2  C   LIG A   1      -8.821   0.128 124.446  0.00  0.00    +0.137 C 
ATOM      3  C   LIG A   1      -9.364   0.685 125.542  0.00  0.00    +0.095 C 
ATOM      4  C   LIG A   1      -8.550   1.278 126.620  0.00  0.00    +0.185 C 
ATOM      5  O   LIG A   1      -9.100   1.706 127.632  0.00  0.00    -0.287 OA
ATOM      6  C   LIG A   1      -7.085   1.386 126.407  0.00  0.00    +0.002 C 
ATOM      7  C   LIG A   1      -6.544   0.816 125.315  0.00  0.00    +0.023 C 
ENDROOT
BRANCH   1   8
ATOM      8  C   LIG A   1      -6.779  -1.474 124.217  0.00  0.00    +0.034 C 
ATOM      9  C   LIG A   1      -6.411  -1.952 122.806  0.00  0.00    +0.011 C 
BRANCH   8  10
ATOM     10  C   LIG A   1      -7.803  -2.473 124.852  0.00  0.00    +0.042 C 
BRANCH  10  11
ATOM     11  C   LIG A   1      -7.698  -2.690 126.354  0.00  0.00    -0.043 A 
ATOM     12  C   LIG A   1      -6.530  -2.315 127.054  0.00  0.00    +0.053 A 
ATOM     13  C   LIG A   1      -6.425  -2.517 128.434  0.00  0.00    +0.162 A 
ATOM     14  C   LIG A   1      -7.479  -3.149 129.102  0.00  0.00    +0.159 A 
ATOM     15  C   LIG A   1      -8.631  -3.536 128.432  0.00  0.00    +0.049 A 
ATOM     16  C   LIG A   1      -8.746  -3.299 127.060  0.00  0.00    +0.007 A 
BRANCH  13  17
ATOM     17  O   LIG A   1      -5.370  -2.155 129.231  0.00  0.00    -0.491 OA
ATOM     18  C   LIG A   1      -4.166  -2.900 129.081  0.00  0.00    +0.277 C 
ENDBRANCH  13  17
BRANCH  14  19
ATOM     19  O   LIG A   1      -7.389  -3.403 130.445  0.00  0.00    -0.503 OA
ATOM     20  H   LIG A   1      -7.902  -4.225 130.579  0.00  0.00    +0.292 HD
ENDBRANCH  14  19
ENDBRANCH  10  11
ENDBRANCH   8  10
ENDBRANCH   1   8
BRANCH   1  21
ATOM     21  O   LIG A   1      -6.928   0.602 122.968  0.00  0.00    -0.364 OA
ATOM     22  C   LIG A   1      -6.906   2.025 122.886  0.00  0.00    +0.195 C 
ENDBRANCH   1  21
BRANCH   2  23
ATOM     23  O   LIG A   1      -9.579  -0.333 123.369  0.00  0.00    -0.496 OA
ATOM     24  C   LIG A   1     -10.308   0.654 122.636  0.00  0.00    +0.277 C 
ENDBRANCH   2  23
BRANCH   6  25
ATOM     25  C   LIG A   1      -6.304   2.211 127.396  0.00  0.00    +0.065 C 
BRANCH  25  26
ATOM     26  C   LIG A   1      -5.559   3.353 126.761  0.00  0.00    -0.030 C 
ATOM     27  C   LIG A   1      -4.245   3.341 126.495  0.00  0.00    +0.004 C 
ENDBRANCH  25  26
ENDBRANCH   6  25
TORSDOF 9
ENDMDL
