MODEL 1
REMARK VINA RESULT:      -7.6      0.000      0.000
REMARK  Name = NuBBE_2234
REMARK  3 active torsions:
REMARK  status: ('A' for Active; 'I' for Inactive)
REMARK    1  A    between atoms: C_11  and  C_12
REMARK    2  A    between atoms: C_11  and  C_13
REMARK    3  A    between atoms: C_17  and  C_18
REMARK                            x       y       z     vdW  Elec       q    Type
REMARK                         _______ _______ _______ _____ _____    ______ ____
ROOT
ATOM      1  O   LIG A   1      -8.529  -3.852 126.457  0.00  0.00    -0.297 OA
ATOM      2  C   LIG A   1      -8.246  -3.118 127.387  0.00  0.00    +0.138 C 
ATOM      3  C   LIG A   1      -7.568  -1.755 127.152  0.00  0.00    +0.068 C 
ATOM      4  C   LIG A   1      -6.677  -1.412 128.451  0.00  0.00    -0.015 C 
ATOM      5  C   LIG A   1      -5.648  -2.518 128.815  0.00  0.00    +0.038 C 
ATOM      6  C   LIG A   1      -6.026  -0.030 128.420  0.00  0.00    +0.008 C 
ATOM      7  C   LIG A   1      -5.533   0.351 127.063  0.00  0.00    +0.005 C 
ATOM      8  C   LIG A   1      -6.467  -0.010 125.917  0.00  0.00    +0.001 C 
ATOM      9  C   LIG A   1      -7.832   0.877 125.606  0.00  0.00    -0.032 C 
ATOM     10  C   LIG A   1      -9.278   0.280 125.220  0.00  0.00    +0.011 C 
ATOM     11  C   LIG A   1      -8.206   1.855 126.721  0.00  0.00    +0.011 C 
ATOM     12  C   LIG A   1      -7.390   1.382 124.238  0.00  0.00    +0.007 C 
ATOM     13  C   LIG A   1      -7.129   0.056 123.400  0.00  0.00    +0.001 C 
ATOM     14  C   LIG A   1      -7.375  -1.388 124.198  0.00  0.00    +0.007 C 
ATOM     15  C   LIG A   1      -6.803  -1.482 125.731  0.00  0.00    -0.019 C 
ATOM     16  C   LIG A   1      -5.644  -2.496 125.608  0.00  0.00    +0.012 C 
ATOM     17  C   LIG A   1      -8.739  -3.415 128.817  0.00  0.00    +0.082 C 
ATOM     18  C   LIG A   1      -7.811  -2.900 129.915  0.00  0.00    +0.022 C 
ATOM     19  C   LIG A   1      -7.573  -1.419 129.713  0.00  0.00    +0.016 C 
ATOM     20  C   LIG A   1      -6.421  -3.439 129.723  0.00  0.00    -0.073 C 
ATOM     21  C   LIG A   1      -5.918  -4.541 130.284  0.00  0.00    +0.008 C 
ENDROOT
TORSDOF 0
ENDMDL
MODEL 2
REMARK VINA RESULT:      -7.5      1.749      3.539
REMARK  Name = NuBBE_2234
REMARK  3 active torsions:
REMARK  status: ('A' for Active; 'I' for Inactive)
REMARK    1  A    between atoms: C_11  and  C_12
REMARK    2  A    between atoms: C_11  and  C_13
REMARK    3  A    between atoms: C_17  and  C_18
REMARK                            x       y       z     vdW  Elec       q    Type
REMARK                         _______ _______ _______ _____ _____    ______ ____
ROOT
ATOM      1  O   LIG A   1      -5.031  -0.582 127.961  0.00  0.00    -0.297 OA
ATOM      2  C   LIG A   1      -5.632  -1.598 128.261  0.00  0.00    +0.138 C 
ATOM      3  C   LIG A   1      -6.748  -2.163 127.362  0.00  0.00    +0.068 C 
ATOM      4  C   LIG A   1      -7.794  -2.952 128.303  0.00  0.00    -0.015 C 
ATOM      5  C   LIG A   1      -8.363  -2.092 129.465  0.00  0.00    +0.038 C 
ATOM      6  C   LIG A   1      -8.906  -3.670 127.541  0.00  0.00    +0.008 C 
ATOM      7  C   LIG A   1      -9.407  -2.891 126.369  0.00  0.00    +0.005 C 
ATOM      8  C   LIG A   1      -8.325  -2.204 125.548  0.00  0.00    +0.001 C 
ATOM      9  C   LIG A   1      -7.367  -3.056 124.498  0.00  0.00    -0.032 C 
ATOM     10  C   LIG A   1      -5.779  -2.866 124.301  0.00  0.00    +0.011 C 
ATOM     11  C   LIG A   1      -7.464  -4.574 124.660  0.00  0.00    +0.011 C 
ATOM     12  C   LIG A   1      -7.866  -2.372 123.231  0.00  0.00    +0.007 C 
ATOM     13  C   LIG A   1      -7.556  -0.832 123.473  0.00  0.00    +0.001 C 
ATOM     14  C   LIG A   1      -6.850  -0.436 124.932  0.00  0.00    +0.007 C 
ATOM     15  C   LIG A   1      -7.455  -1.180 126.262  0.00  0.00    -0.019 C 
ATOM     16  C   LIG A   1      -8.144  -0.025 127.022  0.00  0.00    +0.012 C 
ATOM     17  C   LIG A   1      -5.168  -2.483 129.435  0.00  0.00    +0.082 C 
ATOM     18  C   LIG A   1      -6.297  -3.248 130.124  0.00  0.00    +0.022 C 
ATOM     19  C   LIG A   1      -7.052  -4.057 129.092  0.00  0.00    +0.016 C 
ATOM     20  C   LIG A   1      -7.371  -2.299 130.580  0.00  0.00    -0.073 C 
ATOM     21  C   LIG A   1      -7.469  -1.742 131.789  0.00  0.00    +0.008 C 
ENDROOT
TORSDOF 0
ENDMDL
MODEL 3
REMARK VINA RESULT:      -7.5      1.706      5.565
REMARK  Name = NuBBE_2234
REMARK  3 active torsions:
REMARK  status: ('A' for Active; 'I' for Inactive)
REMARK    1  A    between atoms: C_11  and  C_12
REMARK    2  A    between atoms: C_11  and  C_13
REMARK    3  A    between atoms: C_17  and  C_18
REMARK                            x       y       z     vdW  Elec       q    Type
REMARK                         _______ _______ _______ _____ _____    ______ ____
ROOT
ATOM      1  O   LIG A   1      -9.353  -3.744 128.869  0.00  0.00    -0.297 OA
ATOM      2  C   LIG A   1      -8.471  -3.326 128.140  0.00  0.00    +0.138 C 
ATOM      3  C   LIG A   1      -7.146  -2.789 128.716  0.00  0.00    +0.068 C 
ATOM      4  C   LIG A   1      -6.573  -1.681 127.695  0.00  0.00    -0.015 C 
ATOM      5  C   LIG A   1      -7.578  -0.537 127.383  0.00  0.00    +0.038 C 
ATOM      6  C   LIG A   1      -5.199  -1.131 128.071  0.00  0.00    +0.008 C 
ATOM      7  C   LIG A   1      -5.030  -0.938 129.542  0.00  0.00    +0.005 C 
ATOM      8  C   LIG A   1      -5.598  -2.058 130.403  0.00  0.00    +0.001 C 
ATOM      9  C   LIG A   1      -4.810  -3.507 130.562  0.00  0.00    -0.032 C 
ATOM     10  C   LIG A   1      -5.499  -4.964 130.548  0.00  0.00    +0.011 C 
ATOM     11  C   LIG A   1      -3.673  -3.710 129.559  0.00  0.00    +0.011 C 
ATOM     12  C   LIG A   1      -4.523  -3.374 132.053  0.00  0.00    +0.007 C 
ATOM     13  C   LIG A   1      -5.959  -3.206 132.712  0.00  0.00    +0.001 C 
ATOM     14  C   LIG A   1      -7.261  -3.205 131.668  0.00  0.00    +0.007 C 
ATOM     15  C   LIG A   1      -7.089  -2.337 130.288  0.00  0.00    -0.019 C 
ATOM     16  C   LIG A   1      -8.078  -1.167 130.488  0.00  0.00    +0.012 C 
ATOM     17  C   LIG A   1      -8.543  -3.509 126.612  0.00  0.00    +0.082 C 
ATOM     18  C   LIG A   1      -7.832  -2.414 125.819  0.00  0.00    +0.022 C 
ATOM     19  C   LIG A   1      -6.398  -2.308 126.291  0.00  0.00    +0.016 C 
ATOM     20  C   LIG A   1      -8.359  -1.060 126.205  0.00  0.00    -0.073 C 
ATOM     21  C   LIG A   1      -9.341  -0.393 125.596  0.00  0.00    +0.008 C 
ENDROOT
TORSDOF 0
ENDMDL
MODEL 4
REMARK VINA RESULT:      -7.4      2.960      4.758
REMARK  Name = NuBBE_2234
REMARK  3 active torsions:
REMARK  status: ('A' for Active; 'I' for Inactive)
REMARK    1  A    between atoms: C_11  and  C_12
REMARK    2  A    between atoms: C_11  and  C_13
REMARK    3  A    between atoms: C_17  and  C_18
REMARK                            x       y       z     vdW  Elec       q    Type
REMARK                         _______ _______ _______ _____ _____    ______ ____
ROOT
ATOM      1  O   LIG A   1      -5.218  -0.700 126.152  0.00  0.00    -0.297 OA
ATOM      2  C   LIG A   1      -5.956  -0.837 125.193  0.00  0.00    +0.138 C 
ATOM      3  C   LIG A   1      -7.060   0.191 124.880  0.00  0.00    +0.068 C 
ATOM      4  C   LIG A   1      -8.259  -0.581 124.128  0.00  0.00    -0.015 C 
ATOM      5  C   LIG A   1      -8.809  -1.803 124.915  0.00  0.00    +0.038 C 
ATOM      6  C   LIG A   1      -9.389   0.329 123.648  0.00  0.00    +0.008 C 
ATOM      7  C   LIG A   1      -9.704   1.425 124.613  0.00  0.00    +0.005 C 
ATOM      8  C   LIG A   1      -8.489   2.088 125.247  0.00  0.00    +0.001 C 
ATOM      9  C   LIG A   1      -7.563   3.175 124.406  0.00  0.00    -0.032 C 
ATOM     10  C   LIG A   1      -5.954   3.250 124.415  0.00  0.00    +0.011 C 
ATOM     11  C   LIG A   1      -7.851   3.206 122.904  0.00  0.00    +0.011 C 
ATOM     12  C   LIG A   1      -7.881   4.376 125.288  0.00  0.00    +0.007 C 
ATOM     13  C   LIG A   1      -7.410   3.928 126.739  0.00  0.00    +0.001 C 
ATOM     14  C   LIG A   1      -6.773   2.392 126.873  0.00  0.00    +0.007 C 
ATOM     15  C   LIG A   1      -7.561   1.203 126.064  0.00  0.00    -0.019 C 
ATOM     16  C   LIG A   1      -8.163   0.349 127.203  0.00  0.00    +0.012 C 
ATOM     17  C   LIG A   1      -5.689  -1.920 124.128  0.00  0.00    +0.082 C 
ATOM     18  C   LIG A   1      -6.950  -2.440 123.439  0.00  0.00    +0.022 C 
ATOM     19  C   LIG A   1      -7.715  -1.272 122.855  0.00  0.00    +0.016 C 
ATOM     20  C   LIG A   1      -7.935  -2.943 124.458  0.00  0.00    -0.073 C 
ATOM     21  C   LIG A   1      -8.057  -4.203 124.881  0.00  0.00    +0.008 C 
ENDROOT
TORSDOF 0
ENDMDL
MODEL 5
REMARK VINA RESULT:      -7.4      2.520      5.077
REMARK  Name = NuBBE_2234
REMARK  3 active torsions:
REMARK  status: ('A' for Active; 'I' for Inactive)
REMARK    1  A    between atoms: C_11  and  C_12
REMARK    2  A    between atoms: C_11  and  C_13
REMARK    3  A    between atoms: C_17  and  C_18
REMARK                            x       y       z     vdW  Elec       q    Type
REMARK                         _______ _______ _______ _____ _____    ______ ____
ROOT
ATOM      1  O   LIG A   1      -7.987   2.200 123.570  0.00  0.00    -0.297 OA
ATOM      2  C   LIG A   1      -7.106   1.919 124.362  0.00  0.00    +0.138 C 
ATOM      3  C   LIG A   1      -6.995   0.506 124.968  0.00  0.00    +0.068 C 
ATOM      4  C   LIG A   1      -6.319   0.641 126.425  0.00  0.00    -0.015 C 
ATOM      5  C   LIG A   1      -7.063   1.623 127.372  0.00  0.00    +0.038 C 
ATOM      6  C   LIG A   1      -6.036  -0.693 127.113  0.00  0.00    +0.008 C 
ATOM      7  C   LIG A   1      -7.111  -1.705 126.886  0.00  0.00    +0.005 C 
ATOM      8  C   LIG A   1      -7.660  -1.749 125.467  0.00  0.00    +0.001 C 
ATOM      9  C   LIG A   1      -6.811  -2.463 124.236  0.00  0.00    -0.032 C 
ATOM     10  C   LIG A   1      -6.652  -1.885 122.740  0.00  0.00    +0.011 C 
ATOM     11  C   LIG A   1      -5.356  -2.779 124.586  0.00  0.00    +0.011 C 
ATOM     12  C   LIG A   1      -7.813  -3.581 123.974  0.00  0.00    +0.007 C 
ATOM     13  C   LIG A   1      -9.165  -2.818 123.632  0.00  0.00    +0.001 C 
ATOM     14  C   LIG A   1      -9.110  -1.151 123.672  0.00  0.00    +0.007 C 
ATOM     15  C   LIG A   1      -8.301  -0.478 124.930  0.00  0.00    -0.019 C 
ATOM     16  C   LIG A   1      -9.428   0.187 125.751  0.00  0.00    +0.012 C 
ATOM     17  C   LIG A   1      -5.938   2.888 124.634  0.00  0.00    +0.082 C 
ATOM     18  C   LIG A   1      -5.351   2.776 126.040  0.00  0.00    +0.022 C 
ATOM     19  C   LIG A   1      -4.945   1.342 126.298  0.00  0.00    +0.016 C 
ATOM     20  C   LIG A   1      -6.427   2.956 127.074  0.00  0.00    -0.073 C 
ATOM     21  C   LIG A   1      -6.762   4.102 127.672  0.00  0.00    +0.008 C 
ENDROOT
TORSDOF 0
ENDMDL
MODEL 6
REMARK VINA RESULT:      -7.2      2.273      4.187
REMARK  Name = NuBBE_2234
REMARK  3 active torsions:
REMARK  status: ('A' for Active; 'I' for Inactive)
REMARK    1  A    between atoms: C_11  and  C_12
REMARK    2  A    between atoms: C_11  and  C_13
REMARK    3  A    between atoms: C_17  and  C_18
REMARK                            x       y       z     vdW  Elec       q    Type
REMARK                         _______ _______ _______ _____ _____    ______ ____
ROOT
ATOM      1  O   LIG A   1      -6.585   2.011 125.260  0.00  0.00    -0.297 OA
ATOM      2  C   LIG A   1      -6.344   1.078 126.004  0.00  0.00    +0.138 C 
ATOM      3  C   LIG A   1      -7.093  -0.263 125.876  0.00  0.00    +0.068 C 
ATOM      4  C   LIG A   1      -7.143  -0.946 127.335  0.00  0.00    -0.015 C 
ATOM      5  C   LIG A   1      -7.763  -0.037 128.432  0.00  0.00    +0.038 C 
ATOM      6  C   LIG A   1      -7.759  -2.344 127.353  0.00  0.00    +0.008 C 
ATOM      7  C   LIG A   1      -8.928  -2.478 126.432  0.00  0.00    +0.005 C 
ATOM      8  C   LIG A   1      -8.756  -1.804 125.078  0.00  0.00    +0.001 C 
ATOM      9  C   LIG A   1      -7.818  -2.481 123.891  0.00  0.00    -0.032 C 
ATOM     10  C   LIG A   1      -6.795  -1.690 122.930  0.00  0.00    +0.011 C 
ATOM     11  C   LIG A   1      -6.936  -3.632 124.377  0.00  0.00    +0.011 C 
ATOM     12  C   LIG A   1      -8.955  -2.728 122.907  0.00  0.00    +0.007 C 
ATOM     13  C   LIG A   1      -9.578  -1.287 122.663  0.00  0.00    +0.001 C 
ATOM     14  C   LIG A   1      -8.880  -0.023 123.500  0.00  0.00    +0.007 C 
ATOM     15  C   LIG A   1      -8.519  -0.302 125.074  0.00  0.00    -0.019 C 
ATOM     16  C   LIG A   1      -9.517   0.608 125.825  0.00  0.00    +0.012 C 
ATOM     17  C   LIG A   1      -5.139   1.114 126.965  0.00  0.00    +0.082 C 
ATOM     18  C   LIG A   1      -5.337   0.301 128.243  0.00  0.00    +0.022 C 
ATOM     19  C   LIG A   1      -5.705  -1.121 127.877  0.00  0.00    +0.016 C 
ATOM     20  C   LIG A   1      -6.584   0.741 128.957  0.00  0.00    -0.073 C 
ATOM     21  C   LIG A   1      -6.656   1.653 129.929  0.00  0.00    +0.008 C 
ENDROOT
TORSDOF 0
ENDMDL
MODEL 7
REMARK VINA RESULT:      -7.0      2.674      6.297
REMARK  Name = NuBBE_2234
REMARK  3 active torsions:
REMARK  status: ('A' for Active; 'I' for Inactive)
REMARK    1  A    between atoms: C_11  and  C_12
REMARK    2  A    between atoms: C_11  and  C_13
REMARK    3  A    between atoms: C_17  and  C_18
REMARK                            x       y       z     vdW  Elec       q    Type
REMARK                         _______ _______ _______ _____ _____    ______ ____
ROOT
ATOM      1  O   LIG A   1      -4.215  -3.276 128.423  0.00  0.00    -0.297 OA
ATOM      2  C   LIG A   1      -5.193  -2.611 128.713  0.00  0.00    +0.138 C 
ATOM      3  C   LIG A   1      -5.672  -2.487 130.172  0.00  0.00    +0.068 C 
ATOM      4  C   LIG A   1      -7.267  -2.249 130.153  0.00  0.00    -0.015 C 
ATOM      5  C   LIG A   1      -8.054  -3.338 129.373  0.00  0.00    +0.038 C 
ATOM      6  C   LIG A   1      -7.880  -1.994 131.529  0.00  0.00    +0.008 C 
ATOM      7  C   LIG A   1      -7.270  -2.831 132.604  0.00  0.00    +0.005 C 
ATOM      8  C   LIG A   1      -5.756  -2.970 132.526  0.00  0.00    +0.001 C 
ATOM      9  C   LIG A   1      -4.752  -1.738 132.997  0.00  0.00    -0.032 C 
ATOM     10  C   LIG A   1      -3.420  -1.259 132.226  0.00  0.00    +0.011 C 
ATOM     11  C   LIG A   1      -5.465  -0.402 133.211  0.00  0.00    +0.011 C 
ATOM     12  C   LIG A   1      -4.119  -2.483 134.165  0.00  0.00    +0.007 C 
ATOM     13  C   LIG A   1      -3.483  -3.779 133.501  0.00  0.00    +0.001 C 
ATOM     14  C   LIG A   1      -3.690  -3.949 131.855  0.00  0.00    +0.007 C 
ATOM     15  C   LIG A   1      -5.180  -3.600 131.267  0.00  0.00    -0.019 C 
ATOM     16  C   LIG A   1      -5.710  -4.980 130.820  0.00  0.00    +0.012 C 
ATOM     17  C   LIG A   1      -5.869  -1.691 127.677  0.00  0.00    +0.082 C 
ATOM     18  C   LIG A   1      -7.366  -1.493 127.904  0.00  0.00    +0.022 C 
ATOM     19  C   LIG A   1      -7.595  -0.992 129.313  0.00  0.00    +0.016 C 
ATOM     20  C   LIG A   1      -8.070  -2.821 127.958  0.00  0.00    -0.073 C 
ATOM     21  C   LIG A   1      -8.652  -3.446 126.933  0.00  0.00    +0.008 C 
ENDROOT
TORSDOF 0
ENDMDL
MODEL 8
REMARK VINA RESULT:      -7.0      1.939      4.709
REMARK  Name = NuBBE_2234
REMARK  3 active torsions:
REMARK  status: ('A' for Active; 'I' for Inactive)
REMARK    1  A    between atoms: C_11  and  C_12
REMARK    2  A    between atoms: C_11  and  C_13
REMARK    3  A    between atoms: C_17  and  C_18
REMARK                            x       y       z     vdW  Elec       q    Type
REMARK                         _______ _______ _______ _____ _____    ______ ____
ROOT
ATOM      1  O   LIG A   1      -5.393  -2.483 125.292  0.00  0.00    -0.297 OA
ATOM      2  C   LIG A   1      -6.242  -1.785 124.766  0.00  0.00    +0.138 C 
ATOM      3  C   LIG A   1      -6.844  -0.570 125.498  0.00  0.00    +0.068 C 
ATOM      4  C   LIG A   1      -8.346  -0.354 124.951  0.00  0.00    -0.015 C 
ATOM      5  C   LIG A   1      -9.246  -1.614 125.077  0.00  0.00    +0.038 C 
ATOM      6  C   LIG A   1      -9.042   0.889 125.502  0.00  0.00    +0.008 C 
ATOM      7  C   LIG A   1      -8.736   1.138 126.943  0.00  0.00    +0.005 C 
ATOM      8  C   LIG A   1      -7.283   0.915 127.336  0.00  0.00    +0.001 C 
ATOM      9  C   LIG A   1      -6.108   2.021 126.956  0.00  0.00    -0.032 C 
ATOM     10  C   LIG A   1      -4.630   1.679 126.413  0.00  0.00    +0.011 C 
ATOM     11  C   LIG A   1      -6.555   3.082 125.949  0.00  0.00    +0.011 C 
ATOM     12  C   LIG A   1      -5.771   2.400 128.393  0.00  0.00    +0.007 C 
ATOM     13  C   LIG A   1      -5.342   1.026 129.067  0.00  0.00    +0.001 C 
ATOM     14  C   LIG A   1      -5.397  -0.328 128.095  0.00  0.00    +0.007 C 
ATOM     15  C   LIG A   1      -6.711  -0.478 127.127  0.00  0.00    -0.019 C 
ATOM     16  C   LIG A   1      -7.457  -1.685 127.739  0.00  0.00    +0.012 C 
ATOM     17  C   LIG A   1      -6.600  -1.948 123.276  0.00  0.00    +0.082 C 
ATOM     18  C   LIG A   1      -8.042  -1.575 122.936  0.00  0.00    +0.022 C 
ATOM     19  C   LIG A   1      -8.318  -0.167 123.416  0.00  0.00    +0.016 C 
ATOM     20  C   LIG A   1      -9.001  -2.357 123.790  0.00  0.00    -0.073 C 
ATOM     21  C   LIG A   1      -9.582  -3.514 123.465  0.00  0.00    +0.008 C 
ENDROOT
TORSDOF 0
ENDMDL
MODEL 9
REMARK VINA RESULT:      -6.9      6.043      8.890
REMARK  Name = NuBBE_2234
REMARK  3 active torsions:
REMARK  status: ('A' for Active; 'I' for Inactive)
REMARK    1  A    between atoms: C_11  and  C_12
REMARK    2  A    between atoms: C_11  and  C_13
REMARK    3  A    between atoms: C_17  and  C_18
REMARK                            x       y       z     vdW  Elec       q    Type
REMARK                         _______ _______ _______ _____ _____    ______ ____
ROOT
ATOM      1  O   LIG A   1      -9.501   3.129 129.628  0.00  0.00    -0.297 OA
ATOM      2  C   LIG A   1      -9.113   4.165 130.138  0.00  0.00    +0.138 C 
ATOM      3  C   LIG A   1      -8.282   4.155 131.435  0.00  0.00    +0.068 C 
ATOM      4  C   LIG A   1      -8.576   5.530 132.224  0.00  0.00    -0.015 C 
ATOM      5  C   LIG A   1     -10.084   5.783 132.501  0.00  0.00    +0.038 C 
ATOM      6  C   LIG A   1      -7.735   5.723 133.485  0.00  0.00    +0.008 C 
ATOM      7  C   LIG A   1      -7.536   4.458 134.252  0.00  0.00    +0.005 C 
ATOM      8  C   LIG A   1      -7.250   3.230 133.399  0.00  0.00    +0.001 C 
ATOM      9  C   LIG A   1      -5.759   2.982 132.718  0.00  0.00    -0.032 C 
ATOM     10  C   LIG A   1      -5.481   2.449 131.223  0.00  0.00    +0.011 C 
ATOM     11  C   LIG A   1      -4.841   4.204 132.770  0.00  0.00    +0.011 C 
ATOM     12  C   LIG A   1      -5.428   1.721 133.506  0.00  0.00    +0.007 C 
ATOM     13  C   LIG A   1      -6.610   0.719 133.151  0.00  0.00    +0.001 C 
ATOM     14  C   LIG A   1      -7.787   1.294 132.118  0.00  0.00    +0.007 C 
ATOM     15  C   LIG A   1      -8.310   2.824 132.386  0.00  0.00    -0.019 C 
ATOM     16  C   LIG A   1      -9.760   2.614 132.876  0.00  0.00    +0.012 C 
ATOM     17  C   LIG A   1      -9.246   5.514 129.405  0.00  0.00    +0.082 C 
ATOM     18  C   LIG A   1      -9.394   6.716 130.336  0.00  0.00    +0.022 C 
ATOM     19  C   LIG A   1      -8.239   6.735 131.313  0.00  0.00    +0.016 C 
ATOM     20  C   LIG A   1     -10.554   6.516 131.271  0.00  0.00    -0.073 C 
ATOM     21  C   LIG A   1     -11.805   6.940 131.079  0.00  0.00    +0.008 C 
ENDROOT
TORSDOF 0
ENDMDL
