MODEL 1
REMARK VINA RESULT:      -6.9      0.000      0.000
REMARK  Name = NuBBE_1690
REMARK  15 active torsions:
REMARK  status: ('A' for Active; 'I' for Inactive)
REMARK    1  A    between atoms: C_2  and  C_3
REMARK    2  A    between atoms: C_3  and  C_4
REMARK    3  A    between atoms: C_5  and  C_6
REMARK    4  A    between atoms: C_6  and  C_7
REMARK    5  A    between atoms: C_8  and  C_9
REMARK    6  A    between atoms: C_9  and  C_10
REMARK    7  A    between atoms: C_10  and  C_11
REMARK    8  A    between atoms: C_11  and  C_12
REMARK    9  A    between atoms: C_12  and  C_13
REMARK   10  A    between atoms: C_13  and  C_14
REMARK   11  A    between atoms: C_14  and  C_15
REMARK   12  A    between atoms: C_15  and  C_16
REMARK   13  A    between atoms: C_17  and  C_18
REMARK   14  A    between atoms: C_18  and  O_19
REMARK   15  A    between atoms: C_21  and  O_22
REMARK                            x       y       z     vdW  Elec       q    Type
REMARK                         _______ _______ _______ _____ _____    ______ ____
ROOT
ATOM      1  C   LIG A   1      -4.920   3.256 125.500  0.00  0.00    +0.005 C 
ENDROOT
BRANCH   1   2
ATOM      2  C   LIG A   1      -5.757   2.155 126.164  0.00  0.00    +0.000 C 
BRANCH   2   3
ATOM      3  C   LIG A   1      -6.216   0.947 125.366  0.00  0.00    +0.000 C 
BRANCH   3   4
ATOM      4  C   LIG A   1      -6.522  -0.323 126.134  0.00  0.00    +0.000 C 
BRANCH   4   5
ATOM      5  C   LIG A   1      -5.415  -1.373 126.088  0.00  0.00    +0.004 C 
BRANCH   5   6
ATOM      6  C   LIG A   1      -5.703  -2.564 125.190  0.00  0.00    +0.027 C 
BRANCH   6   8
ATOM      7  C   LIG A   1      -6.430  -2.039 122.816  0.00  0.00    -0.027 C 
ATOM      8  C   LIG A   1      -5.492  -2.337 123.724  0.00  0.00    -0.031 C 
BRANCH   7   9
ATOM      9  C   LIG A   1      -7.866  -1.690 123.038  0.00  0.00    +0.054 C 
BRANCH   9  11
ATOM     10  C   LIG A   1      -9.397  -3.292 124.300  0.00  0.00    -0.027 C 
ATOM     11  C   LIG A   1      -8.794  -2.857 123.180  0.00  0.00    -0.027 C 
BRANCH  10  12
ATOM     12  C   LIG A   1      -9.378  -2.648 125.660  0.00  0.00    +0.053 C 
BRANCH  12  14
ATOM     13  C   LIG A   1      -8.327  -3.138 127.886  0.00  0.00    +0.004 C 
ATOM     14  C   LIG A   1      -8.912  -3.561 126.757  0.00  0.00    -0.031 C 
ENDBRANCH  12  14
ENDBRANCH  10  12
ENDBRANCH   9  11
ENDBRANCH   7   9
ENDBRANCH   6   8
ENDBRANCH   5   6
ENDBRANCH   4   5
ENDBRANCH   3   4
ENDBRANCH   2   3
ENDBRANCH   1   2
BRANCH   1  15
ATOM     15  C   LIG A   1      -5.553   4.267 124.526  0.00  0.00    +0.036 C 
BRANCH  15  16
ATOM     16  C   LIG A   1      -6.039   3.913 123.117  0.00  0.00    -0.030 A 
ATOM     17  C   LIG A   1      -7.345   3.475 122.735  0.00  0.00    +0.103 A 
ATOM     18  C   LIG A   1      -7.701   3.569 121.356  0.00  0.00    +0.131 A 
ATOM     19  C   LIG A   1      -6.799   3.961 120.367  0.00  0.00    +0.046 A 
ATOM     20  C   LIG A   1      -5.494   4.259 120.718  0.00  0.00    +0.004 A 
ATOM     21  C   LIG A   1      -5.119   4.237 122.067  0.00  0.00    +0.005 A 
BRANCH  17  22
ATOM     22  C   LIG A   1      -8.431   3.068 123.691  0.00  0.00    +0.341 C 
ATOM     23  O   LIG A   1      -8.857   3.569 124.750  0.00  0.00    -0.245 OA
BRANCH  22  24
ATOM     24  O   LIG A   1      -9.060   1.972 123.292  0.00  0.00    -0.477 OA
ATOM     25  H   LIG A   1      -8.283   1.383 123.141  0.00  0.00    +0.295 HD
ENDBRANCH  22  24
ENDBRANCH  17  22
BRANCH  18  26
ATOM     26  O   LIG A   1      -8.989   3.418 120.892  0.00  0.00    -0.506 OA
ATOM     27  H   LIG A   1      -8.936   3.119 119.962  0.00  0.00    +0.292 HD
ENDBRANCH  18  26
ENDBRANCH  15  16
ENDBRANCH   1  15
TORSDOF 15
ENDMDL
MODEL 2
REMARK VINA RESULT:      -6.5      2.258      3.671
REMARK  Name = NuBBE_1690
REMARK  15 active torsions:
REMARK  status: ('A' for Active; 'I' for Inactive)
REMARK    1  A    between atoms: C_2  and  C_3
REMARK    2  A    between atoms: C_3  and  C_4
REMARK    3  A    between atoms: C_5  and  C_6
REMARK    4  A    between atoms: C_6  and  C_7
REMARK    5  A    between atoms: C_8  and  C_9
REMARK    6  A    between atoms: C_9  and  C_10
REMARK    7  A    between atoms: C_10  and  C_11
REMARK    8  A    between atoms: C_11  and  C_12
REMARK    9  A    between atoms: C_12  and  C_13
REMARK   10  A    between atoms: C_13  and  C_14
REMARK   11  A    between atoms: C_14  and  C_15
REMARK   12  A    between atoms: C_15  and  C_16
REMARK   13  A    between atoms: C_17  and  C_18
REMARK   14  A    between atoms: C_18  and  O_19
REMARK   15  A    between atoms: C_21  and  O_22
REMARK                            x       y       z     vdW  Elec       q    Type
REMARK                         _______ _______ _______ _____ _____    ______ ____
ROOT
ATOM      1  C   LIG A   1      -8.304   3.022 123.501  0.00  0.00    +0.005 C 
ENDROOT
BRANCH   1   2
ATOM      2  C   LIG A   1      -8.357   1.645 124.176  0.00  0.00    +0.000 C 
BRANCH   2   3
ATOM      3  C   LIG A   1      -8.035   0.388 123.390  0.00  0.00    +0.000 C 
BRANCH   3   4
ATOM      4  C   LIG A   1      -6.768  -0.360 123.755  0.00  0.00    +0.000 C 
BRANCH   4   5
ATOM      5  C   LIG A   1      -6.546  -1.650 122.970  0.00  0.00    +0.004 C 
BRANCH   5   6
ATOM      6  C   LIG A   1      -6.994  -2.915 123.682  0.00  0.00    +0.027 C 
BRANCH   6   8
ATOM      7  C   LIG A   1      -9.205  -3.112 124.913  0.00  0.00    -0.027 C 
ATOM      8  C   LIG A   1      -8.476  -3.108 123.789  0.00  0.00    -0.031 C 
BRANCH   7   9
ATOM      9  C   LIG A   1      -8.778  -2.762 126.302  0.00  0.00    +0.054 C 
BRANCH   9  11
ATOM     10  C   LIG A   1      -8.730  -3.789 128.636  0.00  0.00    -0.027 C 
ATOM     11  C   LIG A   1      -9.135  -3.768 127.353  0.00  0.00    -0.027 C 
BRANCH  10  12
ATOM     12  C   LIG A   1      -7.914  -2.751 129.356  0.00  0.00    +0.053 C 
BRANCH  12  14
ATOM     13  C   LIG A   1      -6.085  -4.196 130.287  0.00  0.00    +0.004 C 
ATOM     14  C   LIG A   1      -7.071  -3.306 130.467  0.00  0.00    -0.031 C 
ENDBRANCH  12  14
ENDBRANCH  10  12
ENDBRANCH   9  11
ENDBRANCH   7   9
ENDBRANCH   6   8
ENDBRANCH   5   6
ENDBRANCH   4   5
ENDBRANCH   3   4
ENDBRANCH   2   3
ENDBRANCH   1   2
BRANCH   1  15
ATOM     15  C   LIG A   1      -8.177   3.162 121.973  0.00  0.00    +0.036 C 
BRANCH  15  16
ATOM     16  C   LIG A   1      -6.942   3.728 121.263  0.00  0.00    -0.030 A 
ATOM     17  C   LIG A   1      -6.880   4.296 119.952  0.00  0.00    +0.103 A 
ATOM     18  C   LIG A   1      -5.748   5.102 119.629  0.00  0.00    +0.131 A 
ATOM     19  C   LIG A   1      -4.665   5.265 120.493  0.00  0.00    +0.046 A 
ATOM     20  C   LIG A   1      -4.663   4.608 121.711  0.00  0.00    +0.004 A 
ATOM     21  C   LIG A   1      -5.781   3.854 122.092  0.00  0.00    +0.005 A 
BRANCH  17  22
ATOM     22  C   LIG A   1      -7.986   4.239 118.935  0.00  0.00    +0.341 C 
ATOM     23  O   LIG A   1      -9.224   4.348 119.026  0.00  0.00    -0.245 OA
BRANCH  22  24
ATOM     24  O   LIG A   1      -7.523   4.064 117.706  0.00  0.00    -0.477 OA
ATOM     25  H   LIG A   1      -7.957   4.828 117.257  0.00  0.00    +0.295 HD
ENDBRANCH  22  24
ENDBRANCH  17  22
BRANCH  18  26
ATOM     26  O   LIG A   1      -5.678   5.900 118.509  0.00  0.00    -0.506 OA
ATOM     27  H   LIG A   1      -4.735   6.115 118.357  0.00  0.00    +0.292 HD
ENDBRANCH  18  26
ENDBRANCH  15  16
ENDBRANCH   1  15
TORSDOF 15
ENDMDL
MODEL 3
REMARK VINA RESULT:      -6.4      1.799      3.738
REMARK  Name = NuBBE_1690
REMARK  15 active torsions:
REMARK  status: ('A' for Active; 'I' for Inactive)
REMARK    1  A    between atoms: C_2  and  C_3
REMARK    2  A    between atoms: C_3  and  C_4
REMARK    3  A    between atoms: C_5  and  C_6
REMARK    4  A    between atoms: C_6  and  C_7
REMARK    5  A    between atoms: C_8  and  C_9
REMARK    6  A    between atoms: C_9  and  C_10
REMARK    7  A    between atoms: C_10  and  C_11
REMARK    8  A    between atoms: C_11  and  C_12
REMARK    9  A    between atoms: C_12  and  C_13
REMARK   10  A    between atoms: C_13  and  C_14
REMARK   11  A    between atoms: C_14  and  C_15
REMARK   12  A    between atoms: C_15  and  C_16
REMARK   13  A    between atoms: C_17  and  C_18
REMARK   14  A    between atoms: C_18  and  O_19
REMARK   15  A    between atoms: C_21  and  O_22
REMARK                            x       y       z     vdW  Elec       q    Type
REMARK                         _______ _______ _______ _____ _____    ______ ____
ROOT
ATOM      1  C   LIG A   1      -8.113   0.537 127.447  0.00  0.00    +0.005 C 
ENDROOT
BRANCH   1   2
ATOM      2  C   LIG A   1      -7.145  -0.512 128.011  0.00  0.00    +0.000 C 
BRANCH   2   3
ATOM      3  C   LIG A   1      -7.625  -1.542 129.018  0.00  0.00    +0.000 C 
BRANCH   3   4
ATOM      4  C   LIG A   1      -8.368  -2.749 128.483  0.00  0.00    +0.000 C 
BRANCH   4   5
ATOM      5  C   LIG A   1      -8.046  -3.099 127.032  0.00  0.00    +0.004 C 
BRANCH   5   6
ATOM      6  C   LIG A   1      -9.220  -2.997 126.075  0.00  0.00    +0.027 C 
BRANCH   6   8
ATOM      7  C   LIG A   1      -9.110  -3.254 123.552  0.00  0.00    -0.027 C 
ATOM      8  C   LIG A   1      -9.079  -3.758 124.792  0.00  0.00    -0.031 C 
BRANCH   7   9
ATOM      9  C   LIG A   1      -9.118  -1.821 123.129  0.00  0.00    +0.054 C 
BRANCH   9  11
ATOM     10  C   LIG A   1      -6.734  -0.925 122.985  0.00  0.00    -0.027 C 
ATOM     11  C   LIG A   1      -7.879  -1.355 122.426  0.00  0.00    -0.027 C 
BRANCH  10  12
ATOM     12  C   LIG A   1      -6.376  -0.915 124.447  0.00  0.00    +0.053 C 
BRANCH  12  14
ATOM     13  C   LIG A   1      -5.334  -3.186 124.206  0.00  0.00    +0.004 C 
ATOM     14  C   LIG A   1      -5.433  -2.014 124.847  0.00  0.00    -0.031 C 
ENDBRANCH  12  14
ENDBRANCH  10  12
ENDBRANCH   9  11
ENDBRANCH   7   9
ENDBRANCH   6   8
ENDBRANCH   5   6
ENDBRANCH   4   5
ENDBRANCH   3   4
ENDBRANCH   2   3
ENDBRANCH   1   2
BRANCH   1  15
ATOM     15  C   LIG A   1      -7.600   1.782 126.700  0.00  0.00    +0.036 C 
BRANCH  15  16
ATOM     16  C   LIG A   1      -8.126   2.242 125.337  0.00  0.00    -0.030 A 
ATOM     17  C   LIG A   1      -7.474   3.107 124.403  0.00  0.00    +0.103 A 
ATOM     18  C   LIG A   1      -7.943   3.103 123.055  0.00  0.00    +0.131 A 
ATOM     19  C   LIG A   1      -9.065   2.382 122.646  0.00  0.00    +0.046 A 
ATOM     20  C   LIG A   1      -9.777   1.648 123.578  0.00  0.00    +0.004 A 
ATOM     21  C   LIG A   1      -9.317   1.577 124.899  0.00  0.00    +0.005 A 
BRANCH  17  22
ATOM     22  C   LIG A   1      -6.235   3.907 124.689  0.00  0.00    +0.341 C 
ATOM     23  O   LIG A   1      -5.101   3.591 125.101  0.00  0.00    -0.245 OA
BRANCH  22  24
ATOM     24  O   LIG A   1      -6.398   5.193 124.416  0.00  0.00    -0.477 OA
ATOM     25  H   LIG A   1      -5.844   5.584 125.132  0.00  0.00    +0.295 HD
ENDBRANCH  22  24
ENDBRANCH  17  22
BRANCH  18  26
ATOM     26  O   LIG A   1      -7.262   3.691 122.012  0.00  0.00    -0.506 OA
ATOM     27  H   LIG A   1      -7.875   3.746 121.251  0.00  0.00    +0.292 HD
ENDBRANCH  18  26
ENDBRANCH  15  16
ENDBRANCH   1  15
TORSDOF 15
ENDMDL
MODEL 4
REMARK VINA RESULT:      -6.3      2.020      2.948
REMARK  Name = NuBBE_1690
REMARK  15 active torsions:
REMARK  status: ('A' for Active; 'I' for Inactive)
REMARK    1  A    between atoms: C_2  and  C_3
REMARK    2  A    between atoms: C_3  and  C_4
REMARK    3  A    between atoms: C_5  and  C_6
REMARK    4  A    between atoms: C_6  and  C_7
REMARK    5  A    between atoms: C_8  and  C_9
REMARK    6  A    between atoms: C_9  and  C_10
REMARK    7  A    between atoms: C_10  and  C_11
REMARK    8  A    between atoms: C_11  and  C_12
REMARK    9  A    between atoms: C_12  and  C_13
REMARK   10  A    between atoms: C_13  and  C_14
REMARK   11  A    between atoms: C_14  and  C_15
REMARK   12  A    between atoms: C_15  and  C_16
REMARK   13  A    between atoms: C_17  and  C_18
REMARK   14  A    between atoms: C_18  and  O_19
REMARK   15  A    between atoms: C_21  and  O_22
REMARK                            x       y       z     vdW  Elec       q    Type
REMARK                         _______ _______ _______ _____ _____    ______ ____
ROOT
ATOM      1  C   LIG A   1      -8.133   0.494 127.503  0.00  0.00    +0.005 C 
ENDROOT
BRANCH   1   2
ATOM      2  C   LIG A   1      -6.688   0.455 128.019  0.00  0.00    +0.000 C 
BRANCH   2   3
ATOM      3  C   LIG A   1      -5.556   0.014 127.109  0.00  0.00    +0.000 C 
BRANCH   3   4
ATOM      4  C   LIG A   1      -5.771  -1.238 126.283  0.00  0.00    +0.000 C 
BRANCH   4   5
ATOM      5  C   LIG A   1      -5.102  -1.215 124.911  0.00  0.00    +0.004 C 
BRANCH   5   6
ATOM      6  C   LIG A   1      -5.764  -2.092 123.863  0.00  0.00    +0.027 C 
BRANCH   6   8
ATOM      7  C   LIG A   1      -7.306  -4.032 124.412  0.00  0.00    -0.027 C 
ATOM      8  C   LIG A   1      -6.087  -3.489 124.298  0.00  0.00    -0.031 C 
BRANCH   7   9
ATOM      9  C   LIG A   1      -8.621  -3.468 123.983  0.00  0.00    +0.054 C 
BRANCH   9  11
ATOM     10  C   LIG A   1      -9.388  -2.520 126.223  0.00  0.00    -0.027 C 
ATOM     11  C   LIG A   1      -9.200  -2.429 124.894  0.00  0.00    -0.027 C 
BRANCH  10  12
ATOM     12  C   LIG A   1      -8.961  -3.638 127.134  0.00  0.00    +0.053 C 
BRANCH  12  14
ATOM     13  C   LIG A   1      -8.261  -3.086 129.481  0.00  0.00    +0.004 C 
ATOM     14  C   LIG A   1      -7.968  -3.222 128.180  0.00  0.00    -0.031 C 
ENDBRANCH  12  14
ENDBRANCH  10  12
ENDBRANCH   9  11
ENDBRANCH   7   9
ENDBRANCH   6   8
ENDBRANCH   5   6
ENDBRANCH   4   5
ENDBRANCH   3   4
ENDBRANCH   2   3
ENDBRANCH   1   2
BRANCH   1  15
ATOM     15  C   LIG A   1      -8.674   1.705 126.720  0.00  0.00    +0.036 C 
BRANCH  15  16
ATOM     16  C   LIG A   1      -8.165   2.131 125.338  0.00  0.00    -0.030 A 
ATOM     17  C   LIG A   1      -7.704   3.425 124.945  0.00  0.00    +0.103 A 
ATOM     18  C   LIG A   1      -6.924   3.520 123.753  0.00  0.00    +0.131 A 
ATOM     19  C   LIG A   1      -6.692   2.431 122.913  0.00  0.00    +0.046 A 
ATOM     20  C   LIG A   1      -7.250   1.203 123.223  0.00  0.00    +0.004 A 
ATOM     21  C   LIG A   1      -7.972   1.053 124.414  0.00  0.00    +0.005 A 
BRANCH  17  22
ATOM     22  C   LIG A   1      -7.842   4.676 125.768  0.00  0.00    +0.341 C 
ATOM     23  O   LIG A   1      -8.809   5.425 126.011  0.00  0.00    -0.245 OA
BRANCH  22  24
ATOM     24  O   LIG A   1      -6.705   5.011 126.360  0.00  0.00    -0.477 OA
ATOM     25  H   LIG A   1      -7.046   5.669 127.010  0.00  0.00    +0.295 HD
ENDBRANCH  22  24
ENDBRANCH  17  22
BRANCH  18  26
ATOM     26  O   LIG A   1      -6.219   4.647 123.395  0.00  0.00    -0.506 OA
ATOM     27  H   LIG A   1      -6.461   4.867 122.473  0.00  0.00    +0.292 HD
ENDBRANCH  18  26
ENDBRANCH  15  16
ENDBRANCH   1  15
TORSDOF 15
ENDMDL
MODEL 5
REMARK VINA RESULT:      -6.2      2.018      4.686
REMARK  Name = NuBBE_1690
REMARK  15 active torsions:
REMARK  status: ('A' for Active; 'I' for Inactive)
REMARK    1  A    between atoms: C_2  and  C_3
REMARK    2  A    between atoms: C_3  and  C_4
REMARK    3  A    between atoms: C_5  and  C_6
REMARK    4  A    between atoms: C_6  and  C_7
REMARK    5  A    between atoms: C_8  and  C_9
REMARK    6  A    between atoms: C_9  and  C_10
REMARK    7  A    between atoms: C_10  and  C_11
REMARK    8  A    between atoms: C_11  and  C_12
REMARK    9  A    between atoms: C_12  and  C_13
REMARK   10  A    between atoms: C_13  and  C_14
REMARK   11  A    between atoms: C_14  and  C_15
REMARK   12  A    between atoms: C_15  and  C_16
REMARK   13  A    between atoms: C_17  and  C_18
REMARK   14  A    between atoms: C_18  and  O_19
REMARK   15  A    between atoms: C_21  and  O_22
REMARK                            x       y       z     vdW  Elec       q    Type
REMARK                         _______ _______ _______ _____ _____    ______ ____
ROOT
ATOM      1  C   LIG A   1      -5.815  -0.747 125.868  0.00  0.00    +0.005 C 
ENDROOT
BRANCH   1   2
ATOM      2  C   LIG A   1      -5.430  -1.728 124.753  0.00  0.00    +0.000 C 
BRANCH   2   3
ATOM      3  C   LIG A   1      -6.496  -2.339 123.861  0.00  0.00    +0.000 C 
BRANCH   3   4
ATOM      4  C   LIG A   1      -7.148  -3.624 124.331  0.00  0.00    +0.000 C 
BRANCH   4   5
ATOM      5  C   LIG A   1      -8.625  -3.488 124.694  0.00  0.00    +0.004 C 
BRANCH   5   6
ATOM      6  C   LIG A   1      -8.897  -2.762 125.999  0.00  0.00    +0.027 C 
BRANCH   6   8
ATOM      7  C   LIG A   1      -8.394  -3.595 128.344  0.00  0.00    -0.027 C 
ATOM      8  C   LIG A   1      -9.091  -3.637 127.201  0.00  0.00    -0.031 C 
BRANCH   7   9
ATOM      9  C   LIG A   1      -7.386  -2.585 128.785  0.00  0.00    +0.054 C 
BRANCH   9  11
ATOM     10  C   LIG A   1      -7.900  -0.416 130.025  0.00  0.00    -0.027 C 
ATOM     11  C   LIG A   1      -7.786  -1.755 129.967  0.00  0.00    -0.027 C 
BRANCH  10  12
ATOM     12  C   LIG A   1      -7.764   0.565 128.893  0.00  0.00    +0.053 C 
BRANCH  12  14
ATOM     13  C   LIG A   1      -8.088   3.034 128.576  0.00  0.00    +0.004 C 
ATOM     14  C   LIG A   1      -8.455   1.875 129.140  0.00  0.00    -0.031 C 
ENDBRANCH  12  14
ENDBRANCH  10  12
ENDBRANCH   9  11
ENDBRANCH   7   9
ENDBRANCH   6   8
ENDBRANCH   5   6
ENDBRANCH   4   5
ENDBRANCH   3   4
ENDBRANCH   2   3
ENDBRANCH   1   2
BRANCH   1  15
ATOM     15  C   LIG A   1      -6.712   0.473 125.589  0.00  0.00    +0.036 C 
BRANCH  15  16
ATOM     16  C   LIG A   1      -6.197   1.914 125.491  0.00  0.00    -0.030 A 
ATOM     17  C   LIG A   1      -6.931   3.071 125.084  0.00  0.00    +0.103 A 
ATOM     18  C   LIG A   1      -6.398   4.350 125.425  0.00  0.00    +0.131 A 
ATOM     19  C   LIG A   1      -5.153   4.513 126.034  0.00  0.00    +0.046 A 
ATOM     20  C   LIG A   1      -4.381   3.398 126.309  0.00  0.00    +0.004 A 
ATOM     21  C   LIG A   1      -4.892   2.121 126.045  0.00  0.00    +0.005 A 
BRANCH  17  22
ATOM     22  C   LIG A   1      -8.298   3.049 124.460  0.00  0.00    +0.341 C 
ATOM     23  O   LIG A   1      -9.392   2.586 124.837  0.00  0.00    -0.245 OA
BRANCH  22  24
ATOM     24  O   LIG A   1      -8.322   3.675 123.292  0.00  0.00    -0.477 OA
ATOM     25  H   LIG A   1      -9.284   3.887 123.239  0.00  0.00    +0.295 HD
ENDBRANCH  22  24
ENDBRANCH  17  22
BRANCH  18  26
ATOM     26  O   LIG A   1      -7.110   5.524 125.315  0.00  0.00    -0.506 OA
ATOM     27  H   LIG A   1      -8.045   5.288 125.148  0.00  0.00    +0.292 HD
ENDBRANCH  18  26
ENDBRANCH  15  16
ENDBRANCH   1  15
TORSDOF 15
ENDMDL
MODEL 6
REMARK VINA RESULT:      -6.2      4.612      8.534
REMARK  Name = NuBBE_1690
REMARK  15 active torsions:
REMARK  status: ('A' for Active; 'I' for Inactive)
REMARK    1  A    between atoms: C_2  and  C_3
REMARK    2  A    between atoms: C_3  and  C_4
REMARK    3  A    between atoms: C_5  and  C_6
REMARK    4  A    between atoms: C_6  and  C_7
REMARK    5  A    between atoms: C_8  and  C_9
REMARK    6  A    between atoms: C_9  and  C_10
REMARK    7  A    between atoms: C_10  and  C_11
REMARK    8  A    between atoms: C_11  and  C_12
REMARK    9  A    between atoms: C_12  and  C_13
REMARK   10  A    between atoms: C_13  and  C_14
REMARK   11  A    between atoms: C_14  and  C_15
REMARK   12  A    between atoms: C_15  and  C_16
REMARK   13  A    between atoms: C_17  and  C_18
REMARK   14  A    between atoms: C_18  and  O_19
REMARK   15  A    between atoms: C_21  and  O_22
REMARK                            x       y       z     vdW  Elec       q    Type
REMARK                         _______ _______ _______ _____ _____    ______ ____
ROOT
ATOM      1  C   LIG A   1      -7.878  -2.558 128.207  0.00  0.00    +0.005 C 
ENDROOT
BRANCH   1   2
ATOM      2  C   LIG A   1      -8.512  -3.428 127.113  0.00  0.00    +0.000 C 
BRANCH   2   3
ATOM      3  C   LIG A   1      -9.450  -2.817 126.088  0.00  0.00    +0.000 C 
BRANCH   3   4
ATOM      4  C   LIG A   1      -9.106  -3.008 124.625  0.00  0.00    +0.000 C 
BRANCH   4   5
ATOM      5  C   LIG A   1      -7.745  -3.655 124.374  0.00  0.00    +0.004 C 
BRANCH   5   6
ATOM      6  C   LIG A   1      -6.671  -2.707 123.872  0.00  0.00    +0.027 C 
BRANCH   6   8
ATOM      7  C   LIG A   1      -5.613  -0.945 125.364  0.00  0.00    -0.027 C 
ATOM      8  C   LIG A   1      -5.715  -2.202 124.911  0.00  0.00    -0.031 C 
BRANCH   7   9
ATOM      9  C   LIG A   1      -6.511   0.219 125.094  0.00  0.00    +0.054 C 
BRANCH   9  11
ATOM     10  C   LIG A   1      -8.795   1.088 125.822  0.00  0.00    -0.027 C 
ATOM     11  C   LIG A   1      -7.693   0.339 126.006  0.00  0.00    -0.027 C 
BRANCH  10  12
ATOM     12  C   LIG A   1      -9.160   1.898 124.607  0.00  0.00    +0.053 C 
BRANCH  12  14
ATOM     13  C   LIG A   1      -9.714   0.202 122.842  0.00  0.00    +0.004 C 
ATOM     14  C   LIG A   1     -10.091   1.190 123.665  0.00  0.00    -0.031 C 
ENDBRANCH  12  14
ENDBRANCH  10  12
ENDBRANCH   9  11
ENDBRANCH   7   9
ENDBRANCH   6   8
ENDBRANCH   5   6
ENDBRANCH   4   5
ENDBRANCH   3   4
ENDBRANCH   2   3
ENDBRANCH   1   2
BRANCH   1  15
ATOM     15  C   LIG A   1      -6.394  -2.708 128.592  0.00  0.00    +0.036 C 
BRANCH  15  16
ATOM     16  C   LIG A   1      -5.907  -3.227 129.949  0.00  0.00    -0.030 A 
ATOM     17  C   LIG A   1      -4.555  -3.438 130.362  0.00  0.00    +0.103 A 
ATOM     18  C   LIG A   1      -4.298  -3.552 131.762  0.00  0.00    +0.131 A 
ATOM     19  C   LIG A   1      -5.313  -3.575 132.718  0.00  0.00    +0.046 A 
ATOM     20  C   LIG A   1      -6.633  -3.504 132.309  0.00  0.00    +0.004 A 
ATOM     21  C   LIG A   1      -6.927  -3.332 130.950  0.00  0.00    +0.005 A 
BRANCH  17  22
ATOM     22  C   LIG A   1      -3.359  -3.395 129.453  0.00  0.00    +0.341 C 
ATOM     23  O   LIG A   1      -2.992  -4.116 128.504  0.00  0.00    -0.245 OA
BRANCH  22  24
ATOM     24  O   LIG A   1      -2.570  -2.364 129.716  0.00  0.00    -0.477 OA
ATOM     25  H   LIG A   1      -2.928  -2.105 130.598  0.00  0.00    +0.295 HD
ENDBRANCH  22  24
ENDBRANCH  17  22
BRANCH  18  26
ATOM     26  O   LIG A   1      -3.034  -3.510 132.307  0.00  0.00    -0.506 OA
ATOM     27  H   LIG A   1      -2.569  -2.742 131.918  0.00  0.00    +0.292 HD
ENDBRANCH  18  26
ENDBRANCH  15  16
ENDBRANCH   1  15
TORSDOF 15
ENDMDL
MODEL 7
REMARK VINA RESULT:      -6.2      4.793      8.979
REMARK  Name = NuBBE_1690
REMARK  15 active torsions:
REMARK  status: ('A' for Active; 'I' for Inactive)
REMARK    1  A    between atoms: C_2  and  C_3
REMARK    2  A    between atoms: C_3  and  C_4
REMARK    3  A    between atoms: C_5  and  C_6
REMARK    4  A    between atoms: C_6  and  C_7
REMARK    5  A    between atoms: C_8  and  C_9
REMARK    6  A    between atoms: C_9  and  C_10
REMARK    7  A    between atoms: C_10  and  C_11
REMARK    8  A    between atoms: C_11  and  C_12
REMARK    9  A    between atoms: C_12  and  C_13
REMARK   10  A    between atoms: C_13  and  C_14
REMARK   11  A    between atoms: C_14  and  C_15
REMARK   12  A    between atoms: C_15  and  C_16
REMARK   13  A    between atoms: C_17  and  C_18
REMARK   14  A    between atoms: C_18  and  O_19
REMARK   15  A    between atoms: C_21  and  O_22
REMARK                            x       y       z     vdW  Elec       q    Type
REMARK                         _______ _______ _______ _____ _____    ______ ____
ROOT
ATOM      1  C   LIG A   1      -7.949  -2.599 128.473  0.00  0.00    +0.005 C 
ENDROOT
BRANCH   1   2
ATOM      2  C   LIG A   1      -8.730  -3.604 127.615  0.00  0.00    +0.000 C 
BRANCH   2   3
ATOM      3  C   LIG A   1      -9.334  -3.181 126.289  0.00  0.00    +0.000 C 
BRANCH   3   4
ATOM      4  C   LIG A   1      -8.740  -3.778 125.028  0.00  0.00    +0.000 C 
BRANCH   4   5
ATOM      5  C   LIG A   1      -9.401  -3.309 123.734  0.00  0.00    +0.004 C 
BRANCH   5   6
ATOM      6  C   LIG A   1      -8.605  -2.286 122.945  0.00  0.00    +0.027 C 
BRANCH   6   8
ATOM      7  C   LIG A   1      -9.140   0.005 123.897  0.00  0.00    -0.027 C 
ATOM      8  C   LIG A   1      -9.178  -0.902 122.913  0.00  0.00    -0.031 C 
BRANCH   7   9
ATOM      9  C   LIG A   1      -8.386  -0.050 125.186  0.00  0.00    +0.054 C 
BRANCH   9  11
ATOM     10  C   LIG A   1      -5.869  -0.453 125.242  0.00  0.00    -0.027 C 
ATOM     11  C   LIG A   1      -6.943   0.343 125.102  0.00  0.00    -0.027 C 
BRANCH  10  12
ATOM     12  C   LIG A   1      -5.853  -1.948 125.407  0.00  0.00    +0.053 C 
BRANCH  12  14
ATOM     13  C   LIG A   1      -5.186  -3.039 123.246  0.00  0.00    +0.004 C 
ATOM     14  C   LIG A   1      -4.887  -2.648 124.493  0.00  0.00    -0.031 C 
ENDBRANCH  12  14
ENDBRANCH  10  12
ENDBRANCH   9  11
ENDBRANCH   7   9
ENDBRANCH   6   8
ENDBRANCH   5   6
ENDBRANCH   4   5
ENDBRANCH   3   4
ENDBRANCH   2   3
ENDBRANCH   1   2
BRANCH   1  15
ATOM     15  C   LIG A   1      -8.034  -2.619 130.010  0.00  0.00    +0.036 C 
BRANCH  15  16
ATOM     16  C   LIG A   1      -6.988  -3.272 130.920  0.00  0.00    -0.030 A 
ATOM     17  C   LIG A   1      -6.927  -3.221 132.347  0.00  0.00    +0.103 A 
ATOM     18  C   LIG A   1      -6.122  -4.193 133.014  0.00  0.00    +0.131 A 
ATOM     19  C   LIG A   1      -5.318  -5.106 132.331  0.00  0.00    +0.046 A 
ATOM     20  C   LIG A   1      -5.274  -5.070 130.948  0.00  0.00    +0.004 A 
ATOM     21  C   LIG A   1      -6.094  -4.172 130.253  0.00  0.00    +0.005 A 
BRANCH  17  22
ATOM     22  C   LIG A   1      -7.765  -2.323 133.214  0.00  0.00    +0.341 C 
ATOM     23  O   LIG A   1      -8.619  -2.552 134.093  0.00  0.00    -0.245 OA
BRANCH  22  24
ATOM     24  O   LIG A   1      -7.505  -1.041 132.999  0.00  0.00    -0.477 OA
ATOM     25  H   LIG A   1      -7.700  -0.682 133.897  0.00  0.00    +0.295 HD
ENDBRANCH  22  24
ENDBRANCH  17  22
BRANCH  18  26
ATOM     26  O   LIG A   1      -6.166  -4.413 134.373  0.00  0.00    -0.506 OA
ATOM     27  H   LIG A   1      -6.534  -5.308 134.516  0.00  0.00    +0.292 HD
ENDBRANCH  18  26
ENDBRANCH  15  16
ENDBRANCH   1  15
TORSDOF 15
ENDMDL
MODEL 8
REMARK VINA RESULT:      -6.2      4.551      7.747
REMARK  Name = NuBBE_1690
REMARK  15 active torsions:
REMARK  status: ('A' for Active; 'I' for Inactive)
REMARK    1  A    between atoms: C_2  and  C_3
REMARK    2  A    between atoms: C_3  and  C_4
REMARK    3  A    between atoms: C_5  and  C_6
REMARK    4  A    between atoms: C_6  and  C_7
REMARK    5  A    between atoms: C_8  and  C_9
REMARK    6  A    between atoms: C_9  and  C_10
REMARK    7  A    between atoms: C_10  and  C_11
REMARK    8  A    between atoms: C_11  and  C_12
REMARK    9  A    between atoms: C_12  and  C_13
REMARK   10  A    between atoms: C_13  and  C_14
REMARK   11  A    between atoms: C_14  and  C_15
REMARK   12  A    between atoms: C_15  and  C_16
REMARK   13  A    between atoms: C_17  and  C_18
REMARK   14  A    between atoms: C_18  and  O_19
REMARK   15  A    between atoms: C_21  and  O_22
REMARK                            x       y       z     vdW  Elec       q    Type
REMARK                         _______ _______ _______ _____ _____    ______ ____
ROOT
ATOM      1  C   LIG A   1      -8.400  -3.202 129.239  0.00  0.00    +0.005 C 
ENDROOT
BRANCH   1   2
ATOM      2  C   LIG A   1      -8.979  -4.017 128.075  0.00  0.00    +0.000 C 
BRANCH   2   3
ATOM      3  C   LIG A   1      -8.572  -3.715 126.644  0.00  0.00    +0.000 C 
BRANCH   3   4
ATOM      4  C   LIG A   1      -9.591  -3.027 125.758  0.00  0.00    +0.000 C 
BRANCH   4   5
ATOM      5  C   LIG A   1      -9.181  -2.912 124.292  0.00  0.00    +0.004 C 
BRANCH   5   6
ATOM      6  C   LIG A   1      -7.744  -3.306 123.999  0.00  0.00    +0.027 C 
BRANCH   6   8
ATOM      7  C   LIG A   1      -5.990  -1.560 124.564  0.00  0.00    -0.027 C 
ATOM      8  C   LIG A   1      -6.810  -2.173 123.700  0.00  0.00    -0.031 C 
BRANCH   7   9
ATOM      9  C   LIG A   1      -5.666  -1.942 125.972  0.00  0.00    +0.054 C 
BRANCH   9  11
ATOM     10  C   LIG A   1      -6.403   0.006 127.444  0.00  0.00    -0.027 C 
ATOM     11  C   LIG A   1      -5.462  -0.795 126.914  0.00  0.00    -0.027 C 
BRANCH  10  12
ATOM     12  C   LIG A   1      -7.896  -0.123 127.310  0.00  0.00    +0.053 C 
BRANCH  12  14
ATOM     13  C   LIG A   1      -9.648   0.571 125.652  0.00  0.00    +0.004 C 
ATOM     14  C   LIG A   1      -8.495   0.806 126.294  0.00  0.00    -0.031 C 
ENDBRANCH  12  14
ENDBRANCH  10  12
ENDBRANCH   9  11
ENDBRANCH   7   9
ENDBRANCH   6   8
ENDBRANCH   5   6
ENDBRANCH   4   5
ENDBRANCH   3   4
ENDBRANCH   2   3
ENDBRANCH   1   2
BRANCH   1  15
ATOM     15  C   LIG A   1      -7.107  -3.633 129.956  0.00  0.00    +0.036 C 
BRANCH  15  16
ATOM     16  C   LIG A   1      -5.814  -2.811 129.962  0.00  0.00    -0.030 A 
ATOM     17  C   LIG A   1      -5.575  -1.575 130.639  0.00  0.00    +0.103 A 
ATOM     18  C   LIG A   1      -4.219  -1.176 130.835  0.00  0.00    +0.131 A 
ATOM     19  C   LIG A   1      -3.139  -1.880 130.304  0.00  0.00    +0.046 A 
ATOM     20  C   LIG A   1      -3.374  -3.006 129.535  0.00  0.00    +0.004 A 
ATOM     21  C   LIG A   1      -4.687  -3.466 129.367  0.00  0.00    +0.005 A 
BRANCH  17  22
ATOM     22  C   LIG A   1      -6.633  -0.735 131.297  0.00  0.00    +0.341 C 
ATOM     23  O   LIG A   1      -7.557  -0.031 130.845  0.00  0.00    -0.245 OA
BRANCH  22  24
ATOM     24  O   LIG A   1      -6.563  -0.792 132.619  0.00  0.00    -0.477 OA
ATOM     25  H   LIG A   1      -7.415  -1.251 132.809  0.00  0.00    +0.295 HD
ENDBRANCH  22  24
ENDBRANCH  17  22
BRANCH  18  26
ATOM     26  O   LIG A   1      -3.843  -0.149 131.674  0.00  0.00    -0.506 OA
ATOM     27  H   LIG A   1      -2.873  -0.203 131.790  0.00  0.00    +0.292 HD
ENDBRANCH  18  26
ENDBRANCH  15  16
ENDBRANCH   1  15
TORSDOF 15
ENDMDL
MODEL 9
REMARK VINA RESULT:      -6.0      2.468      3.941
REMARK  Name = NuBBE_1690
REMARK  15 active torsions:
REMARK  status: ('A' for Active; 'I' for Inactive)
REMARK    1  A    between atoms: C_2  and  C_3
REMARK    2  A    between atoms: C_3  and  C_4
REMARK    3  A    between atoms: C_5  and  C_6
REMARK    4  A    between atoms: C_6  and  C_7
REMARK    5  A    between atoms: C_8  and  C_9
REMARK    6  A    between atoms: C_9  and  C_10
REMARK    7  A    between atoms: C_10  and  C_11
REMARK    8  A    between atoms: C_11  and  C_12
REMARK    9  A    between atoms: C_12  and  C_13
REMARK   10  A    between atoms: C_13  and  C_14
REMARK   11  A    between atoms: C_14  and  C_15
REMARK   12  A    between atoms: C_15  and  C_16
REMARK   13  A    between atoms: C_17  and  C_18
REMARK   14  A    between atoms: C_18  and  O_19
REMARK   15  A    between atoms: C_21  and  O_22
REMARK                            x       y       z     vdW  Elec       q    Type
REMARK                         _______ _______ _______ _____ _____    ______ ____
ROOT
ATOM      1  C   LIG A   1      -8.795   0.781 126.608  0.00  0.00    +0.005 C 
ENDROOT
BRANCH   1   2
ATOM      2  C   LIG A   1      -8.889   0.645 125.083  0.00  0.00    +0.000 C 
BRANCH   2   3
ATOM      3  C   LIG A   1      -9.050  -0.720 124.438  0.00  0.00    +0.000 C 
BRANCH   3   4
ATOM      4  C   LIG A   1      -9.353  -1.892 125.351  0.00  0.00    +0.000 C 
BRANCH   4   5
ATOM      5  C   LIG A   1      -8.715  -3.211 124.920  0.00  0.00    +0.004 C 
BRANCH   5   6
ATOM      6  C   LIG A   1      -7.621  -3.079 123.876  0.00  0.00    +0.027 C 
BRANCH   6   8
ATOM      7  C   LIG A   1      -5.456  -2.706 125.148  0.00  0.00    -0.027 C 
ATOM      8  C   LIG A   1      -6.239  -3.430 124.338  0.00  0.00    -0.031 C 
BRANCH   7   9
ATOM      9  C   LIG A   1      -5.802  -1.478 125.926  0.00  0.00    +0.054 C 
BRANCH   9  11
ATOM     10  C   LIG A   1      -6.148  -1.658 128.447  0.00  0.00    -0.027 C 
ATOM     11  C   LIG A   1      -5.372  -1.488 127.361  0.00  0.00    -0.027 C 
BRANCH  10  12
ATOM     12  C   LIG A   1      -7.615  -1.992 128.481  0.00  0.00    +0.053 C 
BRANCH  12  14
ATOM     13  C   LIG A   1      -9.105  -4.008 128.366  0.00  0.00    +0.004 C 
ATOM     14  C   LIG A   1      -7.899  -3.463 128.578  0.00  0.00    -0.031 C 
ENDBRANCH  12  14
ENDBRANCH  10  12
ENDBRANCH   9  11
ENDBRANCH   7   9
ENDBRANCH   6   8
ENDBRANCH   5   6
ENDBRANCH   4   5
ENDBRANCH   3   4
ENDBRANCH   2   3
ENDBRANCH   1   2
BRANCH   1  15
ATOM     15  C   LIG A   1      -7.801   1.756 127.267  0.00  0.00    +0.036 C 
BRANCH  15  16
ATOM     16  C   LIG A   1      -6.782   2.598 126.491  0.00  0.00    -0.030 A 
ATOM     17  C   LIG A   1      -7.000   3.867 125.870  0.00  0.00    +0.103 A 
ATOM     18  C   LIG A   1      -5.854   4.652 125.541  0.00  0.00    +0.131 A 
ATOM     19  C   LIG A   1      -4.549   4.187 125.698  0.00  0.00    +0.046 A 
ATOM     20  C   LIG A   1      -4.337   2.906 126.177  0.00  0.00    +0.004 A 
ATOM     21  C   LIG A   1      -5.432   2.124 126.568  0.00  0.00    +0.005 A 
BRANCH  17  22
ATOM     22  C   LIG A   1      -8.344   4.512 125.676  0.00  0.00    +0.341 C 
ATOM     23  O   LIG A   1      -8.852   5.560 126.121  0.00  0.00    -0.245 OA
BRANCH  22  24
ATOM     24  O   LIG A   1      -9.110   3.823 124.842  0.00  0.00    -0.477 OA
ATOM     25  H   LIG A   1      -8.550   3.019 124.731  0.00  0.00    +0.295 HD
ENDBRANCH  22  24
ENDBRANCH  17  22
BRANCH  18  26
ATOM     26  O   LIG A   1      -5.922   5.977 125.171  0.00  0.00    -0.506 OA
ATOM     27  H   LIG A   1      -6.277   6.478 125.933  0.00  0.00    +0.292 HD
ENDBRANCH  18  26
ENDBRANCH  15  16
ENDBRANCH   1  15
TORSDOF 15
ENDMDL
