MODEL 1
REMARK VINA RESULT:      -5.1      0.000      0.000
REMARK  Name = NuBBE_653
REMARK  3 active torsions:
REMARK  status: ('A' for Active; 'I' for Inactive)
REMARK    1  A    between atoms: O_1  and  C_2
REMARK    2  A    between atoms: C_6  and  C_8
REMARK    3  A    between atoms: C_8  and  C_9
REMARK                            x       y       z     vdW  Elec       q    Type
REMARK                         _______ _______ _______ _____ _____    ______ ____
ROOT
ATOM      1  C   LIG A   1     -11.293   7.777 126.940  0.00  0.00    +0.115 C 
ATOM      2  C   LIG A   1     -12.733   7.472 127.351  0.00  0.00    +0.031 C 
ATOM      3  C   LIG A   1     -12.803   6.721 128.681  0.00  0.00    +0.006 C 
ATOM      4  C   LIG A   1     -12.062   7.466 129.804  0.00  0.00    -0.011 C 
ATOM      5  C   LIG A   1     -10.612   7.763 129.387  0.00  0.00    +0.006 C 
ATOM      6  C   LIG A   1     -10.541   8.505 128.050  0.00  0.00    +0.031 C 
ENDROOT
BRANCH   1   7
ATOM      7  O   LIG A   1     -10.607   6.563 126.641  0.00  0.00    -0.392 OA
ATOM      8  H   LIG A   1     -10.685   6.410 125.683  0.00  0.00    +0.210 HD
ENDBRANCH   1   7
BRANCH   4   9
ATOM      9  C   LIG A   1     -12.141   6.649 131.106  0.00  0.00    -0.000 C 
ATOM     10  C   LIG A   1     -10.783   6.361 131.731  0.00  0.00    +0.004 C 
ENDBRANCH   4   9
TORSDOF 2
ENDMDL
MODEL 2
REMARK VINA RESULT:      -4.9      1.713      3.595
REMARK  Name = NuBBE_653
REMARK  3 active torsions:
REMARK  status: ('A' for Active; 'I' for Inactive)
REMARK    1  A    between atoms: O_1  and  C_2
REMARK    2  A    between atoms: C_6  and  C_8
REMARK    3  A    between atoms: C_8  and  C_9
REMARK                            x       y       z     vdW  Elec       q    Type
REMARK                         _______ _______ _______ _____ _____    ______ ____
ROOT
ATOM      1  C   LIG A   1     -10.600   6.109 130.807  0.00  0.00    +0.115 C 
ATOM      2  C   LIG A   1      -9.928   7.235 130.025  0.00  0.00    +0.031 C 
ATOM      3  C   LIG A   1     -10.880   7.881 129.016  0.00  0.00    +0.006 C 
ATOM      4  C   LIG A   1     -12.175   8.376 129.682  0.00  0.00    -0.011 C 
ATOM      5  C   LIG A   1     -12.850   7.236 130.461  0.00  0.00    +0.006 C 
ATOM      6  C   LIG A   1     -11.895   6.582 131.462  0.00  0.00    +0.031 C 
ENDROOT
BRANCH   1   7
ATOM      7  O   LIG A   1     -10.900   5.022 129.933  0.00  0.00    -0.392 OA
ATOM      8  H   LIG A   1     -10.236   4.328 130.089  0.00  0.00    +0.210 HD
ENDBRANCH   1   7
BRANCH   4   9
ATOM      9  C   LIG A   1     -13.103   8.985 128.615  0.00  0.00    -0.000 C 
ATOM     10  C   LIG A   1     -13.820   7.948 127.762  0.00  0.00    +0.004 C 
ENDBRANCH   4   9
TORSDOF 2
ENDMDL
MODEL 3
REMARK VINA RESULT:      -4.9      1.869      2.584
REMARK  Name = NuBBE_653
REMARK  3 active torsions:
REMARK  status: ('A' for Active; 'I' for Inactive)
REMARK    1  A    between atoms: O_1  and  C_2
REMARK    2  A    between atoms: C_6  and  C_8
REMARK    3  A    between atoms: C_8  and  C_9
REMARK                            x       y       z     vdW  Elec       q    Type
REMARK                         _______ _______ _______ _____ _____    ______ ____
ROOT
ATOM      1  C   LIG A   1     -12.550   8.570 128.125  0.00  0.00    +0.115 C 
ATOM      2  C   LIG A   1     -11.094   8.268 127.777  0.00  0.00    +0.031 C 
ATOM      3  C   LIG A   1     -10.255   7.974 129.022  0.00  0.00    +0.006 C 
ATOM      4  C   LIG A   1     -10.860   6.842 129.869  0.00  0.00    -0.011 C 
ATOM      5  C   LIG A   1     -12.322   7.156 130.222  0.00  0.00    +0.006 C 
ATOM      6  C   LIG A   1     -13.159   7.461 128.977  0.00  0.00    +0.031 C 
ENDROOT
BRANCH   1   7
ATOM      7  O   LIG A   1     -12.632   9.799 128.845  0.00  0.00    -0.392 OA
ATOM      8  H   LIG A   1     -12.347   9.622 129.759  0.00  0.00    +0.210 HD
ENDBRANCH   1   7
BRANCH   4   9
ATOM      9  C   LIG A   1      -9.992   6.613 131.120  0.00  0.00    -0.000 C 
ATOM     10  C   LIG A   1      -8.512   6.893 130.898  0.00  0.00    +0.004 C 
ENDBRANCH   4   9
TORSDOF 2
ENDMDL
MODEL 4
REMARK VINA RESULT:      -4.9     11.524     12.069
REMARK  Name = NuBBE_653
REMARK  3 active torsions:
REMARK  status: ('A' for Active; 'I' for Inactive)
REMARK    1  A    between atoms: O_1  and  C_2
REMARK    2  A    between atoms: C_6  and  C_8
REMARK    3  A    between atoms: C_8  and  C_9
REMARK                            x       y       z     vdW  Elec       q    Type
REMARK                         _______ _______ _______ _____ _____    ______ ____
ROOT
ATOM      1  C   LIG A   1      -9.416  -2.707 125.650  0.00  0.00    +0.115 C 
ATOM      2  C   LIG A   1      -9.313  -3.357 124.271  0.00  0.00    +0.031 C 
ATOM      3  C   LIG A   1      -8.023  -2.969 123.548  0.00  0.00    +0.006 C 
ATOM      4  C   LIG A   1      -6.774  -3.277 124.391  0.00  0.00    -0.011 C 
ATOM      5  C   LIG A   1      -6.881  -2.614 125.773  0.00  0.00    +0.006 C 
ATOM      6  C   LIG A   1      -8.177  -2.994 126.493  0.00  0.00    +0.031 C 
ENDROOT
BRANCH   1   7
ATOM      7  O   LIG A   1      -9.559  -1.295 125.511  0.00  0.00    -0.392 OA
ATOM      8  H   LIG A   1      -8.920  -1.001 124.838  0.00  0.00    +0.210 HD
ENDBRANCH   1   7
BRANCH   4   9
ATOM      9  C   LIG A   1      -5.513  -2.837 123.625  0.00  0.00    -0.000 C 
ATOM     10  C   LIG A   1      -4.437  -3.911 123.549  0.00  0.00    +0.004 C 
ENDBRANCH   4   9
TORSDOF 2
ENDMDL
MODEL 5
REMARK VINA RESULT:      -4.8     12.049     12.634
REMARK  Name = NuBBE_653
REMARK  3 active torsions:
REMARK  status: ('A' for Active; 'I' for Inactive)
REMARK    1  A    between atoms: O_1  and  C_2
REMARK    2  A    between atoms: C_6  and  C_8
REMARK    3  A    between atoms: C_8  and  C_9
REMARK                            x       y       z     vdW  Elec       q    Type
REMARK                         _______ _______ _______ _____ _____    ______ ____
ROOT
ATOM      1  C   LIG A   1      -8.763  -2.304 123.917  0.00  0.00    +0.115 C 
ATOM      2  C   LIG A   1      -8.014  -3.099 124.984  0.00  0.00    +0.031 C 
ATOM      3  C   LIG A   1      -6.719  -3.707 124.444  0.00  0.00    +0.006 C 
ATOM      4  C   LIG A   1      -5.803  -2.644 123.813  0.00  0.00    -0.011 C 
ATOM      5  C   LIG A   1      -6.560  -1.853 122.735  0.00  0.00    +0.006 C 
ATOM      6  C   LIG A   1      -7.862  -1.254 123.272  0.00  0.00    +0.031 C 
ENDROOT
BRANCH   1   7
ATOM      7  O   LIG A   1      -9.239  -3.184 122.901  0.00  0.00    -0.392 OA
ATOM      8  H   LIG A   1      -8.526  -3.816 122.702  0.00  0.00    +0.210 HD
ENDBRANCH   1   7
BRANCH   4   9
ATOM      9  C   LIG A   1      -4.533  -3.319 123.261  0.00  0.00    -0.000 C 
ATOM     10  C   LIG A   1      -4.416  -4.792 123.624  0.00  0.00    +0.004 C 
ENDBRANCH   4   9
TORSDOF 2
ENDMDL
MODEL 6
REMARK VINA RESULT:      -4.7      2.347      3.307
REMARK  Name = NuBBE_653
REMARK  3 active torsions:
REMARK  status: ('A' for Active; 'I' for Inactive)
REMARK    1  A    between atoms: O_1  and  C_2
REMARK    2  A    between atoms: C_6  and  C_8
REMARK    3  A    between atoms: C_8  and  C_9
REMARK                            x       y       z     vdW  Elec       q    Type
REMARK                         _______ _______ _______ _____ _____    ______ ____
ROOT
ATOM      1  C   LIG A   1     -11.115   6.687 129.602  0.00  0.00    +0.115 C 
ATOM      2  C   LIG A   1     -12.332   6.948 130.488  0.00  0.00    +0.031 C 
ATOM      3  C   LIG A   1     -12.813   8.396 130.389  0.00  0.00    +0.006 C 
ATOM      4  C   LIG A   1     -13.097   8.812 128.936  0.00  0.00    -0.011 C 
ATOM      5  C   LIG A   1     -11.866   8.553 128.052  0.00  0.00    +0.006 C 
ATOM      6  C   LIG A   1     -11.377   7.107 128.159  0.00  0.00    +0.031 C 
ENDROOT
BRANCH   1   7
ATOM      7  O   LIG A   1      -9.991   7.416 130.094  0.00  0.00    -0.392 OA
ATOM      8  H   LIG A   1     -10.328   8.102 130.697  0.00  0.00    +0.210 HD
ENDBRANCH   1   7
BRANCH   4   9
ATOM      9  C   LIG A   1     -13.547  10.284 128.897  0.00  0.00    -0.000 C 
ATOM     10  C   LIG A   1     -13.455  10.987 130.244  0.00  0.00    +0.004 C 
ENDBRANCH   4   9
TORSDOF 2
ENDMDL
MODEL 7
REMARK VINA RESULT:      -4.7      1.681      2.817
REMARK  Name = NuBBE_653
REMARK  3 active torsions:
REMARK  status: ('A' for Active; 'I' for Inactive)
REMARK    1  A    between atoms: O_1  and  C_2
REMARK    2  A    between atoms: C_6  and  C_8
REMARK    3  A    between atoms: C_8  and  C_9
REMARK                            x       y       z     vdW  Elec       q    Type
REMARK                         _______ _______ _______ _____ _____    ______ ____
ROOT
ATOM      1  C   LIG A   1     -11.390   7.094 127.028  0.00  0.00    +0.115 C 
ATOM      2  C   LIG A   1     -10.699   7.017 128.388  0.00  0.00    +0.031 C 
ATOM      3  C   LIG A   1     -11.130   8.154 129.316  0.00  0.00    +0.006 C 
ATOM      4  C   LIG A   1     -12.658   8.214 129.483  0.00  0.00    -0.011 C 
ATOM      5  C   LIG A   1     -13.346   8.299 128.111  0.00  0.00    +0.006 C 
ATOM      6  C   LIG A   1     -12.906   7.168 127.179  0.00  0.00    +0.031 C 
ENDROOT
BRANCH   1   7
ATOM      7  O   LIG A   1     -10.943   8.250 126.322  0.00  0.00    -0.392 OA
ATOM      8  H   LIG A   1     -11.729   8.779 126.098  0.00  0.00    +0.210 HD
ENDBRANCH   1   7
BRANCH   4   9
ATOM      9  C   LIG A   1     -13.031   9.393 130.400  0.00  0.00    -0.000 C 
ATOM     10  C   LIG A   1     -13.457  10.644 129.645  0.00  0.00    +0.004 C 
ENDBRANCH   4   9
TORSDOF 2
ENDMDL
MODEL 8
REMARK VINA RESULT:      -4.6      7.575      9.325
REMARK  Name = NuBBE_653
REMARK  3 active torsions:
REMARK  status: ('A' for Active; 'I' for Inactive)
REMARK    1  A    between atoms: O_1  and  C_2
REMARK    2  A    between atoms: C_6  and  C_8
REMARK    3  A    between atoms: C_8  and  C_9
REMARK                            x       y       z     vdW  Elec       q    Type
REMARK                         _______ _______ _______ _____ _____    ______ ____
ROOT
ATOM      1  C   LIG A   1      -7.851   3.131 124.245  0.00  0.00    +0.115 C 
ATOM      2  C   LIG A   1      -8.551   2.653 122.975  0.00  0.00    +0.031 C 
ATOM      3  C   LIG A   1      -8.089   3.427 121.739  0.00  0.00    +0.006 C 
ATOM      4  C   LIG A   1      -6.561   3.383 121.569  0.00  0.00    -0.011 C 
ATOM      5  C   LIG A   1      -5.863   3.871 122.848  0.00  0.00    +0.006 C 
ATOM      6  C   LIG A   1      -6.333   3.105 124.086  0.00  0.00    +0.031 C 
ENDROOT
BRANCH   1   7
ATOM      7  O   LIG A   1      -8.256   4.463 124.552  0.00  0.00    -0.392 OA
ATOM      8  H   LIG A   1      -9.180   4.426 124.854  0.00  0.00    +0.210 HD
ENDBRANCH   1   7
BRANCH   4   9
ATOM      9  C   LIG A   1      -6.155   4.203 120.331  0.00  0.00    -0.000 C 
ATOM     10  C   LIG A   1      -7.268   4.351 119.303  0.00  0.00    +0.004 C 
ENDBRANCH   4   9
TORSDOF 2
ENDMDL
MODEL 9
REMARK VINA RESULT:      -4.5     11.646     12.252
REMARK  Name = NuBBE_653
REMARK  3 active torsions:
REMARK  status: ('A' for Active; 'I' for Inactive)
REMARK    1  A    between atoms: O_1  and  C_2
REMARK    2  A    between atoms: C_6  and  C_8
REMARK    3  A    between atoms: C_8  and  C_9
REMARK                            x       y       z     vdW  Elec       q    Type
REMARK                         _______ _______ _______ _____ _____    ______ ____
ROOT
ATOM      1  C   LIG A   1      -8.636  -1.911 125.130  0.00  0.00    +0.115 C 
ATOM      2  C   LIG A   1      -7.739  -0.886 124.437  0.00  0.00    +0.031 C 
ATOM      3  C   LIG A   1      -6.290  -1.365 124.341  0.00  0.00    +0.006 C 
ATOM      4  C   LIG A   1      -6.180  -2.738 123.656  0.00  0.00    -0.011 C 
ATOM      5  C   LIG A   1      -7.080  -3.765 124.362  0.00  0.00    +0.006 C 
ATOM      6  C   LIG A   1      -8.527  -3.281 124.469  0.00  0.00    +0.031 C 
ENDROOT
BRANCH   1   7
ATOM      7  O   LIG A   1      -8.264  -2.033 126.501  0.00  0.00    -0.392 OA
ATOM      8  H   LIG A   1      -8.939  -1.572 127.030  0.00  0.00    +0.210 HD
ENDBRANCH   1   7
BRANCH   4   9
ATOM      9  C   LIG A   1      -4.706  -3.179 123.617  0.00  0.00    -0.000 C 
ATOM     10  C   LIG A   1      -4.518  -4.689 123.647  0.00  0.00    +0.004 C 
ENDBRANCH   4   9
TORSDOF 2
ENDMDL
