MODEL 1
REMARK VINA RESULT:      -6.0      0.000      0.000
REMARK  Name = NuBBE_1114
REMARK  6 active torsions:
REMARK  status: ('A' for Active; 'I' for Inactive)
REMARK    1  A    between atoms: C_2  and  C_3
REMARK    2  A    between atoms: C_5  and  O_6
REMARK    3  A    between atoms: O_6  and  C_7
REMARK    4  A    between atoms: C_8  and  O_9
REMARK    5  A    between atoms: C_10  and  O_11
REMARK    6  A    between atoms: O_11  and  C_12
REMARK                            x       y       z     vdW  Elec       q    Type
REMARK                         _______ _______ _______ _____ _____    ______ ____
ROOT
ATOM      1  C   LIG A   1     -12.977   9.266 129.581  0.00  0.00    +0.021 A 
ATOM      2  C   LIG A   1     -12.738   8.689 128.331  0.00  0.00    +0.060 A 
ATOM      3  C   LIG A   1     -12.343   7.349 128.232  0.00  0.00    +0.166 A 
ATOM      4  C   LIG A   1     -12.207   6.605 129.409  0.00  0.00    +0.201 A 
ATOM      5  C   LIG A   1     -12.437   7.188 130.671  0.00  0.00    +0.166 A 
ATOM      6  C   LIG A   1     -12.818   8.524 130.755  0.00  0.00    +0.060 A 
ENDROOT
BRANCH   1   7
ATOM      7  C   LIG A   1     -13.411  10.675 129.660  0.00  0.00    +0.259 C 
ATOM      8  O   LIG A   1     -13.411  11.292 130.716  0.00  0.00    -0.296 OA
ENDBRANCH   1   7
BRANCH   3   9
ATOM      9  O   LIG A   1     -12.140   6.944 126.941  0.00  0.00    -0.491 OA
ATOM     10  C   LIG A   1     -11.008   7.458 126.251  0.00  0.00    +0.277 C 
ENDBRANCH   3   9
BRANCH   4  11
ATOM     11  O   LIG A   1     -11.854   5.279 129.391  0.00  0.00    -0.501 OA
ATOM     12  H   LIG A   1     -12.414   4.853 130.071  0.00  0.00    +0.292 HD
ENDBRANCH   4  11
BRANCH   5  13
ATOM     13  O   LIG A   1     -12.261   6.338 131.737  0.00  0.00    -0.491 OA
ATOM     14  C   LIG A   1     -10.953   6.286 132.300  0.00  0.00    +0.277 C 
ENDBRANCH   5  13
TORSDOF 4
ENDMDL
MODEL 2
REMARK VINA RESULT:      -5.9      0.587      3.377
REMARK  Name = NuBBE_1114
REMARK  6 active torsions:
REMARK  status: ('A' for Active; 'I' for Inactive)
REMARK    1  A    between atoms: C_2  and  C_3
REMARK    2  A    between atoms: C_5  and  O_6
REMARK    3  A    between atoms: O_6  and  C_7
REMARK    4  A    between atoms: C_8  and  O_9
REMARK    5  A    between atoms: C_10  and  O_11
REMARK    6  A    between atoms: O_11  and  C_12
REMARK                            x       y       z     vdW  Elec       q    Type
REMARK                         _______ _______ _______ _____ _____    ______ ____
ROOT
ATOM      1  C   LIG A   1     -13.090   9.569 129.983  0.00  0.00    +0.021 A 
ATOM      2  C   LIG A   1     -12.882   8.634 131.001  0.00  0.00    +0.060 A 
ATOM      3  C   LIG A   1     -12.526   7.315 130.691  0.00  0.00    +0.166 A 
ATOM      4  C   LIG A   1     -12.373   6.964 129.345  0.00  0.00    +0.201 A 
ATOM      5  C   LIG A   1     -12.593   7.902 128.317  0.00  0.00    +0.166 A 
ATOM      6  C   LIG A   1     -12.958   9.207 128.640  0.00  0.00    +0.060 A 
ENDROOT
BRANCH   1   7
ATOM      7  C   LIG A   1     -13.446  10.957 130.335  0.00  0.00    +0.259 C 
ATOM      8  O   LIG A   1     -13.373  11.868 129.521  0.00  0.00    -0.296 OA
ENDBRANCH   1   7
BRANCH   3   9
ATOM      9  O   LIG A   1     -12.371   6.527 131.799  0.00  0.00    -0.491 OA
ATOM     10  C   LIG A   1     -11.049   6.267 132.251  0.00  0.00    +0.277 C 
ENDBRANCH   3   9
BRANCH   4  11
ATOM     11  O   LIG A   1     -11.996   5.701 128.964  0.00  0.00    -0.501 OA
ATOM     12  H   LIG A   1     -11.990   5.717 127.985  0.00  0.00    +0.292 HD
ENDBRANCH   4  11
BRANCH   5  13
ATOM     13  O   LIG A   1     -12.410   7.415 127.045  0.00  0.00    -0.491 OA
ATOM     14  C   LIG A   1     -11.155   7.694 126.431  0.00  0.00    +0.277 C 
ENDBRANCH   5  13
TORSDOF 4
ENDMDL
MODEL 3
REMARK VINA RESULT:      -5.6      1.219      4.026
REMARK  Name = NuBBE_1114
REMARK  6 active torsions:
REMARK  status: ('A' for Active; 'I' for Inactive)
REMARK    1  A    between atoms: C_2  and  C_3
REMARK    2  A    between atoms: C_5  and  O_6
REMARK    3  A    between atoms: O_6  and  C_7
REMARK    4  A    between atoms: C_8  and  O_9
REMARK    5  A    between atoms: C_10  and  O_11
REMARK    6  A    between atoms: O_11  and  C_12
REMARK                            x       y       z     vdW  Elec       q    Type
REMARK                         _______ _______ _______ _____ _____    ______ ____
ROOT
ATOM      1  C   LIG A   1     -11.513   7.735 128.051  0.00  0.00    +0.021 A 
ATOM      2  C   LIG A   1     -11.415   6.560 128.802  0.00  0.00    +0.060 A 
ATOM      3  C   LIG A   1     -11.932   6.506 130.103  0.00  0.00    +0.166 A 
ATOM      4  C   LIG A   1     -12.556   7.646 130.621  0.00  0.00    +0.201 A 
ATOM      5  C   LIG A   1     -12.646   8.834 129.869  0.00  0.00    +0.166 A 
ATOM      6  C   LIG A   1     -12.117   8.877 128.582  0.00  0.00    +0.060 A 
ENDROOT
BRANCH   1   7
ATOM      7  C   LIG A   1     -10.978   7.763 126.675  0.00  0.00    +0.259 C 
ATOM      8  O   LIG A   1     -10.437   6.787 126.173  0.00  0.00    -0.296 OA
ENDBRANCH   1   7
BRANCH   3   9
ATOM      9  O   LIG A   1     -11.745   5.291 130.703  0.00  0.00    -0.491 OA
ATOM     10  C   LIG A   1     -10.454   4.701 130.627  0.00  0.00    +0.277 C 
ENDBRANCH   3   9
BRANCH   4  11
ATOM     11  O   LIG A   1     -13.113   7.660 131.875  0.00  0.00    -0.501 OA
ATOM     12  H   LIG A   1     -14.047   7.921 131.740  0.00  0.00    +0.292 HD
ENDBRANCH   4  11
BRANCH   5  13
ATOM     13  O   LIG A   1     -13.280   9.872 130.509  0.00  0.00    -0.491 OA
ATOM     14  C   LIG A   1     -13.563  11.026 129.722  0.00  0.00    +0.277 C 
ENDBRANCH   5  13
TORSDOF 4
ENDMDL
MODEL 4
REMARK VINA RESULT:      -5.4      1.285      3.669
REMARK  Name = NuBBE_1114
REMARK  6 active torsions:
REMARK  status: ('A' for Active; 'I' for Inactive)
REMARK    1  A    between atoms: C_2  and  C_3
REMARK    2  A    between atoms: C_5  and  O_6
REMARK    3  A    between atoms: O_6  and  C_7
REMARK    4  A    between atoms: C_8  and  O_9
REMARK    5  A    between atoms: C_10  and  O_11
REMARK    6  A    between atoms: O_11  and  C_12
REMARK                            x       y       z     vdW  Elec       q    Type
REMARK                         _______ _______ _______ _____ _____    ______ ____
ROOT
ATOM      1  C   LIG A   1     -11.207   7.553 128.021  0.00  0.00    +0.021 A 
ATOM      2  C   LIG A   1     -12.105   8.616 128.143  0.00  0.00    +0.060 A 
ATOM      3  C   LIG A   1     -12.792   8.830 129.345  0.00  0.00    +0.166 A 
ATOM      4  C   LIG A   1     -12.545   7.964 130.417  0.00  0.00    +0.201 A 
ATOM      5  C   LIG A   1     -11.648   6.886 130.292  0.00  0.00    +0.166 A 
ATOM      6  C   LIG A   1     -10.982   6.679 129.088  0.00  0.00    +0.060 A 
ENDROOT
BRANCH   1   7
ATOM      7  C   LIG A   1     -10.481   7.359 126.750  0.00  0.00    +0.259 C 
ATOM      8  O   LIG A   1      -9.838   6.343 126.524  0.00  0.00    -0.296 OA
ENDBRANCH   1   7
BRANCH   3   9
ATOM      9  O   LIG A   1     -13.639   9.903 129.295  0.00  0.00    -0.491 OA
ATOM     10  C   LIG A   1     -13.375  11.001 130.158  0.00  0.00    +0.277 C 
ENDBRANCH   3   9
BRANCH   4  11
ATOM     11  O   LIG A   1     -13.156   8.128 131.635  0.00  0.00    -0.501 OA
ATOM     12  H   LIG A   1     -12.515   7.791 132.293  0.00  0.00    +0.292 HD
ENDBRANCH   4  11
BRANCH   5  13
ATOM     13  O   LIG A   1     -11.510   6.119 131.424  0.00  0.00    -0.491 OA
ATOM     14  C   LIG A   1     -10.229   6.127 132.046  0.00  0.00    +0.277 C 
ENDBRANCH   5  13
TORSDOF 4
ENDMDL
MODEL 5
REMARK VINA RESULT:      -5.2      9.013     10.612
REMARK  Name = NuBBE_1114
REMARK  6 active torsions:
REMARK  status: ('A' for Active; 'I' for Inactive)
REMARK    1  A    between atoms: C_2  and  C_3
REMARK    2  A    between atoms: C_5  and  O_6
REMARK    3  A    between atoms: O_6  and  C_7
REMARK    4  A    between atoms: C_8  and  O_9
REMARK    5  A    between atoms: C_10  and  O_11
REMARK    6  A    between atoms: O_11  and  C_12
REMARK                            x       y       z     vdW  Elec       q    Type
REMARK                         _______ _______ _______ _____ _____    ______ ____
ROOT
ATOM      1  C   LIG A   1      -6.009   4.353 120.828  0.00  0.00    +0.021 A 
ATOM      2  C   LIG A   1      -7.253   4.252 120.198  0.00  0.00    +0.060 A 
ATOM      3  C   LIG A   1      -8.323   3.615 120.838  0.00  0.00    +0.166 A 
ATOM      4  C   LIG A   1      -8.119   3.097 122.123  0.00  0.00    +0.201 A 
ATOM      5  C   LIG A   1      -6.864   3.188 122.755  0.00  0.00    +0.166 A 
ATOM      6  C   LIG A   1      -5.806   3.814 122.102  0.00  0.00    +0.060 A 
ENDROOT
BRANCH   1   7
ATOM      7  C   LIG A   1      -4.901   5.045 120.141  0.00  0.00    +0.259 C 
ATOM      8  O   LIG A   1      -4.606   6.204 120.399  0.00  0.00    -0.296 OA
ENDBRANCH   1   7
BRANCH   3   9
ATOM      9  O   LIG A   1      -9.463   3.592 120.082  0.00  0.00    -0.491 OA
ATOM     10  C   LIG A   1      -9.487   4.364 118.889  0.00  0.00    +0.277 C 
ENDBRANCH   3   9
BRANCH   4  11
ATOM     11  O   LIG A   1      -9.128   2.488 122.826  0.00  0.00    -0.501 OA
ATOM     12  H   LIG A   1      -9.943   2.973 122.582  0.00  0.00    +0.292 HD
ENDBRANCH   4  11
BRANCH   5  13
ATOM     13  O   LIG A   1      -6.812   2.633 124.011  0.00  0.00    -0.491 OA
ATOM     14  C   LIG A   1      -6.615   3.533 125.097  0.00  0.00    +0.277 C 
ENDBRANCH   5  13
TORSDOF 4
ENDMDL
MODEL 6
REMARK VINA RESULT:      -4.9      3.279      5.914
REMARK  Name = NuBBE_1114
REMARK  6 active torsions:
REMARK  status: ('A' for Active; 'I' for Inactive)
REMARK    1  A    between atoms: C_2  and  C_3
REMARK    2  A    between atoms: C_5  and  O_6
REMARK    3  A    between atoms: O_6  and  C_7
REMARK    4  A    between atoms: C_8  and  O_9
REMARK    5  A    between atoms: C_10  and  O_11
REMARK    6  A    between atoms: O_11  and  C_12
REMARK                            x       y       z     vdW  Elec       q    Type
REMARK                         _______ _______ _______ _____ _____    ______ ____
ROOT
ATOM      1  C   LIG A   1      -7.727   6.589 131.362  0.00  0.00    +0.021 A 
ATOM      2  C   LIG A   1      -8.088   5.719 132.395  0.00  0.00    +0.060 A 
ATOM      3  C   LIG A   1      -9.436   5.430 132.639  0.00  0.00    +0.166 A 
ATOM      4  C   LIG A   1     -10.405   6.019 131.818  0.00  0.00    +0.201 A 
ATOM      5  C   LIG A   1     -10.043   6.905 130.784  0.00  0.00    +0.166 A 
ATOM      6  C   LIG A   1      -8.700   7.193 130.560  0.00  0.00    +0.060 A 
ENDROOT
BRANCH   1   7
ATOM      7  C   LIG A   1      -6.298   6.865 131.112  0.00  0.00    +0.259 C 
ATOM      8  O   LIG A   1      -5.936   7.686 130.280  0.00  0.00    -0.296 OA
ENDBRANCH   1   7
BRANCH   3   9
ATOM      9  O   LIG A   1      -9.619   4.572 133.689  0.00  0.00    -0.491 OA
ATOM     10  C   LIG A   1      -8.464   4.010 134.299  0.00  0.00    +0.277 C 
ENDBRANCH   3   9
BRANCH   4  11
ATOM     11  O   LIG A   1     -11.743   5.759 131.975  0.00  0.00    -0.501 OA
ATOM     12  H   LIG A   1     -12.171   6.637 132.041  0.00  0.00    +0.292 HD
ENDBRANCH   4  11
BRANCH   5  13
ATOM     13  O   LIG A   1     -11.100   7.410 130.064  0.00  0.00    -0.491 OA
ATOM     14  C   LIG A   1     -10.779   8.084 128.851  0.00  0.00    +0.277 C 
ENDBRANCH   5  13
TORSDOF 4
ENDMDL
MODEL 7
REMARK VINA RESULT:      -4.7     10.681     13.265
REMARK  Name = NuBBE_1114
REMARK  6 active torsions:
REMARK  status: ('A' for Active; 'I' for Inactive)
REMARK    1  A    between atoms: C_2  and  C_3
REMARK    2  A    between atoms: C_5  and  O_6
REMARK    3  A    between atoms: O_6  and  C_7
REMARK    4  A    between atoms: C_8  and  O_9
REMARK    5  A    between atoms: C_10  and  O_11
REMARK    6  A    between atoms: O_11  and  C_12
REMARK                            x       y       z     vdW  Elec       q    Type
REMARK                         _______ _______ _______ _____ _____    ______ ____
ROOT
ATOM      1  C   LIG A   1      -5.926  -2.882 123.786  0.00  0.00    +0.021 A 
ATOM      2  C   LIG A   1      -6.828  -3.545 124.623  0.00  0.00    +0.060 A 
ATOM      3  C   LIG A   1      -8.048  -2.950 124.965  0.00  0.00    +0.166 A 
ATOM      4  C   LIG A   1      -8.345  -1.687 124.439  0.00  0.00    +0.201 A 
ATOM      5  C   LIG A   1      -7.433  -1.012 123.604  0.00  0.00    +0.166 A 
ATOM      6  C   LIG A   1      -6.219  -1.611 123.282  0.00  0.00    +0.060 A 
ENDROOT
BRANCH   1   7
ATOM      7  C   LIG A   1      -4.654  -3.537 123.425  0.00  0.00    +0.259 C 
ATOM      8  O   LIG A   1      -4.496  -4.745 123.535  0.00  0.00    -0.296 OA
ENDBRANCH   1   7
BRANCH   3   9
ATOM      9  O   LIG A   1      -8.808  -3.725 125.798  0.00  0.00    -0.491 OA
ATOM     10  C   LIG A   1      -8.730  -3.476 127.195  0.00  0.00    +0.277 C 
ENDBRANCH   3   9
BRANCH   4  11
ATOM     11  O   LIG A   1      -9.534  -1.054 124.703  0.00  0.00    -0.501 OA
ATOM     12  H   LIG A   1      -9.602  -0.343 124.034  0.00  0.00    +0.292 HD
ENDBRANCH   4  11
BRANCH   5  13
ATOM     13  O   LIG A   1      -7.858   0.220 123.167  0.00  0.00    -0.491 OA
ATOM     14  C   LIG A   1      -7.104   1.345 123.606  0.00  0.00    +0.277 C 
ENDBRANCH   5  13
TORSDOF 4
ENDMDL
MODEL 8
REMARK VINA RESULT:      -4.7     10.540     12.841
REMARK  Name = NuBBE_1114
REMARK  6 active torsions:
REMARK  status: ('A' for Active; 'I' for Inactive)
REMARK    1  A    between atoms: C_2  and  C_3
REMARK    2  A    between atoms: C_5  and  O_6
REMARK    3  A    between atoms: O_6  and  C_7
REMARK    4  A    between atoms: C_8  and  O_9
REMARK    5  A    between atoms: C_10  and  O_11
REMARK    6  A    between atoms: O_11  and  C_12
REMARK                            x       y       z     vdW  Elec       q    Type
REMARK                         _______ _______ _______ _____ _____    ______ ____
ROOT
ATOM      1  C   LIG A   1      -6.058  -2.835 123.821  0.00  0.00    +0.021 A 
ATOM      2  C   LIG A   1      -6.267  -1.536 123.350  0.00  0.00    +0.060 A 
ATOM      3  C   LIG A   1      -7.441  -0.844 123.672  0.00  0.00    +0.166 A 
ATOM      4  C   LIG A   1      -8.387  -1.479 124.485  0.00  0.00    +0.201 A 
ATOM      5  C   LIG A   1      -8.184  -2.792 124.952  0.00  0.00    +0.166 A 
ATOM      6  C   LIG A   1      -7.017  -3.472 124.614  0.00  0.00    +0.060 A 
ENDROOT
BRANCH   1   7
ATOM      7  C   LIG A   1      -4.805  -3.538 123.484  0.00  0.00    +0.259 C 
ATOM      8  O   LIG A   1      -4.648  -4.728 123.722  0.00  0.00    -0.296 OA
ENDBRANCH   1   7
BRANCH   3   9
ATOM      9  O   LIG A   1      -7.492   0.408 123.124  0.00  0.00    -0.491 OA
ATOM     10  C   LIG A   1      -7.033   1.499 123.910  0.00  0.00    +0.277 C 
ENDBRANCH   3   9
BRANCH   4  11
ATOM     11  O   LIG A   1      -9.547  -0.854 124.869  0.00  0.00    -0.501 OA
ATOM     12  H   LIG A   1      -9.429  -0.651 125.820  0.00  0.00    +0.292 HD
ENDBRANCH   4  11
BRANCH   5  13
ATOM     13  O   LIG A   1      -9.200  -3.287 125.735  0.00  0.00    -0.491 OA
ATOM     14  C   LIG A   1      -8.865  -3.612 127.081  0.00  0.00    +0.277 C 
ENDBRANCH   5  13
TORSDOF 4
ENDMDL
MODEL 9
REMARK VINA RESULT:      -4.7      8.161      9.606
REMARK  Name = NuBBE_1114
REMARK  6 active torsions:
REMARK  status: ('A' for Active; 'I' for Inactive)
REMARK    1  A    between atoms: C_2  and  C_3
REMARK    2  A    between atoms: C_5  and  O_6
REMARK    3  A    between atoms: O_6  and  C_7
REMARK    4  A    between atoms: C_8  and  O_9
REMARK    5  A    between atoms: C_10  and  O_11
REMARK    6  A    between atoms: O_11  and  C_12
REMARK                            x       y       z     vdW  Elec       q    Type
REMARK                         _______ _______ _______ _____ _____    ______ ____
ROOT
ATOM      1  C   LIG A   1      -6.033   3.926 122.366  0.00  0.00    +0.021 A 
ATOM      2  C   LIG A   1      -7.237   3.279 122.075  0.00  0.00    +0.060 A 
ATOM      3  C   LIG A   1      -8.169   3.024 123.088  0.00  0.00    +0.166 A 
ATOM      4  C   LIG A   1      -7.871   3.444 124.390  0.00  0.00    +0.201 A 
ATOM      5  C   LIG A   1      -6.653   4.087 124.688  0.00  0.00    +0.166 A 
ATOM      6  C   LIG A   1      -5.731   4.323 123.672  0.00  0.00    +0.060 A 
ENDROOT
BRANCH   1   7
ATOM      7  C   LIG A   1      -5.074   4.201 121.278  0.00  0.00    +0.259 C 
ATOM      8  O   LIG A   1      -4.848   5.338 120.889  0.00  0.00    -0.296 OA
ENDBRANCH   1   7
BRANCH   3   9
ATOM      9  O   LIG A   1      -9.286   2.376 122.638  0.00  0.00    -0.491 OA
ATOM     10  C   LIG A   1      -9.446   1.006 122.983  0.00  0.00    +0.277 C 
ENDBRANCH   3   9
BRANCH   4  11
ATOM     11  O   LIG A   1      -8.747   3.258 125.429  0.00  0.00    -0.501 OA
ATOM     12  H   LIG A   1      -9.633   3.211 125.015  0.00  0.00    +0.292 HD
ENDBRANCH   4  11
BRANCH   5  13
ATOM     13  O   LIG A   1      -6.496   4.437 126.007  0.00  0.00    -0.491 OA
ATOM     14  C   LIG A   1      -5.170   4.734 126.434  0.00  0.00    +0.277 C 
ENDBRANCH   5  13
TORSDOF 4
ENDMDL
