MODEL 1
REMARK VINA RESULT:      -8.7      0.000      0.000
REMARK  Name = NuBBE_1097
REMARK  12 active torsions:
REMARK  status: ('A' for Active; 'I' for Inactive)
REMARK    1  A    between atoms: C_1  and  C_2
REMARK    2  A    between atoms: C_5  and  C_6
REMARK    3  A    between atoms: C_13  and  C_14
REMARK    4  A    between atoms: C_13  and  C_23
REMARK    5  A    between atoms: C_14  and  C_15
REMARK    6  A    between atoms: C_25  and  O_27
REMARK    7  A    between atoms: O_27  and  C_28
REMARK    8  A    between atoms: C_28  and  C_29
REMARK    9  A    between atoms: C_36  and  C_47
REMARK   10  A    between atoms: C_39  and  O_41
REMARK   11  A    between atoms: O_41  and  C_42
REMARK   12  A    between atoms: C_42  and  C_43
REMARK                            x       y       z     vdW  Elec       q    Type
REMARK                         _______ _______ _______ _____ _____    ______ ____
ROOT
ATOM      1  C   LIG A   1      -7.861   3.864 128.244  0.00  0.00    +0.020 C 
ATOM      2  C   LIG A   1      -7.401   2.546 128.922  0.00  0.00    +0.040 C 
ATOM      3  C   LIG A   1      -8.029   1.256 128.180  0.00  0.00    +0.053 C 
ATOM      4  C   LIG A   1      -7.481  -0.109 128.761  0.00  0.00    +0.016 C 
ATOM      5  C   LIG A   1      -8.000  -0.306 130.223  0.00  0.00    +0.015 C 
ATOM      6  C   LIG A   1      -5.949  -0.107 128.744  0.00  0.00    +0.183 C 
ATOM      7  O   LIG A   1      -5.402  -1.308 129.322  0.00  0.00    -0.461 OA
ATOM      8  C   LIG A   1      -5.890  -2.531 129.030  0.00  0.00    +0.308 C 
ATOM      9  C   LIG A   1      -7.317  -2.641 128.546  0.00  0.00    +0.126 C 
ATOM     10  C   LIG A   1      -7.953  -1.372 127.960  0.00  0.00    +0.023 C 
ATOM     11  C   LIG A   1      -7.896  -1.324 126.398  0.00  0.00    +0.034 C 
ATOM     12  C   LIG A   1      -8.906  -2.350 125.812  0.00  0.00    +0.019 C 
ATOM     13  C   LIG A   1      -8.426   0.042 125.936  0.00  0.00    +0.059 C 
ATOM     14  C   LIG A   1      -7.863   1.297 126.624  0.00  0.00    +0.182 C 
ATOM     15  O   LIG A   1      -5.229  -3.545 129.245  0.00  0.00    -0.251 OA
ATOM     16  C   LIG A   1      -5.341   1.090 129.473  0.00  0.00    +0.050 C 
ATOM     17  C   LIG A   1      -5.846   2.454 128.947  0.00  0.00    +0.009 C 
ATOM     18  C   LIG A   1      -5.228   3.644 129.725  0.00  0.00    -0.006 C 
ATOM     19  C   LIG A   1      -5.636   3.587 131.190  0.00  0.00    +0.056 C 
ATOM     20  C   LIG A   1      -7.139   3.444 131.431  0.00  0.00    +0.243 C 
ATOM     21  C   LIG A   1      -7.965   2.718 130.353  0.00  0.00    +0.180 C 
ATOM     22  O   LIG A   1      -9.134   2.388 130.598  0.00  0.00    -0.293 OA
ATOM     23  C   LIG A   1      -3.703   3.717 129.599  0.00  0.00    +0.008 C 
ENDROOT
BRANCH  11  24
ATOM     24  C   LIG A   1      -6.498  -1.554 125.739  0.00  0.00    +0.146 C 
ATOM     25  O   LIG A   1      -5.554  -0.815 126.033  0.00  0.00    -0.296 OA
BRANCH  24  26
ATOM     26  C   LIG A   1      -6.282  -2.668 124.715  0.00  0.00    +0.104 C 
ATOM     27  C   LIG A   1      -5.971  -2.109 123.355  0.00  0.00    +0.243 C 
ATOM     28  O   LIG A   1      -5.112  -3.063 122.711  0.00  0.00    -0.464 OA
ATOM     29  C   LIG A   1      -4.537  -3.886 123.649  0.00  0.00    +0.308 C 
ATOM     30  C   LIG A   1      -5.050  -3.519 124.996  0.00  0.00    +0.135 C 
ATOM     31  O   LIG A   1      -3.735  -4.748 123.391  0.00  0.00    -0.251 OA
ENDBRANCH  24  26
ENDBRANCH  11  24
BRANCH  14  32
ATOM     32  O   LIG A   1      -8.681   2.350 126.054  0.00  0.00    -0.461 OA
BRANCH  32  33
ATOM     33  C   LIG A   1      -8.275   2.813 124.837  0.00  0.00    +0.304 C 
ATOM     34  C   LIG A   1      -6.802   3.093 124.850  0.00  0.00    +0.136 C 
ATOM     35  O   LIG A   1      -9.015   3.110 123.911  0.00  0.00    -0.251 OA
ENDBRANCH  32  33
ENDBRANCH  14  32
BRANCH  20  36
ATOM     36  O   LIG A   1      -7.289   2.682 132.648  0.00  0.00    -0.454 OA
BRANCH  36  37
ATOM     37  C   LIG A   1      -7.546   3.402 133.771  0.00  0.00    +0.305 C 
ATOM     38  C   LIG A   1      -9.014   3.693 133.872  0.00  0.00    +0.136 C 
ATOM     39  O   LIG A   1      -6.717   3.723 134.611  0.00  0.00    -0.251 OA
ENDBRANCH  36  37
ENDBRANCH  20  36
TORSDOF 6
ENDMDL
MODEL 2
REMARK VINA RESULT:      -8.3      4.056      6.072
REMARK  Name = NuBBE_1097
REMARK  12 active torsions:
REMARK  status: ('A' for Active; 'I' for Inactive)
REMARK    1  A    between atoms: C_1  and  C_2
REMARK    2  A    between atoms: C_5  and  C_6
REMARK    3  A    between atoms: C_13  and  C_14
REMARK    4  A    between atoms: C_13  and  C_23
REMARK    5  A    between atoms: C_14  and  C_15
REMARK    6  A    between atoms: C_25  and  O_27
REMARK    7  A    between atoms: O_27  and  C_28
REMARK    8  A    between atoms: C_28  and  C_29
REMARK    9  A    between atoms: C_36  and  C_47
REMARK   10  A    between atoms: C_39  and  O_41
REMARK   11  A    between atoms: O_41  and  C_42
REMARK   12  A    between atoms: C_42  and  C_43
REMARK                            x       y       z     vdW  Elec       q    Type
REMARK                         _______ _______ _______ _____ _____    ______ ____
ROOT
ATOM      1  C   LIG A   1      -6.463   6.507 131.643  0.00  0.00    +0.020 C 
ATOM      2  C   LIG A   1      -5.253   5.962 130.839  0.00  0.00    +0.040 C 
ATOM      3  C   LIG A   1      -5.651   4.636 130.009  0.00  0.00    +0.053 C 
ATOM      4  C   LIG A   1      -4.481   4.125 129.076  0.00  0.00    +0.016 C 
ATOM      5  C   LIG A   1      -3.297   3.602 129.954  0.00  0.00    +0.015 C 
ATOM      6  C   LIG A   1      -4.000   5.263 128.170  0.00  0.00    +0.183 C 
ATOM      7  O   LIG A   1      -2.890   4.862 127.343  0.00  0.00    -0.461 OA
ATOM      8  C   LIG A   1      -2.872   3.682 126.692  0.00  0.00    +0.308 C 
ATOM      9  C   LIG A   1      -3.720   2.551 127.225  0.00  0.00    +0.126 C 
ATOM     10  C   LIG A   1      -4.889   2.932 128.144  0.00  0.00    +0.023 C 
ATOM     11  C   LIG A   1      -6.259   3.013 127.393  0.00  0.00    +0.034 C 
ATOM     12  C   LIG A   1      -6.737   1.577 127.034  0.00  0.00    +0.019 C 
ATOM     13  C   LIG A   1      -7.319   3.537 128.373  0.00  0.00    +0.059 C 
ATOM     14  C   LIG A   1      -6.977   4.793 129.192  0.00  0.00    +0.182 C 
ATOM     15  O   LIG A   1      -2.110   3.492 125.746  0.00  0.00    -0.251 OA
ATOM     16  C   LIG A   1      -3.586   6.514 128.945  0.00  0.00    +0.050 C 
ATOM     17  C   LIG A   1      -4.694   7.055 129.879  0.00  0.00    +0.009 C 
ATOM     18  C   LIG A   1      -4.233   8.309 130.666  0.00  0.00    -0.006 C 
ATOM     19  C   LIG A   1      -3.059   7.962 131.571  0.00  0.00    +0.056 C 
ATOM     20  C   LIG A   1      -3.285   6.749 132.475  0.00  0.00    +0.243 C 
ATOM     21  C   LIG A   1      -4.241   5.653 131.969  0.00  0.00    +0.180 C 
ATOM     22  O   LIG A   1      -4.288   4.564 132.556  0.00  0.00    -0.293 OA
ATOM     23  C   LIG A   1      -3.874   9.490 129.759  0.00  0.00    +0.008 C 
ENDROOT
BRANCH  11  24
ATOM     24  C   LIG A   1      -6.301   3.898 126.106  0.00  0.00    +0.146 C 
ATOM     25  O   LIG A   1      -6.452   5.119 126.209  0.00  0.00    -0.296 OA
BRANCH  24  26
ATOM     26  C   LIG A   1      -6.184   3.276 124.715  0.00  0.00    +0.104 C 
ATOM     27  C   LIG A   1      -7.510   3.260 124.008  0.00  0.00    +0.243 C 
ATOM     28  O   LIG A   1      -7.223   3.383 122.606  0.00  0.00    -0.464 OA
ATOM     29  C   LIG A   1      -5.961   3.893 122.428  0.00  0.00    +0.308 C 
ATOM     30  C   LIG A   1      -5.325   4.092 123.757  0.00  0.00    +0.135 C 
ATOM     31  O   LIG A   1      -5.479   4.144 121.351  0.00  0.00    -0.251 OA
ENDBRANCH  24  26
ENDBRANCH  11  24
BRANCH  14  32
ATOM     32  O   LIG A   1      -8.114   4.893 130.085  0.00  0.00    -0.461 OA
BRANCH  32  33
ATOM     33  C   LIG A   1      -9.261   5.370 129.521  0.00  0.00    +0.304 C 
ATOM     34  C   LIG A   1     -10.457   4.909 130.300  0.00  0.00    +0.136 C 
ATOM     35  O   LIG A   1      -9.332   5.958 128.452  0.00  0.00    -0.251 OA
ENDBRANCH  32  33
ENDBRANCH  14  32
BRANCH  20  36
ATOM     36  O   LIG A   1      -1.996   6.122 132.650  0.00  0.00    -0.454 OA
BRANCH  36  37
ATOM     37  C   LIG A   1      -1.142   6.748 133.501  0.00  0.00    +0.305 C 
ATOM     38  C   LIG A   1      -1.759   6.858 134.863  0.00  0.00    +0.136 C 
ATOM     39  O   LIG A   1      -0.011   7.121 133.222  0.00  0.00    -0.251 OA
ENDBRANCH  36  37
ENDBRANCH  20  36
TORSDOF 6
ENDMDL
MODEL 3
REMARK VINA RESULT:      -8.2      2.710      4.376
REMARK  Name = NuBBE_1097
REMARK  12 active torsions:
REMARK  status: ('A' for Active; 'I' for Inactive)
REMARK    1  A    between atoms: C_1  and  C_2
REMARK    2  A    between atoms: C_5  and  C_6
REMARK    3  A    between atoms: C_13  and  C_14
REMARK    4  A    between atoms: C_13  and  C_23
REMARK    5  A    between atoms: C_14  and  C_15
REMARK    6  A    between atoms: C_25  and  O_27
REMARK    7  A    between atoms: O_27  and  C_28
REMARK    8  A    between atoms: C_28  and  C_29
REMARK    9  A    between atoms: C_36  and  C_47
REMARK   10  A    between atoms: C_39  and  O_41
REMARK   11  A    between atoms: O_41  and  C_42
REMARK   12  A    between atoms: C_42  and  C_43
REMARK                            x       y       z     vdW  Elec       q    Type
REMARK                         _______ _______ _______ _____ _____    ______ ____
ROOT
ATOM      1  C   LIG A   1      -7.819   4.023 127.787  0.00  0.00    +0.020 C 
ATOM      2  C   LIG A   1      -7.912   3.469 129.233  0.00  0.00    +0.040 C 
ATOM      3  C   LIG A   1      -8.156   1.873 129.234  0.00  0.00    +0.053 C 
ATOM      4  C   LIG A   1      -8.128   1.252 130.688  0.00  0.00    +0.016 C 
ATOM      5  C   LIG A   1      -9.365   1.758 131.501  0.00  0.00    +0.015 C 
ATOM      6  C   LIG A   1      -6.832   1.650 131.402  0.00  0.00    +0.183 C 
ATOM      7  O   LIG A   1      -6.788   1.158 132.755  0.00  0.00    -0.461 OA
ATOM      8  C   LIG A   1      -7.150  -0.102 133.071  0.00  0.00    +0.308 C 
ATOM      9  C   LIG A   1      -8.099  -0.832 132.150  0.00  0.00    +0.126 C 
ATOM     10  C   LIG A   1      -8.207  -0.314 130.709  0.00  0.00    +0.023 C 
ATOM     11  C   LIG A   1      -7.318  -1.115 129.702  0.00  0.00    +0.034 C 
ATOM     12  C   LIG A   1      -7.943  -2.518 129.463  0.00  0.00    +0.019 C 
ATOM     13  C   LIG A   1      -7.395  -0.423 128.332  0.00  0.00    +0.059 C 
ATOM     14  C   LIG A   1      -7.179   1.099 128.287  0.00  0.00    +0.182 C 
ATOM     15  O   LIG A   1      -6.800  -0.615 134.132  0.00  0.00    -0.251 OA
ATOM     16  C   LIG A   1      -6.606   3.161 131.439  0.00  0.00    +0.050 C 
ATOM     17  C   LIG A   1      -6.627   3.823 130.041  0.00  0.00    +0.009 C 
ATOM     18  C   LIG A   1      -6.420   5.357 130.119  0.00  0.00    -0.006 C 
ATOM     19  C   LIG A   1      -7.552   6.005 130.903  0.00  0.00    +0.056 C 
ATOM     20  C   LIG A   1      -8.956   5.624 130.432  0.00  0.00    +0.243 C 
ATOM     21  C   LIG A   1      -9.137   4.239 129.784  0.00  0.00    +0.180 C 
ATOM     22  O   LIG A   1     -10.279   3.801 129.586  0.00  0.00    -0.293 OA
ATOM     23  C   LIG A   1      -5.065   5.750 130.717  0.00  0.00    +0.008 C 
ENDROOT
BRANCH  11  24
ATOM     24  C   LIG A   1      -5.812  -1.288 130.079  0.00  0.00    +0.146 C 
ATOM     25  O   LIG A   1      -5.062  -0.306 130.071  0.00  0.00    -0.296 OA
BRANCH  24  26
ATOM     26  C   LIG A   1      -5.239  -2.660 130.436  0.00  0.00    +0.104 C 
ATOM     27  C   LIG A   1      -3.956  -2.927 129.700  0.00  0.00    +0.243 C 
ATOM     28  O   LIG A   1      -3.164  -3.763 130.558  0.00  0.00    -0.464 OA
ATOM     29  C   LIG A   1      -3.617  -3.674 131.851  0.00  0.00    +0.308 C 
ATOM     30  C   LIG A   1      -4.799  -2.773 131.890  0.00  0.00    +0.135 C 
ATOM     31  O   LIG A   1      -3.105  -4.236 132.787  0.00  0.00    -0.251 OA
ENDBRANCH  24  26
ENDBRANCH  11  24
BRANCH  14  32
ATOM     32  O   LIG A   1      -7.468   1.406 126.900  0.00  0.00    -0.461 OA
BRANCH  32  33
ATOM     33  C   LIG A   1      -6.481   1.089 126.012  0.00  0.00    +0.304 C 
ATOM     34  C   LIG A   1      -5.197   1.758 126.399  0.00  0.00    +0.136 C 
ATOM     35  O   LIG A   1      -6.642   0.479 124.966  0.00  0.00    -0.251 OA
ENDBRANCH  32  33
ENDBRANCH  14  32
BRANCH  20  36
ATOM     36  O   LIG A   1      -9.802   5.645 131.602  0.00  0.00    -0.454 OA
BRANCH  36  37
ATOM     37  C   LIG A   1     -10.934   6.390 131.503  0.00  0.00    +0.305 C 
ATOM     38  C   LIG A   1     -10.858   7.287 130.304  0.00  0.00    +0.136 C 
ATOM     39  O   LIG A   1     -11.903   6.306 132.245  0.00  0.00    -0.251 OA
ENDBRANCH  36  37
ENDBRANCH  20  36
TORSDOF 6
ENDMDL
MODEL 4
REMARK VINA RESULT:      -8.1      2.880      7.819
REMARK  Name = NuBBE_1097
REMARK  12 active torsions:
REMARK  status: ('A' for Active; 'I' for Inactive)
REMARK    1  A    between atoms: C_1  and  C_2
REMARK    2  A    between atoms: C_5  and  C_6
REMARK    3  A    between atoms: C_13  and  C_14
REMARK    4  A    between atoms: C_13  and  C_23
REMARK    5  A    between atoms: C_14  and  C_15
REMARK    6  A    between atoms: C_25  and  O_27
REMARK    7  A    between atoms: O_27  and  C_28
REMARK    8  A    between atoms: C_28  and  C_29
REMARK    9  A    between atoms: C_36  and  C_47
REMARK   10  A    between atoms: C_39  and  O_41
REMARK   11  A    between atoms: O_41  and  C_42
REMARK   12  A    between atoms: C_42  and  C_43
REMARK                            x       y       z     vdW  Elec       q    Type
REMARK                         _______ _______ _______ _____ _____    ______ ____
ROOT
ATOM      1  C   LIG A   1      -4.653   1.354 127.310  0.00  0.00    +0.020 C 
ATOM      2  C   LIG A   1      -5.592   1.105 128.520  0.00  0.00    +0.040 C 
ATOM      3  C   LIG A   1      -5.652   2.395 129.489  0.00  0.00    +0.053 C 
ATOM      4  C   LIG A   1      -6.696   2.228 130.664  0.00  0.00    +0.016 C 
ATOM      5  C   LIG A   1      -6.207   1.117 131.651  0.00  0.00    +0.015 C 
ATOM      6  C   LIG A   1      -8.069   1.856 130.095  0.00  0.00    +0.183 C 
ATOM      7  O   LIG A   1      -9.042   1.632 131.133  0.00  0.00    -0.461 OA
ATOM      8  C   LIG A   1      -9.163   2.459 132.192  0.00  0.00    +0.308 C 
ATOM      9  C   LIG A   1      -7.970   3.293 132.595  0.00  0.00    +0.126 C 
ATOM     10  C   LIG A   1      -6.889   3.522 131.529  0.00  0.00    +0.023 C 
ATOM     11  C   LIG A   1      -7.037   4.893 130.791  0.00  0.00    +0.034 C 
ATOM     12  C   LIG A   1      -6.626   6.044 131.751  0.00  0.00    +0.019 C 
ATOM     13  C   LIG A   1      -5.998   4.948 129.660  0.00  0.00    +0.059 C 
ATOM     14  C   LIG A   1      -5.900   3.736 128.720  0.00  0.00    +0.182 C 
ATOM     15  O   LIG A   1     -10.183   2.464 132.877  0.00  0.00    -0.251 OA
ATOM     16  C   LIG A   1      -8.034   0.616 129.203  0.00  0.00    +0.050 C 
ATOM     17  C   LIG A   1      -7.023   0.723 128.036  0.00  0.00    +0.009 C 
ATOM     18  C   LIG A   1      -6.996  -0.561 127.168  0.00  0.00    -0.006 C 
ATOM     19  C   LIG A   1      -6.544  -1.753 128.000  0.00  0.00    +0.056 C 
ATOM     20  C   LIG A   1      -5.243  -1.537 128.773  0.00  0.00    +0.243 C 
ATOM     21  C   LIG A   1      -4.903  -0.099 129.207  0.00  0.00    +0.180 C 
ATOM     22  O   LIG A   1      -3.982   0.095 130.012  0.00  0.00    -0.293 OA
ATOM     23  C   LIG A   1      -8.339  -0.860 126.495  0.00  0.00    +0.008 C 
ENDROOT
BRANCH  11  24
ATOM     24  C   LIG A   1      -8.440   5.214 130.183  0.00  0.00    +0.146 C 
ATOM     25  O   LIG A   1      -8.810   4.634 129.158  0.00  0.00    -0.296 OA
BRANCH  24  26
ATOM     26  C   LIG A   1      -9.357   6.256 130.822  0.00  0.00    +0.104 C 
ATOM     27  C   LIG A   1      -9.860   7.241 129.804  0.00  0.00    +0.243 C 
ATOM     28  O   LIG A   1     -11.163   7.653 130.248  0.00  0.00    -0.464 OA
ATOM     29  C   LIG A   1     -11.666   6.738 131.141  0.00  0.00    +0.308 C 
ATOM     30  C   LIG A   1     -10.655   5.671 131.363  0.00  0.00    +0.135 C 
ATOM     31  O   LIG A   1     -12.763   6.810 131.637  0.00  0.00    -0.251 OA
ENDBRANCH  24  26
ENDBRANCH  11  24
BRANCH  14  32
ATOM     32  O   LIG A   1      -4.749   4.074 127.906  0.00  0.00    -0.461 OA
BRANCH  32  33
ATOM     33  C   LIG A   1      -4.939   5.091 127.017  0.00  0.00    +0.304 C 
ATOM     34  C   LIG A   1      -5.704   4.606 125.823  0.00  0.00    +0.136 C 
ATOM     35  O   LIG A   1      -4.433   6.201 127.095  0.00  0.00    -0.251 OA
ENDBRANCH  32  33
ENDBRANCH  14  32
BRANCH  20  36
ATOM     36  O   LIG A   1      -5.350  -2.317 129.984  0.00  0.00    -0.454 OA
BRANCH  36  37
ATOM     37  C   LIG A   1      -4.893  -3.595 129.909  0.00  0.00    +0.305 C 
ATOM     38  C   LIG A   1      -3.549  -3.624 129.246  0.00  0.00    +0.136 C 
ATOM     39  O   LIG A   1      -5.462  -4.577 130.365  0.00  0.00    -0.251 OA
ENDBRANCH  36  37
ENDBRANCH  20  36
TORSDOF 6
ENDMDL
MODEL 5
REMARK VINA RESULT:      -8.0      2.171      4.889
REMARK  Name = NuBBE_1097
REMARK  12 active torsions:
REMARK  status: ('A' for Active; 'I' for Inactive)
REMARK    1  A    between atoms: C_1  and  C_2
REMARK    2  A    between atoms: C_5  and  C_6
REMARK    3  A    between atoms: C_13  and  C_14
REMARK    4  A    between atoms: C_13  and  C_23
REMARK    5  A    between atoms: C_14  and  C_15
REMARK    6  A    between atoms: C_25  and  O_27
REMARK    7  A    between atoms: O_27  and  C_28
REMARK    8  A    between atoms: C_28  and  C_29
REMARK    9  A    between atoms: C_36  and  C_47
REMARK   10  A    between atoms: C_39  and  O_41
REMARK   11  A    between atoms: O_41  and  C_42
REMARK   12  A    between atoms: C_42  and  C_43
REMARK                            x       y       z     vdW  Elec       q    Type
REMARK                         _______ _______ _______ _____ _____    ______ ____
ROOT
ATOM      1  C   LIG A   1      -6.056  -0.612 131.707  0.00  0.00    +0.020 C 
ATOM      2  C   LIG A   1      -6.258   0.492 130.636  0.00  0.00    +0.040 C 
ATOM      3  C   LIG A   1      -5.732   0.008 129.189  0.00  0.00    +0.053 C 
ATOM      4  C   LIG A   1      -6.038   1.056 128.046  0.00  0.00    +0.016 C 
ATOM      5  C   LIG A   1      -5.185   2.347 128.272  0.00  0.00    +0.015 C 
ATOM      6  C   LIG A   1      -7.529   1.406 128.042  0.00  0.00    +0.183 C 
ATOM      7  O   LIG A   1      -7.847   2.407 127.056  0.00  0.00    -0.461 OA
ATOM      8  C   LIG A   1      -7.357   2.356 125.800  0.00  0.00    +0.308 C 
ATOM      9  C   LIG A   1      -6.075   1.594 125.557  0.00  0.00    +0.126 C 
ATOM     10  C   LIG A   1      -5.678   0.546 126.606  0.00  0.00    +0.023 C 
ATOM     11  C   LIG A   1      -6.095  -0.908 126.209  0.00  0.00    +0.034 C 
ATOM     12  C   LIG A   1      -5.179  -1.412 125.058  0.00  0.00    +0.019 C 
ATOM     13  C   LIG A   1      -5.779  -1.841 127.387  0.00  0.00    +0.059 C 
ATOM     14  C   LIG A   1      -6.253  -1.413 128.786  0.00  0.00    +0.182 C 
ATOM     15  O   LIG A   1      -7.881   2.994 124.890  0.00  0.00    -0.251 OA
ATOM     16  C   LIG A   1      -8.034   1.900 129.398  0.00  0.00    +0.050 C 
ATOM     17  C   LIG A   1      -7.756   0.913 130.556  0.00  0.00    +0.009 C 
ATOM     18  C   LIG A   1      -8.258   1.457 131.918  0.00  0.00    -0.006 C 
ATOM     19  C   LIG A   1      -7.522   2.739 132.280  0.00  0.00    +0.056 C 
ATOM     20  C   LIG A   1      -5.998   2.643 132.211  0.00  0.00    +0.243 C 
ATOM     21  C   LIG A   1      -5.393   1.643 131.208  0.00  0.00    +0.180 C 
ATOM     22  O   LIG A   1      -4.180   1.682 130.961  0.00  0.00    -0.293 OA
ATOM     23  C   LIG A   1      -9.773   1.685 131.953  0.00  0.00    +0.008 C 
ENDROOT
BRANCH  11  24
ATOM     24  C   LIG A   1      -7.588  -1.123 125.801  0.00  0.00    +0.146 C 
ATOM     25  O   LIG A   1      -8.450  -1.242 126.677  0.00  0.00    -0.296 OA
BRANCH  24  26
ATOM     26  C   LIG A   1      -8.000  -1.213 124.332  0.00  0.00    +0.104 C 
ATOM     27  C   LIG A   1      -8.889  -2.399 124.084  0.00  0.00    +0.243 C 
ATOM     28  O   LIG A   1      -9.767  -2.029 123.009  0.00  0.00    -0.464 OA
ATOM     29  C   LIG A   1      -9.805  -0.662 122.882  0.00  0.00    +0.308 C 
ATOM     30  C   LIG A   1      -8.882  -0.057 123.878  0.00  0.00    +0.135 C 
ATOM     31  O   LIG A   1     -10.499  -0.076 122.089  0.00  0.00    -0.251 OA
ENDBRANCH  24  26
ENDBRANCH  11  24
BRANCH  14  32
ATOM     32  O   LIG A   1      -5.660  -2.429 129.633  0.00  0.00    -0.461 OA
BRANCH  32  33
ATOM     33  C   LIG A   1      -6.425  -3.540 129.837  0.00  0.00    +0.304 C 
ATOM     34  C   LIG A   1      -7.880  -3.204 129.702  0.00  0.00    +0.136 C 
ATOM     35  O   LIG A   1      -6.011  -4.622 130.227  0.00  0.00    -0.251 OA
ENDBRANCH  32  33
ENDBRANCH  14  32
BRANCH  20  36
ATOM     36  O   LIG A   1      -5.521   3.950 131.826  0.00  0.00    -0.454 OA
BRANCH  36  37
ATOM     37  C   LIG A   1      -4.974   4.699 132.819  0.00  0.00    +0.305 C 
ATOM     38  C   LIG A   1      -5.107   6.157 132.499  0.00  0.00    +0.136 C 
ATOM     39  O   LIG A   1      -4.493   4.257 133.854  0.00  0.00    -0.251 OA
ENDBRANCH  36  37
ENDBRANCH  20  36
TORSDOF 6
ENDMDL
MODEL 6
REMARK VINA RESULT:      -8.0      2.483      5.864
REMARK  Name = NuBBE_1097
REMARK  12 active torsions:
REMARK  status: ('A' for Active; 'I' for Inactive)
REMARK    1  A    between atoms: C_1  and  C_2
REMARK    2  A    between atoms: C_5  and  C_6
REMARK    3  A    between atoms: C_13  and  C_14
REMARK    4  A    between atoms: C_13  and  C_23
REMARK    5  A    between atoms: C_14  and  C_15
REMARK    6  A    between atoms: C_25  and  O_27
REMARK    7  A    between atoms: O_27  and  C_28
REMARK    8  A    between atoms: C_28  and  C_29
REMARK    9  A    between atoms: C_36  and  C_47
REMARK   10  A    between atoms: C_39  and  O_41
REMARK   11  A    between atoms: O_41  and  C_42
REMARK   12  A    between atoms: C_42  and  C_43
REMARK                            x       y       z     vdW  Elec       q    Type
REMARK                         _______ _______ _______ _____ _____    ______ ____
ROOT
ATOM      1  C   LIG A   1      -6.541  -0.618 130.048  0.00  0.00    +0.020 C 
ATOM      2  C   LIG A   1      -6.144   0.823 130.462  0.00  0.00    +0.040 C 
ATOM      3  C   LIG A   1      -5.055   1.446 129.446  0.00  0.00    +0.053 C 
ATOM      4  C   LIG A   1      -4.722   2.959 129.760  0.00  0.00    +0.016 C 
ATOM      5  C   LIG A   1      -3.968   3.061 131.127  0.00  0.00    +0.015 C 
ATOM      6  C   LIG A   1      -6.015   3.780 129.812  0.00  0.00    +0.183 C 
ATOM      7  O   LIG A   1      -5.767   5.156 130.157  0.00  0.00    -0.461 OA
ATOM      8  C   LIG A   1      -4.764   5.865 129.600  0.00  0.00    +0.308 C 
ATOM      9  C   LIG A   1      -3.577   5.117 129.041  0.00  0.00    +0.126 C 
ATOM     10  C   LIG A   1      -3.787   3.635 128.698  0.00  0.00    +0.023 C 
ATOM     11  C   LIG A   1      -4.089   3.394 127.182  0.00  0.00    +0.034 C 
ATOM     12  C   LIG A   1      -2.791   3.615 126.355  0.00  0.00    +0.019 C 
ATOM     13  C   LIG A   1      -4.420   1.907 126.986  0.00  0.00    +0.059 C 
ATOM     14  C   LIG A   1      -5.445   1.270 127.939  0.00  0.00    +0.182 C 
ATOM     15  O   LIG A   1      -4.763   7.094 129.633  0.00  0.00    -0.251 OA
ATOM     16  C   LIG A   1      -7.042   3.221 130.796  0.00  0.00    +0.050 C 
ATOM     17  C   LIG A   1      -7.402   1.739 130.538  0.00  0.00    +0.009 C 
ATOM     18  C   LIG A   1      -8.427   1.200 131.568  0.00  0.00    -0.006 C 
ATOM     19  C   LIG A   1      -7.839   1.245 132.972  0.00  0.00    +0.056 C 
ATOM     20  C   LIG A   1      -6.464   0.592 133.110  0.00  0.00    +0.243 C 
ATOM     21  C   LIG A   1      -5.549   0.590 131.872  0.00  0.00    +0.180 C 
ATOM     22  O   LIG A   1      -4.357   0.271 131.992  0.00  0.00    -0.293 OA
ATOM     23  C   LIG A   1      -9.767   1.941 131.529  0.00  0.00    +0.008 C 
ENDROOT
BRANCH  11  24
ATOM     24  C   LIG A   1      -5.243   4.239 126.554  0.00  0.00    +0.146 C 
ATOM     25  O   LIG A   1      -5.097   5.456 126.402  0.00  0.00    -0.296 OA
BRANCH  24  26
ATOM     26  C   LIG A   1      -6.565   3.590 126.144  0.00  0.00    +0.104 C 
ATOM     27  C   LIG A   1      -7.726   4.512 126.387  0.00  0.00    +0.243 C 
ATOM     28  O   LIG A   1      -8.706   4.202 125.384  0.00  0.00    -0.464 OA
ATOM     29  C   LIG A   1      -8.115   3.533 124.340  0.00  0.00    +0.308 C 
ATOM     30  C   LIG A   1      -6.674   3.331 124.648  0.00  0.00    +0.135 C 
ATOM     31  O   LIG A   1      -8.695   3.193 123.339  0.00  0.00    -0.251 OA
ENDBRANCH  24  26
ENDBRANCH  11  24
BRANCH  14  32
ATOM     32  O   LIG A   1      -5.386  -0.128 127.561  0.00  0.00    -0.461 OA
BRANCH  32  33
ATOM     33  C   LIG A   1      -5.978  -0.437 126.370  0.00  0.00    +0.304 C 
ATOM     34  C   LIG A   1      -7.439  -0.104 126.412  0.00  0.00    +0.136 C 
ATOM     35  O   LIG A   1      -5.444  -1.041 125.452  0.00  0.00    -0.251 OA
ENDBRANCH  32  33
ENDBRANCH  14  32
BRANCH  20  36
ATOM     36  O   LIG A   1      -5.763   1.324 134.139  0.00  0.00    -0.454 OA
BRANCH  36  37
ATOM     37  C   LIG A   1      -5.435   0.617 135.252  0.00  0.00    +0.305 C 
ATOM     38  C   LIG A   1      -4.179   1.164 135.860  0.00  0.00    +0.136 C 
ATOM     39  O   LIG A   1      -6.094  -0.297 135.729  0.00  0.00    -0.251 OA
ENDBRANCH  36  37
ENDBRANCH  20  36
TORSDOF 6
ENDMDL
MODEL 7
REMARK VINA RESULT:      -7.9      3.044      4.831
REMARK  Name = NuBBE_1097
REMARK  12 active torsions:
REMARK  status: ('A' for Active; 'I' for Inactive)
REMARK    1  A    between atoms: C_1  and  C_2
REMARK    2  A    between atoms: C_5  and  C_6
REMARK    3  A    between atoms: C_13  and  C_14
REMARK    4  A    between atoms: C_13  and  C_23
REMARK    5  A    between atoms: C_14  and  C_15
REMARK    6  A    between atoms: C_25  and  O_27
REMARK    7  A    between atoms: O_27  and  C_28
REMARK    8  A    between atoms: C_28  and  C_29
REMARK    9  A    between atoms: C_36  and  C_47
REMARK   10  A    between atoms: C_39  and  O_41
REMARK   11  A    between atoms: O_41  and  C_42
REMARK   12  A    between atoms: C_42  and  C_43
REMARK                            x       y       z     vdW  Elec       q    Type
REMARK                         _______ _______ _______ _____ _____    ______ ____
ROOT
ATOM      1  C   LIG A   1      -6.076   4.230 126.908  0.00  0.00    +0.020 C 
ATOM      2  C   LIG A   1      -5.411   3.766 128.231  0.00  0.00    +0.040 C 
ATOM      3  C   LIG A   1      -6.422   2.865 129.109  0.00  0.00    +0.053 C 
ATOM      4  C   LIG A   1      -5.740   2.267 130.404  0.00  0.00    +0.016 C 
ATOM      5  C   LIG A   1      -5.402   3.422 131.403  0.00  0.00    +0.015 C 
ATOM      6  C   LIG A   1      -4.462   1.514 130.021  0.00  0.00    +0.183 C 
ATOM      7  O   LIG A   1      -3.770   1.002 131.176  0.00  0.00    -0.461 OA
ATOM      8  C   LIG A   1      -4.418   0.380 132.182  0.00  0.00    +0.308 C 
ATOM      9  C   LIG A   1      -5.884   0.678 132.389  0.00  0.00    +0.126 C 
ATOM     10  C   LIG A   1      -6.651   1.263 131.194  0.00  0.00    +0.023 C 
ATOM     11  C   LIG A   1      -7.441   0.184 130.384  0.00  0.00    +0.034 C 
ATOM     12  C   LIG A   1      -8.673  -0.282 131.210  0.00  0.00    +0.019 C 
ATOM     13  C   LIG A   1      -8.044   0.856 129.142  0.00  0.00    +0.059 C 
ATOM     14  C   LIG A   1      -7.119   1.733 128.282  0.00  0.00    +0.182 C 
ATOM     15  O   LIG A   1      -3.814  -0.337 132.977  0.00  0.00    -0.251 OA
ATOM     16  C   LIG A   1      -3.480   2.366 129.219  0.00  0.00    +0.050 C 
ATOM     17  C   LIG A   1      -4.097   2.981 127.941  0.00  0.00    +0.009 C 
ATOM     18  C   LIG A   1      -3.081   3.858 127.166  0.00  0.00    -0.006 C 
ATOM     19  C   LIG A   1      -2.638   5.036 128.022  0.00  0.00    +0.056 C 
ATOM     20  C   LIG A   1      -3.781   5.853 128.625  0.00  0.00    +0.243 C 
ATOM     21  C   LIG A   1      -5.103   5.120 128.916  0.00  0.00    +0.180 C 
ATOM     22  O   LIG A   1      -5.975   5.678 129.597  0.00  0.00    -0.293 OA
ATOM     23  C   LIG A   1      -1.862   3.071 126.672  0.00  0.00    +0.008 C 
ENDROOT
BRANCH  11  24
ATOM     24  C   LIG A   1      -6.636  -1.072 129.919  0.00  0.00    +0.146 C 
ATOM     25  O   LIG A   1      -5.800  -0.963 129.017  0.00  0.00    -0.296 OA
BRANCH  24  26
ATOM     26  C   LIG A   1      -6.884  -2.445 130.544  0.00  0.00    +0.104 C 
ATOM     27  C   LIG A   1      -6.836  -3.535 129.510  0.00  0.00    +0.243 C 
ATOM     28  O   LIG A   1      -6.346  -4.707 130.180  0.00  0.00    -0.464 OA
ATOM     29  C   LIG A   1      -5.705  -4.351 131.341  0.00  0.00    +0.308 C 
ATOM     30  C   LIG A   1      -5.788  -2.877 131.510  0.00  0.00    +0.135 C 
ATOM     31  O   LIG A   1      -5.156  -5.134 132.077  0.00  0.00    -0.251 OA
ENDBRANCH  24  26
ENDBRANCH  11  24
BRANCH  14  32
ATOM     32  O   LIG A   1      -8.043   2.302 127.321  0.00  0.00    -0.461 OA
BRANCH  32  33
ATOM     33  C   LIG A   1      -8.382   1.487 126.281  0.00  0.00    +0.304 C 
ATOM     34  C   LIG A   1      -7.152   0.897 125.659  0.00  0.00    +0.136 C 
ATOM     35  O   LIG A   1      -9.504   1.367 125.813  0.00  0.00    -0.251 OA
ENDBRANCH  32  33
ENDBRANCH  14  32
BRANCH  20  36
ATOM     36  O   LIG A   1      -3.302   6.357 129.891  0.00  0.00    -0.454 OA
BRANCH  36  37
ATOM     37  C   LIG A   1      -3.499   7.682 130.115  0.00  0.00    +0.305 C 
ATOM     38  C   LIG A   1      -3.191   8.015 131.544  0.00  0.00    +0.136 C 
ATOM     39  O   LIG A   1      -3.824   8.502 129.268  0.00  0.00    -0.251 OA
ENDBRANCH  36  37
ENDBRANCH  20  36
TORSDOF 6
ENDMDL
MODEL 8
REMARK VINA RESULT:      -7.9      3.220      8.533
REMARK  Name = NuBBE_1097
REMARK  12 active torsions:
REMARK  status: ('A' for Active; 'I' for Inactive)
REMARK    1  A    between atoms: C_1  and  C_2
REMARK    2  A    between atoms: C_5  and  C_6
REMARK    3  A    between atoms: C_13  and  C_14
REMARK    4  A    between atoms: C_13  and  C_23
REMARK    5  A    between atoms: C_14  and  C_15
REMARK    6  A    between atoms: C_25  and  O_27
REMARK    7  A    between atoms: O_27  and  C_28
REMARK    8  A    between atoms: C_28  and  C_29
REMARK    9  A    between atoms: C_36  and  C_47
REMARK   10  A    between atoms: C_39  and  O_41
REMARK   11  A    between atoms: O_41  and  C_42
REMARK   12  A    between atoms: C_42  and  C_43
REMARK                            x       y       z     vdW  Elec       q    Type
REMARK                         _______ _______ _______ _____ _____    ______ ____
ROOT
ATOM      1  C   LIG A   1      -5.166   0.571 127.712  0.00  0.00    +0.020 C 
ATOM      2  C   LIG A   1      -5.751   1.994 127.910  0.00  0.00    +0.040 C 
ATOM      3  C   LIG A   1      -6.896   2.003 129.048  0.00  0.00    +0.053 C 
ATOM      4  C   LIG A   1      -7.426   3.457 129.370  0.00  0.00    +0.016 C 
ATOM      5  C   LIG A   1      -8.207   4.019 128.136  0.00  0.00    +0.015 C 
ATOM      6  C   LIG A   1      -6.251   4.379 129.711  0.00  0.00    +0.183 C 
ATOM      7  O   LIG A   1      -6.679   5.733 129.952  0.00  0.00    -0.461 OA
ATOM      8  C   LIG A   1      -7.757   6.019 130.710  0.00  0.00    +0.308 C 
ATOM      9  C   LIG A   1      -8.830   4.967 130.864  0.00  0.00    +0.126 C 
ATOM     10  C   LIG A   1      -8.426   3.514 130.577  0.00  0.00    +0.023 C 
ATOM     11  C   LIG A   1      -8.074   2.709 131.870  0.00  0.00    +0.034 C 
ATOM     12  C   LIG A   1      -9.377   2.407 132.662  0.00  0.00    +0.019 C 
ATOM     13  C   LIG A   1      -7.551   1.326 131.452  0.00  0.00    +0.059 C 
ATOM     14  C   LIG A   1      -6.466   1.271 130.363  0.00  0.00    +0.182 C 
ATOM     15  O   LIG A   1      -7.918   7.142 131.185  0.00  0.00    -0.251 OA
ATOM     16  C   LIG A   1      -5.175   4.407 128.627  0.00  0.00    +0.050 C 
ATOM     17  C   LIG A   1      -4.623   3.007 128.268  0.00  0.00    +0.009 C 
ATOM     18  C   LIG A   1      -3.552   3.072 127.149  0.00  0.00    -0.006 C 
ATOM     19  C   LIG A   1      -4.161   3.619 125.866  0.00  0.00    +0.056 C 
ATOM     20  C   LIG A   1      -5.442   2.916 125.416  0.00  0.00    +0.243 C 
ATOM     21  C   LIG A   1      -6.332   2.291 126.506  0.00  0.00    +0.180 C 
ATOM     22  O   LIG A   1      -7.473   1.906 126.218  0.00  0.00    -0.293 OA
ATOM     23  C   LIG A   1      -2.318   3.890 127.544  0.00  0.00    +0.008 C 
ENDROOT
BRANCH  11  24
ATOM     24  C   LIG A   1      -7.030   3.355 132.837  0.00  0.00    +0.146 C 
ATOM     25  O   LIG A   1      -5.875   3.551 132.447  0.00  0.00    -0.296 OA
BRANCH  24  26
ATOM     26  C   LIG A   1      -7.406   3.728 134.271  0.00  0.00    +0.104 C 
ATOM     27  C   LIG A   1      -6.194   3.791 135.157  0.00  0.00    +0.243 C 
ATOM     28  O   LIG A   1      -6.473   4.785 136.155  0.00  0.00    -0.464 OA
ATOM     29  C   LIG A   1      -7.490   5.605 135.730  0.00  0.00    +0.308 C 
ATOM     30  C   LIG A   1      -7.967   5.138 134.402  0.00  0.00    +0.135 C 
ATOM     31  O   LIG A   1      -7.895   6.556 136.352  0.00  0.00    -0.251 OA
ENDBRANCH  24  26
ENDBRANCH  11  24
BRANCH  14  32
ATOM     32  O   LIG A   1      -6.339  -0.155 130.132  0.00  0.00    -0.461 OA
BRANCH  32  33
ATOM     33  C   LIG A   1      -5.561  -0.826 131.030  0.00  0.00    +0.304 C 
ATOM     34  C   LIG A   1      -4.224  -0.161 131.162  0.00  0.00    +0.136 C 
ATOM     35  O   LIG A   1      -5.840  -1.900 131.542  0.00  0.00    -0.251 OA
ENDBRANCH  32  33
ENDBRANCH  14  32
BRANCH  20  36
ATOM     36  O   LIG A   1      -6.246   3.915 124.751  0.00  0.00    -0.454 OA
BRANCH  36  37
ATOM     37  C   LIG A   1      -6.105   3.989 123.402  0.00  0.00    +0.305 C 
ATOM     38  C   LIG A   1      -7.023   3.011 122.732  0.00  0.00    +0.136 C 
ATOM     39  O   LIG A   1      -5.378   4.776 122.809  0.00  0.00    -0.251 OA
ENDBRANCH  36  37
ENDBRANCH  20  36
TORSDOF 6
ENDMDL
MODEL 9
REMARK VINA RESULT:      -7.9      2.699      5.035
REMARK  Name = NuBBE_1097
REMARK  12 active torsions:
REMARK  status: ('A' for Active; 'I' for Inactive)
REMARK    1  A    between atoms: C_1  and  C_2
REMARK    2  A    between atoms: C_5  and  C_6
REMARK    3  A    between atoms: C_13  and  C_14
REMARK    4  A    between atoms: C_13  and  C_23
REMARK    5  A    between atoms: C_14  and  C_15
REMARK    6  A    between atoms: C_25  and  O_27
REMARK    7  A    between atoms: O_27  and  C_28
REMARK    8  A    between atoms: C_28  and  C_29
REMARK    9  A    between atoms: C_36  and  C_47
REMARK   10  A    between atoms: C_39  and  O_41
REMARK   11  A    between atoms: O_41  and  C_42
REMARK   12  A    between atoms: C_42  and  C_43
REMARK                            x       y       z     vdW  Elec       q    Type
REMARK                         _______ _______ _______ _____ _____    ______ ____
ROOT
ATOM      1  C   LIG A   1      -8.104   1.013 127.468  0.00  0.00    +0.020 C 
ATOM      2  C   LIG A   1      -7.565   1.510 128.836  0.00  0.00    +0.040 C 
ATOM      3  C   LIG A   1      -7.848   0.432 130.003  0.00  0.00    +0.053 C 
ATOM      4  C   LIG A   1      -7.200   0.844 131.385  0.00  0.00    +0.016 C 
ATOM      5  C   LIG A   1      -7.921   2.112 131.949  0.00  0.00    +0.015 C 
ATOM      6  C   LIG A   1      -5.706   1.129 131.198  0.00  0.00    +0.183 C 
ATOM      7  O   LIG A   1      -5.084   1.569 132.421  0.00  0.00    -0.461 OA
ATOM      8  C   LIG A   1      -5.319   0.964 133.602  0.00  0.00    +0.308 C 
ATOM      9  C   LIG A   1      -6.608   0.197 133.776  0.00  0.00    +0.126 C 
ATOM     10  C   LIG A   1      -7.326  -0.256 132.496  0.00  0.00    +0.023 C 
ATOM     11  C   LIG A   1      -7.015  -1.739 132.111  0.00  0.00    +0.034 C 
ATOM     12  C   LIG A   1      -7.738  -2.694 133.102  0.00  0.00    +0.019 C 
ATOM     13  C   LIG A   1      -7.666  -2.033 130.751  0.00  0.00    +0.059 C 
ATOM     14  C   LIG A   1      -7.430  -1.026 129.613  0.00  0.00    +0.182 C 
ATOM     15  O   LIG A   1      -4.553   1.112 134.553  0.00  0.00    -0.251 OA
ATOM     16  C   LIG A   1      -5.425   2.174 130.119  0.00  0.00    +0.050 C 
ATOM     17  C   LIG A   1      -6.041   1.823 128.744  0.00  0.00    +0.009 C 
ATOM     18  C   LIG A   1      -5.757   2.916 127.682  0.00  0.00    -0.006 C 
ATOM     19  C   LIG A   1      -6.392   4.235 128.097  0.00  0.00    +0.056 C 
ATOM     20  C   LIG A   1      -7.873   4.144 128.466  0.00  0.00    +0.243 C 
ATOM     21  C   LIG A   1      -8.382   2.809 129.040  0.00  0.00    +0.180 C 
ATOM     22  O   LIG A   1      -9.509   2.752 129.551  0.00  0.00    -0.293 OA
ATOM     23  C   LIG A   1      -4.263   3.109 127.404  0.00  0.00    +0.008 C 
ENDROOT
BRANCH  11  24
ATOM     24  C   LIG A   1      -5.507  -2.141 132.028  0.00  0.00    +0.146 C 
ATOM     25  O   LIG A   1      -4.899  -2.452 133.057  0.00  0.00    -0.296 OA
BRANCH  24  26
ATOM     26  C   LIG A   1      -4.759  -2.132 130.695  0.00  0.00    +0.104 C 
ATOM     27  C   LIG A   1      -3.349  -1.638 130.861  0.00  0.00    +0.243 C 
ATOM     28  O   LIG A   1      -2.564  -2.314 129.866  0.00  0.00    -0.464 OA
ATOM     29  C   LIG A   1      -3.224  -3.436 129.428  0.00  0.00    +0.308 C 
ATOM     30  C   LIG A   1      -4.541  -3.522 130.113  0.00  0.00    +0.135 C 
ATOM     31  O   LIG A   1      -2.773  -4.217 128.627  0.00  0.00    -0.251 OA
ENDBRANCH  24  26
ENDBRANCH  11  24
BRANCH  14  32
ATOM     32  O   LIG A   1      -8.295  -1.539 128.568  0.00  0.00    -0.461 OA
BRANCH  32  33
ATOM     33  C   LIG A   1      -7.802  -2.603 127.870  0.00  0.00    +0.304 C 
ATOM     34  C   LIG A   1      -6.463  -2.268 127.285  0.00  0.00    +0.136 C 
ATOM     35  O   LIG A   1      -8.417  -3.628 127.619  0.00  0.00    -0.251 OA
ENDBRANCH  32  33
ENDBRANCH  14  32
BRANCH  20  36
ATOM     36  O   LIG A   1      -8.106   5.144 129.482  0.00  0.00    -0.454 OA
BRANCH  36  37
ATOM     37  C   LIG A   1      -9.117   6.017 129.234  0.00  0.00    +0.305 C 
ATOM     38  C   LIG A   1      -9.336   6.903 130.424  0.00  0.00    +0.136 C 
ATOM     39  O   LIG A   1      -9.727   6.111 128.178  0.00  0.00    -0.251 OA
ENDBRANCH  36  37
ENDBRANCH  20  36
TORSDOF 6
ENDMDL
