MODEL 1
REMARK VINA RESULT:      -7.5      0.000      0.000
REMARK  Name = NuBBE_204
REMARK  25 active torsions:
REMARK  status: ('A' for Active; 'I' for Inactive)
REMARK    1  A    between atoms: C_1  and  O_2
REMARK    2  A    between atoms: O_2  and  C_3
REMARK    3  A    between atoms: C_5  and  C_6
REMARK    4  A    between atoms: C_6  and  O_7
REMARK    5  A    between atoms: O_7  and  C_8
REMARK    6  A    between atoms: C_8  and  C_9
REMARK    7  A    between atoms: C_9  and  O_46
REMARK    8  A    between atoms: C_10  and  O_45
REMARK    9  A    between atoms: C_12  and  O_16
REMARK   10  A    between atoms: O_16  and  C_17
REMARK   11  A    between atoms: C_17  and  C_18
REMARK   12  A    between atoms: C_21  and  O_32
REMARK   13  A    between atoms: C_23  and  O_31
REMARK   14  A    between atoms: C_25  and  O_30
REMARK   15  A    between atoms: C_27  and  O_29
REMARK   16  A    between atoms: O_32  and  C_33
REMARK   17  A    between atoms: C_35  and  O_36
REMARK   18  A    between atoms: O_36  and  C_37
REMARK   19  A    between atoms: C_38  and  O_43
REMARK   20  A    between atoms: C_39  and  O_40
REMARK   21  A    between atoms: O_40  and  C_41
REMARK   22  A    between atoms: O_43  and  C_44
REMARK   23  A    between atoms: C_49  and  O_50
REMARK   24  A    between atoms: O_50  and  C_51
REMARK   25  A    between atoms: C_52  and  O_53
REMARK                            x       y       z     vdW  Elec       q    Type
REMARK                         _______ _______ _______ _____ _____    ______ ____
ROOT
ATOM      1  O   LIG A   1      -9.698  -0.019 124.444  0.00  0.00    -0.346 OA
ENDROOT
BRANCH   1   4
ATOM      2  C   LIG A   1      -8.352  -2.698 124.565  0.00  0.00    +0.153 C 
ATOM      3  C   LIG A   1      -7.774  -1.424 123.955  0.00  0.00    +0.207 C 
ATOM      4  C   LIG A   1      -9.040  -0.745 123.401  0.00  0.00    +0.282 C 
ATOM      5  O   LIG A   1      -9.865  -1.824 122.922  0.00  0.00    -0.346 OA
ATOM      6  C   LIG A   1      -9.419  -3.052 123.531  0.00  0.00    +0.204 C 
BRANCH   2   7
ATOM      7  O   LIG A   1      -7.367  -3.740 124.638  0.00  0.00    -0.380 OA
ATOM      8  H   LIG A   1      -6.844  -3.571 125.449  0.00  0.00    +0.210 HD
ENDBRANCH   2   7
BRANCH   3   9
ATOM      9  O   LIG A   1      -6.834  -1.789 122.923  0.00  0.00    -0.384 OA
ATOM     10  H   LIG A   1      -6.345  -0.989 122.655  0.00  0.00    +0.210 HD
ENDBRANCH   3   9
BRANCH   2  11
ATOM     11  C   LIG A   1      -8.883  -2.405 125.977  0.00  0.00    +0.272 C 
BRANCH  11  12
ATOM     12  O   LIG A   1      -7.992  -2.934 126.955  0.00  0.00    -0.458 OA
BRANCH  12  13
ATOM     13  C   LIG A   1      -8.589  -3.455 128.060  0.00  0.00    +0.340 C 
ATOM     14  O   LIG A   1      -9.504  -4.223 128.123  0.00  0.00    -0.245 OA
BRANCH  13  17
ATOM     15  C   LIG A   1      -7.230  -1.313 130.844  0.00  0.00    +0.166 A 
ATOM     16  C   LIG A   1      -8.065  -1.782 129.840  0.00  0.00    +0.064 A 
ATOM     17  C   LIG A   1      -7.795  -2.998 129.221  0.00  0.00    +0.066 A 
ATOM     18  C   LIG A   1      -6.759  -3.809 129.647  0.00  0.00    +0.064 A 
ATOM     19  C   LIG A   1      -5.918  -3.384 130.675  0.00  0.00    +0.166 A 
ATOM     20  C   LIG A   1      -6.150  -2.117 131.248  0.00  0.00    +0.201 A 
BRANCH  20  21
ATOM     21  O   LIG A   1      -5.246  -1.579 132.129  0.00  0.00    -0.501 OA
ATOM     22  H   LIG A   1      -5.445  -2.004 132.982  0.00  0.00    +0.292 HD
ENDBRANCH  20  21
BRANCH  15  24
ATOM     23  C   LIG A   1      -8.739   0.161 131.910  0.00  0.00    +0.277 C 
ATOM     24  O   LIG A   1      -7.413  -0.093 131.446  0.00  0.00    -0.491 OA
ENDBRANCH  15  24
BRANCH  19  25
ATOM     25  O   LIG A   1      -4.890  -4.161 131.151  0.00  0.00    -0.491 OA
ATOM     26  C   LIG A   1      -5.269  -5.138 132.127  0.00  0.00    +0.277 C 
ENDBRANCH  19  25
ENDBRANCH  13  17
ENDBRANCH  12  13
ENDBRANCH  11  12
ENDBRANCH   2  11
ENDBRANCH   1   4
BRANCH   1  27
ATOM     27  C   LIG A   1      -9.988   1.336 124.078  0.00  0.00    +0.197 C 
BRANCH  27  28
ATOM     28  C   LIG A   1      -9.015   2.342 124.738  0.00  0.00    +0.179 C 
ATOM     29  O   LIG A   1      -8.386   1.742 125.889  0.00  0.00    -0.331 OA
ATOM     30  C   LIG A   1      -7.662   2.701 126.681  0.00  0.00    +0.339 C 
ATOM     31  C   LIG A   1      -6.490   3.273 125.839  0.00  0.00    +0.214 C 
ATOM     32  C   LIG A   1      -7.004   3.822 124.501  0.00  0.00    +0.180 C 
ATOM     33  C   LIG A   1      -7.943   2.855 123.769  0.00  0.00    +0.177 C 
BRANCH  31  34
ATOM     34  O   LIG A   1      -5.809   4.338 126.525  0.00  0.00    -0.383 OA
ATOM     35  H   LIG A   1      -5.030   3.940 126.960  0.00  0.00    +0.210 HD
ENDBRANCH  31  34
BRANCH  32  36
ATOM     36  O   LIG A   1      -5.889   4.150 123.645  0.00  0.00    -0.386 OA
ATOM     37  H   LIG A   1      -5.071   3.873 124.097  0.00  0.00    +0.210 HD
ENDBRANCH  32  36
BRANCH  33  38
ATOM     38  O   LIG A   1      -8.541   3.539 122.662  0.00  0.00    -0.387 OA
ATOM     39  H   LIG A   1      -7.839   3.654 121.990  0.00  0.00    +0.210 HD
ENDBRANCH  33  38
BRANCH  30  40
ATOM     40  O   LIG A   1      -7.112   2.099 127.870  0.00  0.00    -0.461 OA
BRANCH  40  41
ATOM     41  C   LIG A   1      -7.467   2.618 129.091  0.00  0.00    +0.131 A 
ATOM     42  C   LIG A   1      -8.832   2.838 129.272  0.00  0.00    +0.095 A 
ATOM     43  C   LIG A   1      -9.344   3.462 130.426  0.00  0.00    +0.169 A 
ATOM     44  C   LIG A   1      -8.472   3.895 131.430  0.00  0.00    +0.204 A 
ATOM     45  C   LIG A   1      -7.090   3.641 131.284  0.00  0.00    +0.169 A 
ATOM     46  C   LIG A   1      -6.605   2.988 130.116  0.00  0.00    +0.095 A 
BRANCH  44  47
ATOM     47  O   LIG A   1      -8.926   4.406 132.610  0.00  0.00    -0.488 OA
ATOM     48  C   LIG A   1      -9.148   3.591 133.752  0.00  0.00    +0.277 C 
ENDBRANCH  44  47
BRANCH  45  49
ATOM     49  O   LIG A   1      -6.092   3.966 132.170  0.00  0.00    -0.491 OA
ATOM     50  C   LIG A   1      -5.190   5.041 131.931  0.00  0.00    +0.277 C 
ENDBRANCH  45  49
BRANCH  43  51
ATOM     51  O   LIG A   1     -10.689   3.619 130.651  0.00  0.00    -0.491 OA
ATOM     52  C   LIG A   1     -11.204   4.899 130.320  0.00  0.00    +0.277 C 
ENDBRANCH  43  51
ENDBRANCH  40  41
ENDBRANCH  30  40
ENDBRANCH  27  28
ENDBRANCH   1  27
TORSDOF 20
ENDMDL
MODEL 2
REMARK VINA RESULT:      -7.5      2.351      8.529
REMARK  Name = NuBBE_204
REMARK  25 active torsions:
REMARK  status: ('A' for Active; 'I' for Inactive)
REMARK    1  A    between atoms: C_1  and  O_2
REMARK    2  A    between atoms: O_2  and  C_3
REMARK    3  A    between atoms: C_5  and  C_6
REMARK    4  A    between atoms: C_6  and  O_7
REMARK    5  A    between atoms: O_7  and  C_8
REMARK    6  A    between atoms: C_8  and  C_9
REMARK    7  A    between atoms: C_9  and  O_46
REMARK    8  A    between atoms: C_10  and  O_45
REMARK    9  A    between atoms: C_12  and  O_16
REMARK   10  A    between atoms: O_16  and  C_17
REMARK   11  A    between atoms: C_17  and  C_18
REMARK   12  A    between atoms: C_21  and  O_32
REMARK   13  A    between atoms: C_23  and  O_31
REMARK   14  A    between atoms: C_25  and  O_30
REMARK   15  A    between atoms: C_27  and  O_29
REMARK   16  A    between atoms: O_32  and  C_33
REMARK   17  A    between atoms: C_35  and  O_36
REMARK   18  A    between atoms: O_36  and  C_37
REMARK   19  A    between atoms: C_38  and  O_43
REMARK   20  A    between atoms: C_39  and  O_40
REMARK   21  A    between atoms: O_40  and  C_41
REMARK   22  A    between atoms: O_43  and  C_44
REMARK   23  A    between atoms: C_49  and  O_50
REMARK   24  A    between atoms: O_50  and  C_51
REMARK   25  A    between atoms: C_52  and  O_53
REMARK                            x       y       z     vdW  Elec       q    Type
REMARK                         _______ _______ _______ _____ _____    ______ ____
ROOT
ATOM      1  O   LIG A   1      -8.621   1.070 132.671  0.00  0.00    -0.346 OA
ENDROOT
BRANCH   1   4
ATOM      2  C   LIG A   1      -7.692   3.923 132.652  0.00  0.00    +0.153 C 
ATOM      3  C   LIG A   1      -8.830   3.350 133.491  0.00  0.00    +0.207 C 
ATOM      4  C   LIG A   1      -9.394   2.269 132.551  0.00  0.00    +0.282 C 
ATOM      5  O   LIG A   1      -9.281   2.827 131.228  0.00  0.00    -0.346 OA
ATOM      6  C   LIG A   1      -8.325   3.905 131.262  0.00  0.00    +0.204 C 
BRANCH   2   7
ATOM      7  O   LIG A   1      -7.381   5.271 133.038  0.00  0.00    -0.380 OA
ATOM      8  H   LIG A   1      -6.419   5.293 133.217  0.00  0.00    +0.210 HD
ENDBRANCH   2   7
BRANCH   3   9
ATOM      9  O   LIG A   1      -9.777   4.402 133.769  0.00  0.00    -0.384 OA
ATOM     10  H   LIG A   1     -10.137   4.725 132.922  0.00  0.00    +0.210 HD
ENDBRANCH   3   9
BRANCH   2  11
ATOM     11  C   LIG A   1      -6.438   3.051 132.809  0.00  0.00    +0.272 C 
BRANCH  11  12
ATOM     12  O   LIG A   1      -5.779   2.906 131.554  0.00  0.00    -0.458 OA
BRANCH  12  13
ATOM     13  C   LIG A   1      -4.460   2.581 131.626  0.00  0.00    +0.340 C 
ATOM     14  O   LIG A   1      -3.946   1.672 132.208  0.00  0.00    -0.245 OA
BRANCH  13  17
ATOM     15  C   LIG A   1      -2.613   5.586 130.304  0.00  0.00    +0.166 A 
ATOM     16  C   LIG A   1      -3.162   4.671 131.192  0.00  0.00    +0.064 A 
ATOM     17  C   LIG A   1      -3.751   3.505 130.715  0.00  0.00    +0.066 A 
ATOM     18  C   LIG A   1      -3.721   3.180 129.371  0.00  0.00    +0.064 A 
ATOM     19  C   LIG A   1      -3.150   4.061 128.453  0.00  0.00    +0.166 A 
ATOM     20  C   LIG A   1      -2.622   5.277 128.932  0.00  0.00    +0.201 A 
BRANCH  20  21
ATOM     21  O   LIG A   1      -2.218   6.250 128.055  0.00  0.00    -0.501 OA
ATOM     22  H   LIG A   1      -1.629   6.826 128.573  0.00  0.00    +0.292 HD
ENDBRANCH  20  21
BRANCH  15  24
ATOM     23  C   LIG A   1      -3.002   7.690 131.305  0.00  0.00    +0.277 C 
ATOM     24  O   LIG A   1      -2.075   6.780 130.713  0.00  0.00    -0.491 OA
ENDBRANCH  15  24
BRANCH  19  25
ATOM     25  O   LIG A   1      -3.074   3.775 127.111  0.00  0.00    -0.491 OA
ATOM     26  C   LIG A   1      -1.865   3.129 126.696  0.00  0.00    +0.277 C 
ENDBRANCH  19  25
ENDBRANCH  13  17
ENDBRANCH  12  13
ENDBRANCH  11  12
ENDBRANCH   2  11
ENDBRANCH   1   4
BRANCH   1  27
ATOM     27  C   LIG A   1      -9.006   0.065 131.725  0.00  0.00    +0.197 C 
BRANCH  27  28
ATOM     28  C   LIG A   1      -7.787  -0.565 131.010  0.00  0.00    +0.179 C 
ATOM     29  O   LIG A   1      -7.462   0.190 129.825  0.00  0.00    -0.331 OA
ATOM     30  C   LIG A   1      -6.500  -0.483 128.993  0.00  0.00    +0.339 C 
ATOM     31  C   LIG A   1      -5.159  -0.609 129.766  0.00  0.00    +0.214 C 
ATOM     32  C   LIG A   1      -5.384  -1.274 131.131  0.00  0.00    +0.180 C 
ATOM     33  C   LIG A   1      -6.554  -0.667 131.916  0.00  0.00    +0.177 C 
BRANCH  31  34
ATOM     34  O   LIG A   1      -4.196  -1.394 129.041  0.00  0.00    -0.383 OA
ATOM     35  H   LIG A   1      -3.635  -0.765 128.546  0.00  0.00    +0.210 HD
ENDBRANCH  31  34
BRANCH  32  36
ATOM     36  O   LIG A   1      -4.180  -1.189 131.921  0.00  0.00    -0.386 OA
ATOM     37  H   LIG A   1      -3.612  -0.499 131.532  0.00  0.00    +0.210 HD
ENDBRANCH  32  36
BRANCH  33  38
ATOM     38  O   LIG A   1      -6.825  -1.492 133.055  0.00  0.00    -0.387 OA
ATOM     39  H   LIG A   1      -6.603  -0.960 133.846  0.00  0.00    +0.210 HD
ENDBRANCH  33  38
BRANCH  30  40
ATOM     40  O   LIG A   1      -6.252   0.246 127.774  0.00  0.00    -0.461 OA
BRANCH  40  41
ATOM     41  C   LIG A   1      -7.237   0.283 126.819  0.00  0.00    +0.131 A 
ATOM     42  C   LIG A   1      -7.640   1.559 126.426  0.00  0.00    +0.095 A 
ATOM     43  C   LIG A   1      -8.711   1.765 125.535  0.00  0.00    +0.169 A 
ATOM     44  C   LIG A   1      -9.417   0.670 125.027  0.00  0.00    +0.204 A 
ATOM     45  C   LIG A   1      -8.996  -0.632 125.380  0.00  0.00    +0.169 A 
ATOM     46  C   LIG A   1      -7.895  -0.808 126.265  0.00  0.00    +0.095 A 
BRANCH  44  47
ATOM     47  O   LIG A   1     -10.390   0.813 124.081  0.00  0.00    -0.488 OA
ATOM     48  C   LIG A   1     -10.110   0.738 122.691  0.00  0.00    +0.277 C 
ENDBRANCH  44  47
BRANCH  45  49
ATOM     49  O   LIG A   1      -9.544  -1.820 124.962  0.00  0.00    -0.491 OA
ATOM     50  C   LIG A   1      -9.531  -2.986 125.779  0.00  0.00    +0.277 C 
ENDBRANCH  45  49
BRANCH  43  51
ATOM     51  O   LIG A   1      -9.072   3.010 125.082  0.00  0.00    -0.491 OA
ATOM     52  C   LIG A   1      -8.114   4.031 125.316  0.00  0.00    +0.277 C 
ENDBRANCH  43  51
ENDBRANCH  40  41
ENDBRANCH  30  40
ENDBRANCH  27  28
ENDBRANCH   1  27
TORSDOF 20
ENDMDL
MODEL 3
REMARK VINA RESULT:      -7.5      1.965      6.674
REMARK  Name = NuBBE_204
REMARK  25 active torsions:
REMARK  status: ('A' for Active; 'I' for Inactive)
REMARK    1  A    between atoms: C_1  and  O_2
REMARK    2  A    between atoms: O_2  and  C_3
REMARK    3  A    between atoms: C_5  and  C_6
REMARK    4  A    between atoms: C_6  and  O_7
REMARK    5  A    between atoms: O_7  and  C_8
REMARK    6  A    between atoms: C_8  and  C_9
REMARK    7  A    between atoms: C_9  and  O_46
REMARK    8  A    between atoms: C_10  and  O_45
REMARK    9  A    between atoms: C_12  and  O_16
REMARK   10  A    between atoms: O_16  and  C_17
REMARK   11  A    between atoms: C_17  and  C_18
REMARK   12  A    between atoms: C_21  and  O_32
REMARK   13  A    between atoms: C_23  and  O_31
REMARK   14  A    between atoms: C_25  and  O_30
REMARK   15  A    between atoms: C_27  and  O_29
REMARK   16  A    between atoms: O_32  and  C_33
REMARK   17  A    between atoms: C_35  and  O_36
REMARK   18  A    between atoms: O_36  and  C_37
REMARK   19  A    between atoms: C_38  and  O_43
REMARK   20  A    between atoms: C_39  and  O_40
REMARK   21  A    between atoms: O_40  and  C_41
REMARK   22  A    between atoms: O_43  and  C_44
REMARK   23  A    between atoms: C_49  and  O_50
REMARK   24  A    between atoms: O_50  and  C_51
REMARK   25  A    between atoms: C_52  and  O_53
REMARK                            x       y       z     vdW  Elec       q    Type
REMARK                         _______ _______ _______ _____ _____    ______ ____
ROOT
ATOM      1  O   LIG A   1      -7.910   2.505 125.017  0.00  0.00    -0.346 OA
ENDROOT
BRANCH   1   4
ATOM      2  C   LIG A   1      -5.889   4.212 126.433  0.00  0.00    +0.153 C 
ATOM      3  C   LIG A   1      -7.034   4.709 125.555  0.00  0.00    +0.207 C 
ATOM      4  C   LIG A   1      -7.127   3.588 124.504  0.00  0.00    +0.282 C 
ATOM      5  O   LIG A   1      -5.766   3.178 124.272  0.00  0.00    -0.346 OA
ATOM      6  C   LIG A   1      -4.955   3.623 125.378  0.00  0.00    +0.204 C 
BRANCH   2   7
ATOM      7  O   LIG A   1      -5.242   5.296 127.118  0.00  0.00    -0.380 OA
ATOM      8  H   LIG A   1      -5.279   5.082 128.072  0.00  0.00    +0.210 HD
ENDBRANCH   2   7
BRANCH   3   9
ATOM      9  O   LIG A   1      -6.664   5.983 124.987  0.00  0.00    -0.384 OA
ATOM     10  H   LIG A   1      -5.878   5.853 124.424  0.00  0.00    +0.210 HD
ENDBRANCH   3   9
BRANCH   2  11
ATOM     11  C   LIG A   1      -6.422   3.209 127.466  0.00  0.00    +0.272 C 
BRANCH  11  12
ATOM     12  O   LIG A   1      -7.210   3.883 128.444  0.00  0.00    -0.458 OA
BRANCH  12  13
ATOM     13  C   LIG A   1      -8.371   3.261 128.783  0.00  0.00    +0.340 C 
ATOM     14  O   LIG A   1      -8.805   2.221 128.382  0.00  0.00    -0.245 OA
BRANCH  13  17
ATOM     15  C   LIG A   1     -10.049   6.057 130.668  0.00  0.00    +0.166 A 
ATOM     16  C   LIG A   1      -9.607   5.266 129.618  0.00  0.00    +0.064 A 
ATOM     17  C   LIG A   1      -8.970   4.057 129.876  0.00  0.00    +0.066 A 
ATOM     18  C   LIG A   1      -8.846   3.568 131.164  0.00  0.00    +0.064 A 
ATOM     19  C   LIG A   1      -9.306   4.322 132.243  0.00  0.00    +0.166 A 
ATOM     20  C   LIG A   1      -9.884   5.581 131.981  0.00  0.00    +0.201 A 
BRANCH  20  21
ATOM     21  O   LIG A   1     -10.182   6.434 133.013  0.00  0.00    -0.501 OA
ATOM     22  H   LIG A   1     -10.728   7.133 132.610  0.00  0.00    +0.292 HD
ENDBRANCH  20  21
BRANCH  15  24
ATOM     23  C   LIG A   1     -10.369   7.883 129.203  0.00  0.00    +0.277 C 
ATOM     24  O   LIG A   1     -10.628   7.286 130.474  0.00  0.00    -0.491 OA
ENDBRANCH  15  24
BRANCH  19  25
ATOM     25  O   LIG A   1      -9.228   3.872 133.539  0.00  0.00    -0.491 OA
ATOM     26  C   LIG A   1      -7.962   3.320 133.914  0.00  0.00    +0.277 C 
ENDBRANCH  19  25
ENDBRANCH  13  17
ENDBRANCH  12  13
ENDBRANCH  11  12
ENDBRANCH   2  11
ENDBRANCH   1   4
BRANCH   1  27
ATOM     27  C   LIG A   1      -8.675   1.844 124.001  0.00  0.00    +0.197 C 
BRANCH  27  28
ATOM     28  C   LIG A   1      -8.201   0.390 123.765  0.00  0.00    +0.179 C 
ATOM     29  O   LIG A   1      -7.316  -0.022 124.826  0.00  0.00    -0.331 OA
ATOM     30  C   LIG A   1      -6.654  -1.266 124.536  0.00  0.00    +0.339 C 
ATOM     31  C   LIG A   1      -7.715  -2.396 124.441  0.00  0.00    +0.214 C 
ATOM     32  C   LIG A   1      -8.814  -2.020 123.438  0.00  0.00    +0.180 C 
ATOM     33  C   LIG A   1      -9.364  -0.602 123.643  0.00  0.00    +0.177 C 
BRANCH  31  34
ATOM     34  O   LIG A   1      -7.132  -3.641 124.017  0.00  0.00    -0.383 OA
ATOM     35  H   LIG A   1      -7.236  -4.267 124.760  0.00  0.00    +0.210 HD
ENDBRANCH  31  34
BRANCH  32  36
ATOM     36  O   LIG A   1      -9.897  -2.971 123.518  0.00  0.00    -0.386 OA
ATOM     37  H   LIG A   1      -9.930  -3.461 122.676  0.00  0.00    +0.210 HD
ENDBRANCH  32  36
BRANCH  33  38
ATOM     38  O   LIG A   1     -10.207  -0.267 122.535  0.00  0.00    -0.387 OA
ATOM     39  H   LIG A   1      -9.991   0.654 122.287  0.00  0.00    +0.210 HD
ENDBRANCH  33  38
BRANCH  30  40
ATOM     40  O   LIG A   1      -5.711  -1.618 125.569  0.00  0.00    -0.461 OA
BRANCH  40  41
ATOM     41  C   LIG A   1      -6.079  -1.444 126.880  0.00  0.00    +0.131 A 
ATOM     42  C   LIG A   1      -7.029  -2.347 127.357  0.00  0.00    +0.095 A 
ATOM     43  C   LIG A   1      -7.586  -2.236 128.646  0.00  0.00    +0.169 A 
ATOM     44  C   LIG A   1      -7.200  -1.187 129.485  0.00  0.00    +0.204 A 
ATOM     45  C   LIG A   1      -6.207  -0.288 129.035  0.00  0.00    +0.169 A 
ATOM     46  C   LIG A   1      -5.646  -0.440 127.736  0.00  0.00    +0.095 A 
BRANCH  44  47
ATOM     47  O   LIG A   1      -7.630  -1.099 130.777  0.00  0.00    -0.488 OA
ATOM     48  C   LIG A   1      -8.632  -0.176 131.180  0.00  0.00    +0.277 C 
ENDBRANCH  44  47
BRANCH  45  49
ATOM     49  O   LIG A   1      -5.684   0.779 129.724  0.00  0.00    -0.491 OA
ATOM     50  C   LIG A   1      -4.285   0.923 129.945  0.00  0.00    +0.277 C 
ENDBRANCH  45  49
BRANCH  43  51
ATOM     51  O   LIG A   1      -8.466  -3.158 129.157  0.00  0.00    -0.491 OA
ATOM     52  C   LIG A   1      -9.054  -4.019 128.194  0.00  0.00    +0.277 C 
ENDBRANCH  43  51
ENDBRANCH  40  41
ENDBRANCH  30  40
ENDBRANCH  27  28
ENDBRANCH   1  27
TORSDOF 20
ENDMDL
MODEL 4
REMARK VINA RESULT:      -7.5      0.796      2.576
REMARK  Name = NuBBE_204
REMARK  25 active torsions:
REMARK  status: ('A' for Active; 'I' for Inactive)
REMARK    1  A    between atoms: C_1  and  O_2
REMARK    2  A    between atoms: O_2  and  C_3
REMARK    3  A    between atoms: C_5  and  C_6
REMARK    4  A    between atoms: C_6  and  O_7
REMARK    5  A    between atoms: O_7  and  C_8
REMARK    6  A    between atoms: C_8  and  C_9
REMARK    7  A    between atoms: C_9  and  O_46
REMARK    8  A    between atoms: C_10  and  O_45
REMARK    9  A    between atoms: C_12  and  O_16
REMARK   10  A    between atoms: O_16  and  C_17
REMARK   11  A    between atoms: C_17  and  C_18
REMARK   12  A    between atoms: C_21  and  O_32
REMARK   13  A    between atoms: C_23  and  O_31
REMARK   14  A    between atoms: C_25  and  O_30
REMARK   15  A    between atoms: C_27  and  O_29
REMARK   16  A    between atoms: O_32  and  C_33
REMARK   17  A    between atoms: C_35  and  O_36
REMARK   18  A    between atoms: O_36  and  C_37
REMARK   19  A    between atoms: C_38  and  O_43
REMARK   20  A    between atoms: C_39  and  O_40
REMARK   21  A    between atoms: O_40  and  C_41
REMARK   22  A    between atoms: O_43  and  C_44
REMARK   23  A    between atoms: C_49  and  O_50
REMARK   24  A    between atoms: O_50  and  C_51
REMARK   25  A    between atoms: C_52  and  O_53
REMARK                            x       y       z     vdW  Elec       q    Type
REMARK                         _______ _______ _______ _____ _____    ______ ____
ROOT
ATOM      1  O   LIG A   1      -9.540   0.055 124.330  0.00  0.00    -0.346 OA
ENDROOT
BRANCH   1   4
ATOM      2  C   LIG A   1      -8.116  -2.579 124.521  0.00  0.00    +0.153 C 
ATOM      3  C   LIG A   1      -7.664  -1.365 123.714  0.00  0.00    +0.207 C 
ATOM      4  C   LIG A   1      -9.013  -0.764 123.280  0.00  0.00    +0.282 C 
ATOM      5  O   LIG A   1      -9.866  -1.897 123.030  0.00  0.00    -0.346 OA
ATOM      6  C   LIG A   1      -9.305  -3.050 123.688  0.00  0.00    +0.204 C 
BRANCH   2   7
ATOM      7  O   LIG A   1      -7.101  -3.595 124.556  0.00  0.00    -0.380 OA
ATOM      8  H   LIG A   1      -6.285  -3.184 124.204  0.00  0.00    +0.210 HD
ENDBRANCH   2   7
BRANCH   3   9
ATOM      9  O   LIG A   1      -6.867  -1.819 122.600  0.00  0.00    -0.384 OA
ATOM     10  H   LIG A   1      -6.113  -2.330 122.949  0.00  0.00    +0.210 HD
ENDBRANCH   3   9
BRANCH   2  11
ATOM     11  C   LIG A   1      -8.453  -2.153 125.958  0.00  0.00    +0.272 C 
BRANCH  11  12
ATOM     12  O   LIG A   1      -7.595  -2.818 126.881  0.00  0.00    -0.458 OA
BRANCH  12  13
ATOM     13  C   LIG A   1      -8.201  -3.278 128.008  0.00  0.00    +0.340 C 
ATOM     14  O   LIG A   1      -9.128  -4.028 128.104  0.00  0.00    -0.245 OA
BRANCH  13  17
ATOM     15  C   LIG A   1      -5.360  -2.730 130.420  0.00  0.00    +0.166 A 
ATOM     16  C   LIG A   1      -6.057  -3.102 129.279  0.00  0.00    +0.064 A 
ATOM     17  C   LIG A   1      -7.404  -2.778 129.148  0.00  0.00    +0.066 A 
ATOM     18  C   LIG A   1      -8.053  -2.003 130.092  0.00  0.00    +0.064 A 
ATOM     19  C   LIG A   1      -7.376  -1.584 131.236  0.00  0.00    +0.166 A 
ATOM     20  C   LIG A   1      -6.032  -1.979 131.401  0.00  0.00    +0.201 A 
BRANCH  20  21
ATOM     21  O   LIG A   1      -5.383  -1.749 132.587  0.00  0.00    -0.501 OA
ATOM     22  H   LIG A   1      -4.611  -2.343 132.568  0.00  0.00    +0.292 HD
ENDBRANCH  20  21
BRANCH  15  24
ATOM     23  C   LIG A   1      -3.300  -3.352 129.446  0.00  0.00    +0.277 C 
ATOM     24  O   LIG A   1      -4.049  -3.075 130.629  0.00  0.00    -0.491 OA
ENDBRANCH  15  24
BRANCH  19  25
ATOM     25  O   LIG A   1      -7.968  -0.794 132.192  0.00  0.00    -0.491 OA
ATOM     26  C   LIG A   1      -8.904   0.167 131.690  0.00  0.00    +0.277 C 
ENDBRANCH  19  25
ENDBRANCH  13  17
ENDBRANCH  12  13
ENDBRANCH  11  12
ENDBRANCH   2  11
ENDBRANCH   1   4
BRANCH   1  27
ATOM     27  C   LIG A   1      -9.891   1.371 123.884  0.00  0.00    +0.197 C 
BRANCH  27  28
ATOM     28  C   LIG A   1      -9.042   2.468 124.570  0.00  0.00    +0.179 C 
ATOM     29  O   LIG A   1      -8.397   1.934 125.744  0.00  0.00    -0.331 OA
ATOM     30  C   LIG A   1      -7.796   2.961 126.554  0.00  0.00    +0.339 C 
ATOM     31  C   LIG A   1      -6.657   3.641 125.748  0.00  0.00    +0.214 C 
ATOM     32  C   LIG A   1      -7.177   4.135 124.391  0.00  0.00    +0.180 C 
ATOM     33  C   LIG A   1      -7.993   3.079 123.633  0.00  0.00    +0.177 C 
BRANCH  31  34
ATOM     34  O   LIG A   1      -6.106   4.769 126.451  0.00  0.00    -0.383 OA
ATOM     35  H   LIG A   1      -6.012   4.500 127.385  0.00  0.00    +0.210 HD
ENDBRANCH  31  34
BRANCH  32  36
ATOM     36  O   LIG A   1      -6.071   4.567 123.570  0.00  0.00    -0.386 OA
ATOM     37  H   LIG A   1      -5.533   5.188 124.093  0.00  0.00    +0.210 HD
ENDBRANCH  32  36
BRANCH  33  38
ATOM     38  O   LIG A   1      -8.617   3.699 122.503  0.00  0.00    -0.387 OA
ATOM     39  H   LIG A   1      -8.746   2.998 121.834  0.00  0.00    +0.210 HD
ENDBRANCH  33  38
BRANCH  30  40
ATOM     40  O   LIG A   1      -7.232   2.418 127.764  0.00  0.00    -0.461 OA
BRANCH  40  41
ATOM     41  C   LIG A   1      -7.588   2.981 128.964  0.00  0.00    +0.131 A 
ATOM     42  C   LIG A   1      -6.645   2.857 129.985  0.00  0.00    +0.095 A 
ATOM     43  C   LIG A   1      -6.904   3.288 131.300  0.00  0.00    +0.169 A 
ATOM     44  C   LIG A   1      -8.145   3.848 131.620  0.00  0.00    +0.204 A 
ATOM     45  C   LIG A   1      -9.096   4.021 130.590  0.00  0.00    +0.169 A 
ATOM     46  C   LIG A   1      -8.797   3.597 129.265  0.00  0.00    +0.095 A 
BRANCH  44  47
ATOM     47  O   LIG A   1      -8.403   4.376 132.850  0.00  0.00    -0.488 OA
ATOM     48  C   LIG A   1      -9.124   3.662 133.845  0.00  0.00    +0.277 C 
ENDBRANCH  44  47
BRANCH  45  49
ATOM     49  O   LIG A   1     -10.349   4.573 130.706  0.00  0.00    -0.491 OA
ATOM     50  C   LIG A   1     -10.639   5.890 130.249  0.00  0.00    +0.277 C 
ENDBRANCH  45  49
BRANCH  43  51
ATOM     51  O   LIG A   1      -5.960   3.240 132.297  0.00  0.00    -0.491 OA
ATOM     52  C   LIG A   1      -5.753   1.955 132.862  0.00  0.00    +0.277 C 
ENDBRANCH  43  51
ENDBRANCH  40  41
ENDBRANCH  30  40
ENDBRANCH  27  28
ENDBRANCH   1  27
TORSDOF 20
ENDMDL
MODEL 5
REMARK VINA RESULT:      -7.4      1.819      6.623
REMARK  Name = NuBBE_204
REMARK  25 active torsions:
REMARK  status: ('A' for Active; 'I' for Inactive)
REMARK    1  A    between atoms: C_1  and  O_2
REMARK    2  A    between atoms: O_2  and  C_3
REMARK    3  A    between atoms: C_5  and  C_6
REMARK    4  A    between atoms: C_6  and  O_7
REMARK    5  A    between atoms: O_7  and  C_8
REMARK    6  A    between atoms: C_8  and  C_9
REMARK    7  A    between atoms: C_9  and  O_46
REMARK    8  A    between atoms: C_10  and  O_45
REMARK    9  A    between atoms: C_12  and  O_16
REMARK   10  A    between atoms: O_16  and  C_17
REMARK   11  A    between atoms: C_17  and  C_18
REMARK   12  A    between atoms: C_21  and  O_32
REMARK   13  A    between atoms: C_23  and  O_31
REMARK   14  A    between atoms: C_25  and  O_30
REMARK   15  A    between atoms: C_27  and  O_29
REMARK   16  A    between atoms: O_32  and  C_33
REMARK   17  A    between atoms: C_35  and  O_36
REMARK   18  A    between atoms: O_36  and  C_37
REMARK   19  A    between atoms: C_38  and  O_43
REMARK   20  A    between atoms: C_39  and  O_40
REMARK   21  A    between atoms: O_40  and  C_41
REMARK   22  A    between atoms: O_43  and  C_44
REMARK   23  A    between atoms: C_49  and  O_50
REMARK   24  A    between atoms: O_50  and  C_51
REMARK   25  A    between atoms: C_52  and  O_53
REMARK                            x       y       z     vdW  Elec       q    Type
REMARK                         _______ _______ _______ _____ _____    ______ ____
ROOT
ATOM      1  O   LIG A   1      -8.184   2.603 124.825  0.00  0.00    -0.346 OA
ENDROOT
BRANCH   1   4
ATOM      2  C   LIG A   1      -5.991   4.092 126.228  0.00  0.00    +0.153 C 
ATOM      3  C   LIG A   1      -7.164   4.712 125.475  0.00  0.00    +0.207 C 
ATOM      4  C   LIG A   1      -7.383   3.689 124.347  0.00  0.00    +0.282 C 
ATOM      5  O   LIG A   1      -6.063   3.238 123.988  0.00  0.00    -0.346 OA
ATOM      6  C   LIG A   1      -5.159   3.552 125.067  0.00  0.00    +0.204 C 
BRANCH   2   7
ATOM      7  O   LIG A   1      -5.246   5.085 126.952  0.00  0.00    -0.380 OA
ATOM      8  H   LIG A   1      -4.314   4.994 126.667  0.00  0.00    +0.210 HD
ENDBRANCH   2   7
BRANCH   3   9
ATOM      9  O   LIG A   1      -6.768   6.011 124.988  0.00  0.00    -0.384 OA
ATOM     10  H   LIG A   1      -6.584   6.586 125.755  0.00  0.00    +0.210 HD
ENDBRANCH   3   9
BRANCH   2  11
ATOM     11  C   LIG A   1      -6.505   3.031 127.213  0.00  0.00    +0.272 C 
BRANCH  11  12
ATOM     12  O   LIG A   1      -7.441   3.613 128.116  0.00  0.00    -0.458 OA
BRANCH  12  13
ATOM     13  C   LIG A   1      -8.426   2.779 128.546  0.00  0.00    +0.340 C 
ATOM     14  O   LIG A   1      -8.941   1.870 127.965  0.00  0.00    -0.245 OA
BRANCH  13  17
ATOM     15  C   LIG A   1      -8.531   2.576 132.306  0.00  0.00    +0.166 A 
ATOM     16  C   LIG A   1      -8.183   2.313 130.989  0.00  0.00    +0.064 A 
ATOM     17  C   LIG A   1      -8.671   3.117 129.965  0.00  0.00    +0.066 A 
ATOM     18  C   LIG A   1      -9.429   4.243 130.232  0.00  0.00    +0.064 A 
ATOM     19  C   LIG A   1      -9.772   4.556 131.547  0.00  0.00    +0.166 A 
ATOM     20  C   LIG A   1      -9.338   3.695 132.575  0.00  0.00    +0.201 A 
BRANCH  20  21
ATOM     21  O   LIG A   1      -9.801   3.857 133.856  0.00  0.00    -0.501 OA
ATOM     22  H   LIG A   1      -9.044   4.216 134.352  0.00  0.00    +0.292 HD
ENDBRANCH  20  21
BRANCH  15  24
ATOM     23  C   LIG A   1      -6.733   1.829 133.645  0.00  0.00    +0.277 C 
ATOM     24  O   LIG A   1      -8.129   1.780 133.349  0.00  0.00    -0.491 OA
ENDBRANCH  15  24
BRANCH  19  25
ATOM     25  O   LIG A   1     -10.502   5.675 131.868  0.00  0.00    -0.491 OA
ATOM     26  C   LIG A   1     -10.468   6.722 130.891  0.00  0.00    +0.277 C 
ENDBRANCH  19  25
ENDBRANCH  13  17
ENDBRANCH  12  13
ENDBRANCH  11  12
ENDBRANCH   2  11
ENDBRANCH   1   4
BRANCH   1  27
ATOM     27  C   LIG A   1      -8.885   1.927 123.773  0.00  0.00    +0.197 C 
BRANCH  27  28
ATOM     28  C   LIG A   1      -8.376   0.480 123.567  0.00  0.00    +0.179 C 
ATOM     29  O   LIG A   1      -7.513   0.098 124.657  0.00  0.00    -0.331 OA
ATOM     30  C   LIG A   1      -6.818  -1.137 124.400  0.00  0.00    +0.339 C 
ATOM     31  C   LIG A   1      -7.854  -2.288 124.289  0.00  0.00    +0.214 C 
ATOM     32  C   LIG A   1      -8.932  -1.945 123.251  0.00  0.00    +0.180 C 
ATOM     33  C   LIG A   1      -9.515  -0.537 123.425  0.00  0.00    +0.177 C 
BRANCH  31  34
ATOM     34  O   LIG A   1      -7.236  -3.527 123.896  0.00  0.00    -0.383 OA
ATOM     35  H   LIG A   1      -7.893  -4.010 123.358  0.00  0.00    +0.210 HD
ENDBRANCH  31  34
BRANCH  32  36
ATOM     36  O   LIG A   1      -9.998  -2.917 123.312  0.00  0.00    -0.386 OA
ATOM     37  H   LIG A   1      -9.865  -3.556 122.588  0.00  0.00    +0.210 HD
ENDBRANCH  32  36
BRANCH  33  38
ATOM     38  O   LIG A   1     -10.333  -0.231 122.289  0.00  0.00    -0.387 OA
ATOM     39  H   LIG A   1     -11.260  -0.246 122.599  0.00  0.00    +0.210 HD
ENDBRANCH  33  38
BRANCH  30  40
ATOM     40  O   LIG A   1      -5.899  -1.458 125.462  0.00  0.00    -0.461 OA
BRANCH  40  41
ATOM     41  C   LIG A   1      -6.350  -1.410 126.758  0.00  0.00    +0.131 A 
ATOM     42  C   LIG A   1      -5.766  -0.427 127.557  0.00  0.00    +0.095 A 
ATOM     43  C   LIG A   1      -6.043  -0.317 128.933  0.00  0.00    +0.169 A 
ATOM     44  C   LIG A   1      -6.919  -1.221 129.543  0.00  0.00    +0.204 A 
ATOM     45  C   LIG A   1      -7.553  -2.196 128.741  0.00  0.00    +0.169 A 
ATOM     46  C   LIG A   1      -7.270  -2.268 127.349  0.00  0.00    +0.095 A 
BRANCH  44  47
ATOM     47  O   LIG A   1      -7.301  -1.089 130.845  0.00  0.00    -0.488 OA
ATOM     48  C   LIG A   1      -6.678  -1.818 131.894  0.00  0.00    +0.277 C 
ENDBRANCH  44  47
BRANCH  45  49
ATOM     49  O   LIG A   1      -8.457  -3.145 129.154  0.00  0.00    -0.491 OA
ATOM     50  C   LIG A   1      -9.115  -4.011 128.235  0.00  0.00    +0.277 C 
ENDBRANCH  45  49
BRANCH  43  51
ATOM     51  O   LIG A   1      -5.534   0.690 129.716  0.00  0.00    -0.491 OA
ATOM     52  C   LIG A   1      -4.204   0.483 130.164  0.00  0.00    +0.277 C 
ENDBRANCH  43  51
ENDBRANCH  40  41
ENDBRANCH  30  40
ENDBRANCH  27  28
ENDBRANCH   1  27
TORSDOF 20
ENDMDL
MODEL 6
REMARK VINA RESULT:      -7.4      2.217      6.136
REMARK  Name = NuBBE_204
REMARK  25 active torsions:
REMARK  status: ('A' for Active; 'I' for Inactive)
REMARK    1  A    between atoms: C_1  and  O_2
REMARK    2  A    between atoms: O_2  and  C_3
REMARK    3  A    between atoms: C_5  and  C_6
REMARK    4  A    between atoms: C_6  and  O_7
REMARK    5  A    between atoms: O_7  and  C_8
REMARK    6  A    between atoms: C_8  and  C_9
REMARK    7  A    between atoms: C_9  and  O_46
REMARK    8  A    between atoms: C_10  and  O_45
REMARK    9  A    between atoms: C_12  and  O_16
REMARK   10  A    between atoms: O_16  and  C_17
REMARK   11  A    between atoms: C_17  and  C_18
REMARK   12  A    between atoms: C_21  and  O_32
REMARK   13  A    between atoms: C_23  and  O_31
REMARK   14  A    between atoms: C_25  and  O_30
REMARK   15  A    between atoms: C_27  and  O_29
REMARK   16  A    between atoms: O_32  and  C_33
REMARK   17  A    between atoms: C_35  and  O_36
REMARK   18  A    between atoms: O_36  and  C_37
REMARK   19  A    between atoms: C_38  and  O_43
REMARK   20  A    between atoms: C_39  and  O_40
REMARK   21  A    between atoms: O_40  and  C_41
REMARK   22  A    between atoms: O_43  and  C_44
REMARK   23  A    between atoms: C_49  and  O_50
REMARK   24  A    between atoms: O_50  and  C_51
REMARK   25  A    between atoms: C_52  and  O_53
REMARK                            x       y       z     vdW  Elec       q    Type
REMARK                         _______ _______ _______ _____ _____    ______ ____
ROOT
ATOM      1  O   LIG A   1      -6.710  -1.806 127.934  0.00  0.00    -0.346 OA
ENDROOT
BRANCH   1   4
ATOM      2  C   LIG A   1      -6.022  -0.156 130.343  0.00  0.00    +0.153 C 
ATOM      3  C   LIG A   1      -5.400  -0.030 128.955  0.00  0.00    +0.207 C 
ATOM      4  C   LIG A   1      -5.422  -1.492 128.473  0.00  0.00    +0.282 C 
ATOM      5  O   LIG A   1      -5.148  -2.278 129.648  0.00  0.00    -0.346 OA
ATOM      6  C   LIG A   1      -5.406  -1.471 130.814  0.00  0.00    +0.204 C 
BRANCH   2   7
ATOM      7  O   LIG A   1      -5.612   0.920 131.202  0.00  0.00    -0.380 OA
ATOM      8  H   LIG A   1      -6.117   1.709 130.919  0.00  0.00    +0.210 HD
ENDBRANCH   2   7
BRANCH   3   9
ATOM      9  O   LIG A   1      -4.064   0.497 129.091  0.00  0.00    -0.384 OA
ATOM     10  H   LIG A   1      -4.036   1.379 128.674  0.00  0.00    +0.210 HD
ENDBRANCH   3   9
BRANCH   2  11
ATOM     11  C   LIG A   1      -7.554  -0.155 130.229  0.00  0.00    +0.272 C 
BRANCH  11  12
ATOM     12  O   LIG A   1      -8.075   1.111 130.624  0.00  0.00    -0.458 OA
BRANCH  12  13
ATOM     13  C   LIG A   1      -9.121   1.062 131.492  0.00  0.00    +0.340 C 
ATOM     14  O   LIG A   1      -9.714   0.104 131.893  0.00  0.00    -0.245 OA
BRANCH  13  17
ATOM     15  C   LIG A   1     -10.032   4.714 131.622  0.00  0.00    +0.166 A 
ATOM     16  C   LIG A   1      -9.964   3.395 131.197  0.00  0.00    +0.064 A 
ATOM     17  C   LIG A   1      -9.325   2.442 131.982  0.00  0.00    +0.066 A 
ATOM     18  C   LIG A   1      -8.830   2.756 133.235  0.00  0.00    +0.064 A 
ATOM     19  C   LIG A   1      -8.908   4.065 133.708  0.00  0.00    +0.166 A 
ATOM     20  C   LIG A   1      -9.490   5.043 132.877  0.00  0.00    +0.201 A 
BRANCH  20  21
ATOM     21  O   LIG A   1      -9.425   6.370 133.218  0.00  0.00    -0.501 OA
ATOM     22  H   LIG A   1      -8.619   6.701 132.784  0.00  0.00    +0.292 HD
ENDBRANCH  20  21
BRANCH  15  24
ATOM     23  C   LIG A   1      -9.840   6.092 129.712  0.00  0.00    +0.277 C 
ATOM     24  O   LIG A   1     -10.596   5.707 130.860  0.00  0.00    -0.491 OA
ENDBRANCH  15  24
BRANCH  19  25
ATOM     25  O   LIG A   1      -8.453   4.423 134.954  0.00  0.00    -0.491 OA
ATOM     26  C   LIG A   1      -7.042   4.650 135.043  0.00  0.00    +0.277 C 
ENDBRANCH  19  25
ENDBRANCH  13  17
ENDBRANCH  12  13
ENDBRANCH  11  12
ENDBRANCH   2  11
ENDBRANCH   1   4
BRANCH   1  27
ATOM     27  C   LIG A   1      -6.780  -1.613 126.515  0.00  0.00    +0.197 C 
BRANCH  27  28
ATOM     28  C   LIG A   1      -7.743  -0.466 126.126  0.00  0.00    +0.179 C 
ATOM     29  O   LIG A   1      -7.005   0.761 125.945  0.00  0.00    -0.331 OA
ATOM     30  C   LIG A   1      -7.868   1.906 125.825  0.00  0.00    +0.339 C 
ATOM     31  C   LIG A   1      -8.725   1.763 124.538  0.00  0.00    +0.214 C 
ATOM     32  C   LIG A   1      -9.463   0.417 124.529  0.00  0.00    +0.180 C 
ATOM     33  C   LIG A   1      -8.556  -0.774 124.863  0.00  0.00    +0.177 C 
BRANCH  31  34
ATOM     34  O   LIG A   1      -9.707   2.810 124.431  0.00  0.00    -0.383 OA
ATOM     35  H   LIG A   1      -9.449   3.503 125.070  0.00  0.00    +0.210 HD
ENDBRANCH  31  34
BRANCH  32  36
ATOM     36  O   LIG A   1     -10.079   0.205 123.241  0.00  0.00    -0.386 OA
ATOM     37  H   LIG A   1     -10.243   1.077 122.838  0.00  0.00    +0.210 HD
ENDBRANCH  32  36
BRANCH  33  38
ATOM     38  O   LIG A   1      -9.370  -1.937 125.052  0.00  0.00    -0.387 OA
ATOM     39  H   LIG A   1      -9.306  -2.173 126.000  0.00  0.00    +0.210 HD
ENDBRANCH  33  38
BRANCH  30  40
ATOM     40  O   LIG A   1      -7.112   3.131 125.730  0.00  0.00    -0.461 OA
BRANCH  40  41
ATOM     41  C   LIG A   1      -6.069   3.326 126.600  0.00  0.00    +0.131 A 
ATOM     42  C   LIG A   1      -6.419   3.382 127.948  0.00  0.00    +0.095 A 
ATOM     43  C   LIG A   1      -5.480   3.682 128.954  0.00  0.00    +0.169 A 
ATOM     44  C   LIG A   1      -4.151   3.950 128.611  0.00  0.00    +0.204 A 
ATOM     45  C   LIG A   1      -3.769   3.856 127.255  0.00  0.00    +0.169 A 
ATOM     46  C   LIG A   1      -4.736   3.528 126.263  0.00  0.00    +0.095 A 
BRANCH  44  47
ATOM     47  O   LIG A   1      -3.185   4.140 129.556  0.00  0.00    -0.488 OA
ATOM     48  C   LIG A   1      -2.746   5.435 129.940  0.00  0.00    +0.277 C 
ENDBRANCH  44  47
BRANCH  45  49
ATOM     49  O   LIG A   1      -2.513   4.056 126.734  0.00  0.00    -0.491 OA
ATOM     50  C   LIG A   1      -1.546   3.013 126.673  0.00  0.00    +0.277 C 
ENDBRANCH  45  49
BRANCH  43  51
ATOM     51  O   LIG A   1      -5.793   3.668 130.292  0.00  0.00    -0.491 OA
ATOM     52  C   LIG A   1      -6.425   4.845 130.769  0.00  0.00    +0.277 C 
ENDBRANCH  43  51
ENDBRANCH  40  41
ENDBRANCH  30  40
ENDBRANCH  27  28
ENDBRANCH   1  27
TORSDOF 20
ENDMDL
MODEL 7
REMARK VINA RESULT:      -7.4      1.415      2.380
REMARK  Name = NuBBE_204
REMARK  25 active torsions:
REMARK  status: ('A' for Active; 'I' for Inactive)
REMARK    1  A    between atoms: C_1  and  O_2
REMARK    2  A    between atoms: O_2  and  C_3
REMARK    3  A    between atoms: C_5  and  C_6
REMARK    4  A    between atoms: C_6  and  O_7
REMARK    5  A    between atoms: O_7  and  C_8
REMARK    6  A    between atoms: C_8  and  C_9
REMARK    7  A    between atoms: C_9  and  O_46
REMARK    8  A    between atoms: C_10  and  O_45
REMARK    9  A    between atoms: C_12  and  O_16
REMARK   10  A    between atoms: O_16  and  C_17
REMARK   11  A    between atoms: C_17  and  C_18
REMARK   12  A    between atoms: C_21  and  O_32
REMARK   13  A    between atoms: C_23  and  O_31
REMARK   14  A    between atoms: C_25  and  O_30
REMARK   15  A    between atoms: C_27  and  O_29
REMARK   16  A    between atoms: O_32  and  C_33
REMARK   17  A    between atoms: C_35  and  O_36
REMARK   18  A    between atoms: O_36  and  C_37
REMARK   19  A    between atoms: C_38  and  O_43
REMARK   20  A    between atoms: C_39  and  O_40
REMARK   21  A    between atoms: O_40  and  C_41
REMARK   22  A    between atoms: O_43  and  C_44
REMARK   23  A    between atoms: C_49  and  O_50
REMARK   24  A    between atoms: O_50  and  C_51
REMARK   25  A    between atoms: C_52  and  O_53
REMARK                            x       y       z     vdW  Elec       q    Type
REMARK                         _______ _______ _______ _____ _____    ______ ____
ROOT
ATOM      1  O   LIG A   1      -9.292   0.364 124.509  0.00  0.00    -0.346 OA
ENDROOT
BRANCH   1   4
ATOM      2  C   LIG A   1      -8.213  -2.425 124.267  0.00  0.00    +0.153 C 
ATOM      3  C   LIG A   1      -7.561  -1.155 123.728  0.00  0.00    +0.207 C 
ATOM      4  C   LIG A   1      -8.793  -0.312 123.350  0.00  0.00    +0.282 C 
ATOM      5  O   LIG A   1      -9.755  -1.258 122.849  0.00  0.00    -0.346 OA
ATOM      6  C   LIG A   1      -9.387  -2.576 123.302  0.00  0.00    +0.204 C 
BRANCH   2   7
ATOM      7  O   LIG A   1      -7.333  -3.555 124.159  0.00  0.00    -0.380 OA
ATOM      8  H   LIG A   1      -7.722  -4.145 123.481  0.00  0.00    +0.210 HD
ENDBRANCH   2   7
BRANCH   3   9
ATOM      9  O   LIG A   1      -6.745  -1.501 122.589  0.00  0.00    -0.384 OA
ATOM     10  H   LIG A   1      -7.324  -1.871 121.896  0.00  0.00    +0.210 HD
ENDBRANCH   3   9
BRANCH   2  11
ATOM     11  C   LIG A   1      -8.600  -2.227 125.741  0.00  0.00    +0.272 C 
BRANCH  11  12
ATOM     12  O   LIG A   1      -7.825  -3.086 126.572  0.00  0.00    -0.458 OA
BRANCH  12  13
ATOM     13  C   LIG A   1      -8.344  -3.321 127.807  0.00  0.00    +0.340 C 
ATOM     14  O   LIG A   1      -9.279  -4.004 128.106  0.00  0.00    -0.245 OA
BRANCH  13  17
ATOM     15  C   LIG A   1      -5.221  -2.137 129.547  0.00  0.00    +0.166 A 
ATOM     16  C   LIG A   1      -6.063  -2.642 128.567  0.00  0.00    +0.064 A 
ATOM     17  C   LIG A   1      -7.438  -2.667 128.775  0.00  0.00    +0.066 A 
ATOM     18  C   LIG A   1      -8.006  -2.108 129.906  0.00  0.00    +0.064 A 
ATOM     19  C   LIG A   1      -7.192  -1.564 130.898  0.00  0.00    +0.166 A 
ATOM     20  C   LIG A   1      -5.794  -1.609 130.717  0.00  0.00    +0.201 A 
BRANCH  20  21
ATOM     21  O   LIG A   1      -4.951  -1.255 131.739  0.00  0.00    -0.501 OA
ATOM     22  H   LIG A   1      -5.053  -0.291 131.825  0.00  0.00    +0.292 HD
ENDBRANCH  20  21
BRANCH  15  24
ATOM     23  C   LIG A   1      -3.246  -3.434 129.500  0.00  0.00    +0.277 C 
ATOM     24  O   LIG A   1      -3.854  -2.145 129.421  0.00  0.00    -0.491 OA
ENDBRANCH  15  24
BRANCH  19  25
ATOM     25  O   LIG A   1      -7.706  -0.977 132.029  0.00  0.00    -0.491 OA
ATOM     26  C   LIG A   1      -8.813  -0.096 131.805  0.00  0.00    +0.277 C 
ENDBRANCH  19  25
ENDBRANCH  13  17
ENDBRANCH  12  13
ENDBRANCH  11  12
ENDBRANCH   2  11
ENDBRANCH   1   4
BRANCH   1  27
ATOM     27  C   LIG A   1      -9.756   1.689 124.221  0.00  0.00    +0.197 C 
BRANCH  27  28
ATOM     28  C   LIG A   1      -8.841   2.776 124.834  0.00  0.00    +0.179 C 
ATOM     29  O   LIG A   1      -8.500   2.429 126.192  0.00  0.00    -0.331 OA
ATOM     30  C   LIG A   1      -7.858   3.512 126.890  0.00  0.00    +0.339 C 
ATOM     31  C   LIG A   1      -6.500   3.823 126.205  0.00  0.00    +0.214 C 
ATOM     32  C   LIG A   1      -6.698   4.073 124.703  0.00  0.00    +0.180 C 
ATOM     33  C   LIG A   1      -7.561   3.005 124.020  0.00  0.00    +0.177 C 
BRANCH  31  34
ATOM     34  O   LIG A   1      -5.871   4.987 126.771  0.00  0.00    -0.383 OA
ATOM     35  H   LIG A   1      -6.578   5.645 126.919  0.00  0.00    +0.210 HD
ENDBRANCH  31  34
BRANCH  32  36
ATOM     36  O   LIG A   1      -5.415   4.146 124.046  0.00  0.00    -0.386 OA
ATOM     37  H   LIG A   1      -4.759   4.449 124.700  0.00  0.00    +0.210 HD
ENDBRANCH  32  36
BRANCH  33  38
ATOM     38  O   LIG A   1      -7.874   3.443 122.692  0.00  0.00    -0.387 OA
ATOM     39  H   LIG A   1      -8.805   3.192 122.526  0.00  0.00    +0.210 HD
ENDBRANCH  33  38
BRANCH  30  40
ATOM     40  O   LIG A   1      -7.602   3.176 128.268  0.00  0.00    -0.461 OA
BRANCH  40  41
ATOM     41  C   LIG A   1      -8.253   3.883 129.248  0.00  0.00    +0.131 A 
ATOM     42  C   LIG A   1      -8.612   5.186 128.903  0.00  0.00    +0.095 A 
ATOM     43  C   LIG A   1      -9.191   6.074 129.831  0.00  0.00    +0.169 A 
ATOM     44  C   LIG A   1      -9.407   5.662 131.149  0.00  0.00    +0.204 A 
ATOM     45  C   LIG A   1      -9.090   4.332 131.505  0.00  0.00    +0.169 A 
ATOM     46  C   LIG A   1      -8.528   3.452 130.539  0.00  0.00    +0.095 A 
BRANCH  44  47
ATOM     47  O   LIG A   1     -10.061   6.447 132.054  0.00  0.00    -0.488 OA
ATOM     48  C   LIG A   1     -11.479   6.514 132.113  0.00  0.00    +0.277 C 
ENDBRANCH  44  47
BRANCH  45  49
ATOM     49  O   LIG A   1      -9.257   3.744 132.735  0.00  0.00    -0.491 OA
ATOM     50  C   LIG A   1      -8.174   3.143 133.438  0.00  0.00    +0.277 C 
ENDBRANCH  45  49
BRANCH  43  51
ATOM     51  O   LIG A   1      -9.617   7.334 129.488  0.00  0.00    -0.491 OA
ATOM     52  C   LIG A   1     -10.554   7.377 128.423  0.00  0.00    +0.277 C 
ENDBRANCH  43  51
ENDBRANCH  40  41
ENDBRANCH  30  40
ENDBRANCH  27  28
ENDBRANCH   1  27
TORSDOF 20
ENDMDL
MODEL 8
REMARK VINA RESULT:      -7.4      2.491      9.022
REMARK  Name = NuBBE_204
REMARK  25 active torsions:
REMARK  status: ('A' for Active; 'I' for Inactive)
REMARK    1  A    between atoms: C_1  and  O_2
REMARK    2  A    between atoms: O_2  and  C_3
REMARK    3  A    between atoms: C_5  and  C_6
REMARK    4  A    between atoms: C_6  and  O_7
REMARK    5  A    between atoms: O_7  and  C_8
REMARK    6  A    between atoms: C_8  and  C_9
REMARK    7  A    between atoms: C_9  and  O_46
REMARK    8  A    between atoms: C_10  and  O_45
REMARK    9  A    between atoms: C_12  and  O_16
REMARK   10  A    between atoms: O_16  and  C_17
REMARK   11  A    between atoms: C_17  and  C_18
REMARK   12  A    between atoms: C_21  and  O_32
REMARK   13  A    between atoms: C_23  and  O_31
REMARK   14  A    between atoms: C_25  and  O_30
REMARK   15  A    between atoms: C_27  and  O_29
REMARK   16  A    between atoms: O_32  and  C_33
REMARK   17  A    between atoms: C_35  and  O_36
REMARK   18  A    between atoms: O_36  and  C_37
REMARK   19  A    between atoms: C_38  and  O_43
REMARK   20  A    between atoms: C_39  and  O_40
REMARK   21  A    between atoms: O_40  and  C_41
REMARK   22  A    between atoms: O_43  and  C_44
REMARK   23  A    between atoms: C_49  and  O_50
REMARK   24  A    between atoms: O_50  and  C_51
REMARK   25  A    between atoms: C_52  and  O_53
REMARK                            x       y       z     vdW  Elec       q    Type
REMARK                         _______ _______ _______ _____ _____    ______ ____
ROOT
ATOM      1  O   LIG A   1      -4.326   4.192 130.607  0.00  0.00    -0.346 OA
ENDROOT
BRANCH   1   4
ATOM      2  C   LIG A   1      -3.967   6.981 129.563  0.00  0.00    +0.153 C 
ATOM      3  C   LIG A   1      -4.577   5.805 128.806  0.00  0.00    +0.207 C 
ATOM      4  C   LIG A   1      -3.764   4.623 129.364  0.00  0.00    +0.282 C 
ATOM      5  O   LIG A   1      -2.432   5.138 129.549  0.00  0.00    -0.346 OA
ATOM      6  C   LIG A   1      -2.494   6.578 129.579  0.00  0.00    +0.204 C 
BRANCH   2   7
ATOM      7  O   LIG A   1      -4.137   8.214 128.846  0.00  0.00    -0.380 OA
ATOM      8  H   LIG A   1      -4.127   7.985 127.894  0.00  0.00    +0.210 HD
ENDBRANCH   2   7
BRANCH   3   9
ATOM      9  O   LIG A   1      -4.374   6.009 127.392  0.00  0.00    -0.384 OA
ATOM     10  H   LIG A   1      -3.416   6.086 127.226  0.00  0.00    +0.210 HD
ENDBRANCH   3   9
BRANCH   2  11
ATOM     11  C   LIG A   1      -4.625   7.107 130.946  0.00  0.00    +0.272 C 
BRANCH  11  12
ATOM     12  O   LIG A   1      -6.037   7.233 130.808  0.00  0.00    -0.458 OA
BRANCH  12  13
ATOM     13  C   LIG A   1      -6.773   6.467 131.657  0.00  0.00    +0.340 C 
ATOM     14  O   LIG A   1      -6.511   6.127 132.773  0.00  0.00    -0.245 OA
BRANCH  13  17
ATOM     15  C   LIG A   1     -10.073   7.041 129.934  0.00  0.00    +0.166 A 
ATOM     16  C   LIG A   1      -8.804   7.272 130.444  0.00  0.00    +0.064 A 
ATOM     17  C   LIG A   1      -8.069   6.224 130.987  0.00  0.00    +0.066 A 
ATOM     18  C   LIG A   1      -8.535   4.922 130.949  0.00  0.00    +0.064 A 
ATOM     19  C   LIG A   1      -9.793   4.647 130.415  0.00  0.00    +0.166 A 
ATOM     20  C   LIG A   1     -10.566   5.724 129.935  0.00  0.00    +0.201 A 
BRANCH  20  21
ATOM     21  O   LIG A   1     -11.874   5.530 129.572  0.00  0.00    -0.501 OA
ATOM     22  H   LIG A   1     -12.261   5.011 130.299  0.00  0.00    +0.292 HD
ENDBRANCH  20  21
BRANCH  15  24
ATOM     23  C   LIG A   1     -10.567   8.457 128.108  0.00  0.00    +0.277 C 
ATOM     24  O   LIG A   1     -10.866   8.047 129.442  0.00  0.00    -0.491 OA
ENDBRANCH  15  24
BRANCH  19  25
ATOM     25  O   LIG A   1     -10.292   3.369 130.333  0.00  0.00    -0.491 OA
ATOM     26  C   LIG A   1      -9.388   2.400 129.790  0.00  0.00    +0.277 C 
ENDBRANCH  19  25
ENDBRANCH  13  17
ENDBRANCH  12  13
ENDBRANCH  11  12
ENDBRANCH   2  11
ENDBRANCH   1   4
BRANCH   1  27
ATOM     27  C   LIG A   1      -4.036   2.818 130.900  0.00  0.00    +0.197 C 
BRANCH  27  28
ATOM     28  C   LIG A   1      -5.283   1.914 130.756  0.00  0.00    +0.179 C 
ATOM     29  O   LIG A   1      -5.232   1.193 129.508  0.00  0.00    -0.331 OA
ATOM     30  C   LIG A   1      -6.473   0.528 129.208  0.00  0.00    +0.339 C 
ATOM     31  C   LIG A   1      -6.740  -0.559 130.284  0.00  0.00    +0.214 C 
ATOM     32  C   LIG A   1      -6.678   0.051 131.692  0.00  0.00    +0.180 C 
ATOM     33  C   LIG A   1      -5.439   0.926 131.920  0.00  0.00    +0.177 C 
BRANCH  31  34
ATOM     34  O   LIG A   1      -8.033  -1.168 130.119  0.00  0.00    -0.383 OA
ATOM     35  H   LIG A   1      -8.432  -1.224 131.009  0.00  0.00    +0.210 HD
ENDBRANCH  31  34
BRANCH  32  36
ATOM     36  O   LIG A   1      -6.712  -0.999 132.682  0.00  0.00    -0.386 OA
ATOM     37  H   LIG A   1      -7.224  -1.743 132.314  0.00  0.00    +0.210 HD
ENDBRANCH  32  36
BRANCH  33  38
ATOM     38  O   LIG A   1      -5.586   1.623 133.163  0.00  0.00    -0.387 OA
ATOM     39  H   LIG A   1      -6.543   1.630 133.369  0.00  0.00    +0.210 HD
ENDBRANCH  33  38
BRANCH  30  40
ATOM     40  O   LIG A   1      -6.430  -0.115 127.918  0.00  0.00    -0.461 OA
BRANCH  40  41
ATOM     41  C   LIG A   1      -7.431   0.155 127.017  0.00  0.00    +0.131 A 
ATOM     42  C   LIG A   1      -8.054  -0.964 126.465  0.00  0.00    +0.095 A 
ATOM     43  C   LIG A   1      -9.024  -0.857 125.450  0.00  0.00    +0.169 A 
ATOM     44  C   LIG A   1      -9.379   0.401 124.954  0.00  0.00    +0.204 A 
ATOM     45  C   LIG A   1      -8.790   1.549 125.532  0.00  0.00    +0.169 A 
ATOM     46  C   LIG A   1      -7.830   1.409 126.572  0.00  0.00    +0.095 A 
BRANCH  44  47
ATOM     47  O   LIG A   1     -10.387   0.564 124.050  0.00  0.00    -0.488 OA
ATOM     48  C   LIG A   1     -10.142   0.693 122.657  0.00  0.00    +0.277 C 
ENDBRANCH  44  47
BRANCH  45  49
ATOM     49  O   LIG A   1      -9.033   2.859 125.198  0.00  0.00    -0.491 OA
ATOM     50  C   LIG A   1      -7.994   3.832 125.155  0.00  0.00    +0.277 C 
ENDBRANCH  45  49
BRANCH  43  51
ATOM     51  O   LIG A   1      -9.699  -1.943 124.950  0.00  0.00    -0.491 OA
ATOM     52  C   LIG A   1      -8.880  -2.918 124.322  0.00  0.00    +0.277 C 
ENDBRANCH  43  51
ENDBRANCH  40  41
ENDBRANCH  30  40
ENDBRANCH  27  28
ENDBRANCH   1  27
TORSDOF 20
ENDMDL
MODEL 9
REMARK VINA RESULT:      -7.3      1.878      7.398
REMARK  Name = NuBBE_204
REMARK  25 active torsions:
REMARK  status: ('A' for Active; 'I' for Inactive)
REMARK    1  A    between atoms: C_1  and  O_2
REMARK    2  A    between atoms: O_2  and  C_3
REMARK    3  A    between atoms: C_5  and  C_6
REMARK    4  A    between atoms: C_6  and  O_7
REMARK    5  A    between atoms: O_7  and  C_8
REMARK    6  A    between atoms: C_8  and  C_9
REMARK    7  A    between atoms: C_9  and  O_46
REMARK    8  A    between atoms: C_10  and  O_45
REMARK    9  A    between atoms: C_12  and  O_16
REMARK   10  A    between atoms: O_16  and  C_17
REMARK   11  A    between atoms: C_17  and  C_18
REMARK   12  A    between atoms: C_21  and  O_32
REMARK   13  A    between atoms: C_23  and  O_31
REMARK   14  A    between atoms: C_25  and  O_30
REMARK   15  A    between atoms: C_27  and  O_29
REMARK   16  A    between atoms: O_32  and  C_33
REMARK   17  A    between atoms: C_35  and  O_36
REMARK   18  A    between atoms: O_36  and  C_37
REMARK   19  A    between atoms: C_38  and  O_43
REMARK   20  A    between atoms: C_39  and  O_40
REMARK   21  A    between atoms: O_40  and  C_41
REMARK   22  A    between atoms: O_43  and  C_44
REMARK   23  A    between atoms: C_49  and  O_50
REMARK   24  A    between atoms: O_50  and  C_51
REMARK   25  A    between atoms: C_52  and  O_53
REMARK                            x       y       z     vdW  Elec       q    Type
REMARK                         _______ _______ _______ _____ _____    ______ ____
ROOT
ATOM      1  O   LIG A   1      -7.312   2.339 126.377  0.00  0.00    -0.346 OA
ENDROOT
BRANCH   1   4
ATOM      2  C   LIG A   1      -5.409   4.604 126.872  0.00  0.00    +0.153 C 
ATOM      3  C   LIG A   1      -6.690   4.666 126.046  0.00  0.00    +0.207 C 
ATOM      4  C   LIG A   1      -6.735   3.253 125.438  0.00  0.00    +0.282 C 
ATOM      5  O   LIG A   1      -5.361   2.917 125.168  0.00  0.00    -0.346 OA
ATOM      6  C   LIG A   1      -4.513   3.783 125.948  0.00  0.00    +0.204 C 
BRANCH   2   7
ATOM      7  O   LIG A   1      -4.849   5.912 127.074  0.00  0.00    -0.380 OA
ATOM      8  H   LIG A   1      -5.502   6.415 127.602  0.00  0.00    +0.210 HD
ENDBRANCH   2   7
BRANCH   3   9
ATOM      9  O   LIG A   1      -6.551   5.702 125.051  0.00  0.00    -0.384 OA
ATOM     10  H   LIG A   1      -5.600   5.865 124.907  0.00  0.00    +0.210 HD
ENDBRANCH   3   9
BRANCH   2  11
ATOM     11  C   LIG A   1      -5.700   3.965 128.238  0.00  0.00    +0.272 C 
BRANCH  11  12
ATOM     12  O   LIG A   1      -6.731   4.685 128.908  0.00  0.00    -0.458 OA
BRANCH  12  13
ATOM     13  C   LIG A   1      -6.327   5.406 129.987  0.00  0.00    +0.340 C 
ATOM     14  O   LIG A   1      -5.489   6.258 130.045  0.00  0.00    -0.245 OA
BRANCH  13  17
ATOM     15  C   LIG A   1      -8.010   3.452 132.732  0.00  0.00    +0.166 A 
ATOM     16  C   LIG A   1      -7.077   3.835 131.779  0.00  0.00    +0.064 A 
ATOM     17  C   LIG A   1      -7.229   5.039 131.100  0.00  0.00    +0.066 A 
ATOM     18  C   LIG A   1      -8.244   5.923 131.418  0.00  0.00    +0.064 A 
ATOM     19  C   LIG A   1      -9.182   5.585 132.393  0.00  0.00    +0.166 A 
ATOM     20  C   LIG A   1      -9.068   4.330 133.025  0.00  0.00    +0.201 A 
BRANCH  20  21
ATOM     21  O   LIG A   1     -10.064   3.878 133.852  0.00  0.00    -0.501 OA
ATOM     22  H   LIG A   1     -10.639   4.650 133.997  0.00  0.00    +0.292 HD
ENDBRANCH  20  21
BRANCH  15  24
ATOM     23  C   LIG A   1      -6.631   1.706 133.528  0.00  0.00    +0.277 C 
ATOM     24  O   LIG A   1      -7.944   2.248 133.387  0.00  0.00    -0.491 OA
ENDBRANCH  15  24
BRANCH  19  25
ATOM     25  O   LIG A   1     -10.196   6.436 132.762  0.00  0.00    -0.491 OA
ATOM     26  C   LIG A   1     -11.315   6.470 131.870  0.00  0.00    +0.277 C 
ENDBRANCH  19  25
ENDBRANCH  13  17
ENDBRANCH  12  13
ENDBRANCH  11  12
ENDBRANCH   2  11
ENDBRANCH   1   4
BRANCH   1  27
ATOM     27  C   LIG A   1      -8.481   1.685 125.867  0.00  0.00    +0.197 C 
BRANCH  27  28
ATOM     28  C   LIG A   1      -8.241   0.181 125.598  0.00  0.00    +0.179 C 
ATOM     29  O   LIG A   1      -8.493  -0.584 126.795  0.00  0.00    -0.331 OA
ATOM     30  C   LIG A   1      -8.053  -1.949 126.677  0.00  0.00    +0.339 C 
ATOM     31  C   LIG A   1      -8.882  -2.656 125.570  0.00  0.00    +0.214 C 
ATOM     32  C   LIG A   1      -8.820  -1.859 124.259  0.00  0.00    +0.180 C 
ATOM     33  C   LIG A   1      -9.095  -0.362 124.446  0.00  0.00    +0.177 C 
BRANCH  31  34
ATOM     34  O   LIG A   1      -8.398  -3.985 125.307  0.00  0.00    -0.383 OA
ATOM     35  H   LIG A   1      -7.659  -4.143 125.927  0.00  0.00    +0.210 HD
ENDBRANCH  31  34
BRANCH  32  36
ATOM     36  O   LIG A   1      -9.761  -2.406 123.311  0.00  0.00    -0.386 OA
ATOM     37  H   LIG A   1     -10.315  -3.058 123.777  0.00  0.00    +0.210 HD
ENDBRANCH  32  36
BRANCH  33  38
ATOM     38  O   LIG A   1      -8.794   0.320 123.223  0.00  0.00    -0.387 OA
ATOM     39  H   LIG A   1      -8.279   1.116 123.465  0.00  0.00    +0.210 HD
ENDBRANCH  33  38
BRANCH  30  40
ATOM     40  O   LIG A   1      -8.235  -2.673 127.910  0.00  0.00    -0.461 OA
BRANCH  40  41
ATOM     41  C   LIG A   1      -7.401  -2.395 128.964  0.00  0.00    +0.131 A 
ATOM     42  C   LIG A   1      -6.037  -2.489 128.685  0.00  0.00    +0.095 A 
ATOM     43  C   LIG A   1      -5.056  -2.338 129.684  0.00  0.00    +0.169 A 
ATOM     44  C   LIG A   1      -5.439  -2.100 131.008  0.00  0.00    +0.204 A 
ATOM     45  C   LIG A   1      -6.814  -1.958 131.301  0.00  0.00    +0.169 A 
ATOM     46  C   LIG A   1      -7.781  -2.093 130.266  0.00  0.00    +0.095 A 
BRANCH  44  47
ATOM     47  O   LIG A   1      -4.528  -1.840 131.989  0.00  0.00    -0.488 OA
ATOM     48  C   LIG A   1      -4.059  -2.849 132.873  0.00  0.00    +0.277 C 
ENDBRANCH  44  47
BRANCH  45  49
ATOM     49  O   LIG A   1      -7.375  -1.697 132.528  0.00  0.00    -0.491 OA
ATOM     50  C   LIG A   1      -7.817  -2.739 133.392  0.00  0.00    +0.277 C 
ENDBRANCH  45  49
BRANCH  43  51
ATOM     51  O   LIG A   1      -3.710  -2.353 129.413  0.00  0.00    -0.491 OA
ATOM     52  C   LIG A   1      -3.153  -3.646 129.233  0.00  0.00    +0.277 C 
ENDBRANCH  43  51
ENDBRANCH  40  41
ENDBRANCH  30  40
ENDBRANCH  27  28
ENDBRANCH   1  27
TORSDOF 20
ENDMDL
