MODEL 1
REMARK VINA RESULT:      -6.8      0.000      0.000
REMARK  Name = NuBBE_1268
REMARK  7 active torsions:
REMARK  status: ('A' for Active; 'I' for Inactive)
REMARK    1  A    between atoms: C_9  and  C_10
REMARK    2  A    between atoms: C_11  and  C_12
REMARK    3  A    between atoms: C_12  and  O_13
REMARK    4  A    between atoms: C_12  and  C_14
REMARK    5  A    between atoms: C_12  and  C_15
REMARK    6  A    between atoms: C_16  and  O_17
REMARK    7  A    between atoms: O_17  and  C_18
REMARK                            x       y       z     vdW  Elec       q    Type
REMARK                         _______ _______ _______ _____ _____    ______ ____
ROOT
ATOM      1  O   LIG A   1     -11.190   8.472 127.700  0.00  0.00    -0.245 OA
ATOM      2  C   LIG A   1     -10.937   7.927 128.775  0.00  0.00    +0.337 A 
ATOM      3  C   LIG A   1     -12.011   7.357 129.603  0.00  0.00    +0.092 A 
ATOM      4  C   LIG A   1     -11.770   6.727 130.759  0.00  0.00    +0.018 A 
ATOM      5  O   LIG A   1      -9.646   7.830 129.269  0.00  0.00    -0.422 OA
ATOM      6  C   LIG A   1      -9.378   7.135 130.463  0.00  0.00    +0.143 A 
ATOM      7  C   LIG A   1     -10.399   6.569 131.215  0.00  0.00    +0.018 A 
ATOM      8  C   LIG A   1     -10.065   5.836 132.358  0.00  0.00    +0.023 A 
ATOM      9  C   LIG A   1      -8.719   5.676 132.739  0.00  0.00    +0.017 A 
ATOM     10  C   LIG A   1      -7.700   6.301 131.984  0.00  0.00    +0.131 A 
ATOM     11  C   LIG A   1      -8.041   7.019 130.833  0.00  0.00    +0.093 A 
ENDROOT
BRANCH   9  12
ATOM     12  C   LIG A   1      -8.424   4.774 133.866  0.00  0.00    +0.010 C 
ATOM     13  C   LIG A   1      -8.263   3.439 133.890  0.00  0.00    +0.007 C 
BRANCH  13  14
ATOM     14  C   LIG A   1      -8.312   2.391 132.801  0.00  0.00    +0.079 C 
ATOM     15  C   LIG A   1      -9.697   2.101 132.225  0.00  0.00    +0.045 C 
ATOM     16  C   LIG A   1      -7.373   2.775 131.646  0.00  0.00    +0.045 C 
BRANCH  14  17
ATOM     17  O   LIG A   1      -7.791   1.185 133.363  0.00  0.00    -0.385 OA
ATOM     18  H   LIG A   1      -7.329   0.718 132.645  0.00  0.00    +0.211 HD
ENDBRANCH  14  17
ENDBRANCH  13  14
ENDBRANCH   9  12
BRANCH  10  19
ATOM     19  O   LIG A   1      -6.402   6.138 132.406  0.00  0.00    -0.494 OA
ATOM     20  C   LIG A   1      -5.396   6.566 131.487  0.00  0.00    +0.277 C 
ENDBRANCH  10  19
TORSDOF 4
ENDMDL
MODEL 2
REMARK VINA RESULT:      -6.6      9.082      9.905
REMARK  Name = NuBBE_1268
REMARK  7 active torsions:
REMARK  status: ('A' for Active; 'I' for Inactive)
REMARK    1  A    between atoms: C_9  and  C_10
REMARK    2  A    between atoms: C_11  and  C_12
REMARK    3  A    between atoms: C_12  and  O_13
REMARK    4  A    between atoms: C_12  and  C_14
REMARK    5  A    between atoms: C_12  and  C_15
REMARK    6  A    between atoms: C_16  and  O_17
REMARK    7  A    between atoms: O_17  and  C_18
REMARK                            x       y       z     vdW  Elec       q    Type
REMARK                         _______ _______ _______ _____ _____    ______ ____
ROOT
ATOM      1  O   LIG A   1      -6.389   5.018 118.091  0.00  0.00    -0.245 OA
ATOM      2  C   LIG A   1      -6.943   4.592 119.104  0.00  0.00    +0.337 A 
ATOM      3  C   LIG A   1      -8.391   4.338 119.121  0.00  0.00    +0.092 A 
ATOM      4  C   LIG A   1      -9.022   3.842 120.193  0.00  0.00    +0.018 A 
ATOM      5  O   LIG A   1      -6.249   4.340 120.277  0.00  0.00    -0.422 OA
ATOM      6  C   LIG A   1      -6.894   3.782 121.396  0.00  0.00    +0.143 A 
ATOM      7  C   LIG A   1      -8.256   3.512 121.384  0.00  0.00    +0.018 A 
ATOM      8  C   LIG A   1      -8.830   2.898 122.502  0.00  0.00    +0.023 A 
ATOM      9  C   LIG A   1      -8.040   2.560 123.617  0.00  0.00    +0.017 A 
ATOM     10  C   LIG A   1      -6.665   2.887 123.625  0.00  0.00    +0.131 A 
ATOM     11  C   LIG A   1      -6.096   3.487 122.497  0.00  0.00    +0.093 A 
ENDROOT
BRANCH   9  12
ATOM     12  C   LIG A   1      -8.672   1.786 124.700  0.00  0.00    +0.010 C 
ATOM     13  C   LIG A   1      -9.048   0.495 124.739  0.00  0.00    +0.007 C 
BRANCH  13  14
ATOM     14  C   LIG A   1      -8.958  -0.619 123.720  0.00  0.00    +0.079 C 
ATOM     15  C   LIG A   1      -9.822  -0.445 122.473  0.00  0.00    +0.045 C 
ATOM     16  C   LIG A   1      -7.500  -0.825 123.280  0.00  0.00    +0.045 C 
BRANCH  14  17
ATOM     17  O   LIG A   1      -9.354  -1.820 124.384  0.00  0.00    -0.385 OA
ATOM     18  H   LIG A   1      -9.740  -1.555 125.238  0.00  0.00    +0.211 HD
ENDBRANCH  14  17
ENDBRANCH  13  14
ENDBRANCH   9  12
BRANCH  10  19
ATOM     19  O   LIG A   1      -5.937   2.561 124.744  0.00  0.00    -0.494 OA
ATOM     20  C   LIG A   1      -5.205   3.632 125.339  0.00  0.00    +0.277 C 
ENDBRANCH  10  19
TORSDOF 4
ENDMDL
MODEL 3
REMARK VINA RESULT:      -6.6      8.163      9.657
REMARK  Name = NuBBE_1268
REMARK  7 active torsions:
REMARK  status: ('A' for Active; 'I' for Inactive)
REMARK    1  A    between atoms: C_9  and  C_10
REMARK    2  A    between atoms: C_11  and  C_12
REMARK    3  A    between atoms: C_12  and  O_13
REMARK    4  A    between atoms: C_12  and  C_14
REMARK    5  A    between atoms: C_12  and  C_15
REMARK    6  A    between atoms: C_16  and  O_17
REMARK    7  A    between atoms: O_17  and  C_18
REMARK                            x       y       z     vdW  Elec       q    Type
REMARK                         _______ _______ _______ _____ _____    ______ ____
ROOT
ATOM      1  O   LIG A   1      -8.704   4.349 125.149  0.00  0.00    -0.245 OA
ATOM      2  C   LIG A   1      -8.749   3.146 124.890  0.00  0.00    +0.337 A 
ATOM      3  C   LIG A   1      -8.871   2.678 123.501  0.00  0.00    +0.092 A 
ATOM      4  C   LIG A   1      -8.888   1.379 123.178  0.00  0.00    +0.018 A 
ATOM      5  O   LIG A   1      -8.702   2.174 125.877  0.00  0.00    -0.422 OA
ATOM      6  C   LIG A   1      -8.680   0.806 125.546  0.00  0.00    +0.143 A 
ATOM      7  C   LIG A   1      -8.757   0.380 124.227  0.00  0.00    +0.018 A 
ATOM      8  C   LIG A   1      -8.665  -0.988 123.956  0.00  0.00    +0.023 A 
ATOM      9  C   LIG A   1      -8.497  -1.916 125.001  0.00  0.00    +0.017 A 
ATOM     10  C   LIG A   1      -8.469  -1.463 126.340  0.00  0.00    +0.131 A 
ATOM     11  C   LIG A   1      -8.545  -0.091 126.602  0.00  0.00    +0.093 A 
ENDROOT
BRANCH   9  12
ATOM     12  C   LIG A   1      -8.262  -3.325 124.642  0.00  0.00    +0.010 C 
ATOM     13  C   LIG A   1      -7.129  -3.949 124.273  0.00  0.00    +0.007 C 
BRANCH  13  14
ATOM     14  C   LIG A   1      -5.709  -3.458 124.104  0.00  0.00    +0.079 C 
ATOM     15  C   LIG A   1      -4.662  -4.539 123.846  0.00  0.00    +0.045 C 
ATOM     16  C   LIG A   1      -5.632  -2.422 122.971  0.00  0.00    +0.045 C 
BRANCH  14  17
ATOM     17  O   LIG A   1      -5.364  -2.768 125.307  0.00  0.00    -0.385 OA
ATOM     18  H   LIG A   1      -6.194  -2.426 125.683  0.00  0.00    +0.211 HD
ENDBRANCH  14  17
ENDBRANCH  13  14
ENDBRANCH   9  12
BRANCH  10  19
ATOM     19  O   LIG A   1      -8.328  -2.405 127.331  0.00  0.00    -0.494 OA
ATOM     20  C   LIG A   1      -7.320  -2.132 128.304  0.00  0.00    +0.277 C 
ENDBRANCH  10  19
TORSDOF 4
ENDMDL
MODEL 4
REMARK VINA RESULT:      -6.5      8.948     10.777
REMARK  Name = NuBBE_1268
REMARK  7 active torsions:
REMARK  status: ('A' for Active; 'I' for Inactive)
REMARK    1  A    between atoms: C_9  and  C_10
REMARK    2  A    between atoms: C_11  and  C_12
REMARK    3  A    between atoms: C_12  and  O_13
REMARK    4  A    between atoms: C_12  and  C_14
REMARK    5  A    between atoms: C_12  and  C_15
REMARK    6  A    between atoms: C_16  and  O_17
REMARK    7  A    between atoms: O_17  and  C_18
REMARK                            x       y       z     vdW  Elec       q    Type
REMARK                         _______ _______ _______ _____ _____    ______ ____
ROOT
ATOM      1  O   LIG A   1      -9.864  -2.991 123.536  0.00  0.00    -0.245 OA
ATOM      2  C   LIG A   1      -9.073  -2.047 123.566  0.00  0.00    +0.337 A 
ATOM      3  C   LIG A   1      -7.679  -2.217 123.129  0.00  0.00    +0.092 A 
ATOM      4  C   LIG A   1      -6.801  -1.206 123.114  0.00  0.00    +0.018 A 
ATOM      5  O   LIG A   1      -9.439  -0.789 124.017  0.00  0.00    -0.422 OA
ATOM      6  C   LIG A   1      -8.536   0.289 123.969  0.00  0.00    +0.143 A 
ATOM      7  C   LIG A   1      -7.233   0.122 123.518  0.00  0.00    +0.018 A 
ATOM      8  C   LIG A   1      -6.402   1.243 123.432  0.00  0.00    +0.023 A 
ATOM      9  C   LIG A   1      -6.877   2.517 123.796  0.00  0.00    +0.017 A 
ATOM     10  C   LIG A   1      -8.192   2.655 124.297  0.00  0.00    +0.131 A 
ATOM     11  C   LIG A   1      -9.023   1.532 124.365  0.00  0.00    +0.093 A 
ENDROOT
BRANCH   9  12
ATOM     12  C   LIG A   1      -6.003   3.676 123.546  0.00  0.00    +0.010 C 
ATOM     13  C   LIG A   1      -5.633   4.250 122.388  0.00  0.00    +0.007 C 
BRANCH  13  14
ATOM     14  C   LIG A   1      -5.972   3.938 120.948  0.00  0.00    +0.079 C 
ATOM     15  C   LIG A   1      -7.461   3.810 120.632  0.00  0.00    +0.045 C 
ATOM     16  C   LIG A   1      -5.363   4.996 120.014  0.00  0.00    +0.045 C 
BRANCH  14  17
ATOM     17  O   LIG A   1      -5.332   2.701 120.630  0.00  0.00    -0.385 OA
ATOM     18  H   LIG A   1      -5.350   2.617 119.660  0.00  0.00    +0.211 HD
ENDBRANCH  14  17
ENDBRANCH  13  14
ENDBRANCH   9  12
BRANCH  10  19
ATOM     19  O   LIG A   1      -8.607   3.913 124.664  0.00  0.00    -0.494 OA
ATOM     20  C   LIG A   1      -8.242   4.324 125.982  0.00  0.00    +0.277 C 
ENDBRANCH  10  19
TORSDOF 4
ENDMDL
MODEL 5
REMARK VINA RESULT:      -6.4      8.520     10.985
REMARK  Name = NuBBE_1268
REMARK  7 active torsions:
REMARK  status: ('A' for Active; 'I' for Inactive)
REMARK    1  A    between atoms: C_9  and  C_10
REMARK    2  A    between atoms: C_11  and  C_12
REMARK    3  A    between atoms: C_12  and  O_13
REMARK    4  A    between atoms: C_12  and  C_14
REMARK    5  A    between atoms: C_12  and  C_15
REMARK    6  A    between atoms: C_16  and  O_17
REMARK    7  A    between atoms: O_17  and  C_18
REMARK                            x       y       z     vdW  Elec       q    Type
REMARK                         _______ _______ _______ _____ _____    ______ ____
ROOT
ATOM      1  O   LIG A   1      -5.747  -1.909 131.074  0.00  0.00    -0.245 OA
ATOM      2  C   LIG A   1      -6.300  -2.213 130.017  0.00  0.00    +0.337 A 
ATOM      3  C   LIG A   1      -7.693  -2.684 130.003  0.00  0.00    +0.092 A 
ATOM      4  C   LIG A   1      -8.338  -2.991 128.870  0.00  0.00    +0.018 A 
ATOM      5  O   LIG A   1      -5.650  -2.143 128.796  0.00  0.00    -0.422 OA
ATOM      6  C   LIG A   1      -6.329  -2.425 127.595  0.00  0.00    +0.143 A 
ATOM      7  C   LIG A   1      -7.657  -2.833 127.595  0.00  0.00    +0.018 A 
ATOM      8  C   LIG A   1      -8.297  -3.036 126.369  0.00  0.00    +0.023 A 
ATOM      9  C   LIG A   1      -7.609  -2.831 125.159  0.00  0.00    +0.017 A 
ATOM     10  C   LIG A   1      -6.245  -2.461 125.184  0.00  0.00    +0.131 A 
ATOM     11  C   LIG A   1      -5.616  -2.244 126.415  0.00  0.00    +0.093 A 
ENDROOT
BRANCH   9  12
ATOM     12  C   LIG A   1      -8.378  -2.920 123.905  0.00  0.00    +0.010 C 
ATOM     13  C   LIG A   1      -8.998  -1.959 123.197  0.00  0.00    +0.007 C 
BRANCH  13  14
ATOM     14  C   LIG A   1      -9.127  -0.467 123.407  0.00  0.00    +0.079 C 
ATOM     15  C   LIG A   1      -7.817   0.319 123.384  0.00  0.00    +0.045 C 
ATOM     16  C   LIG A   1     -10.080   0.140 122.366  0.00  0.00    +0.045 C 
BRANCH  14  17
ATOM     17  O   LIG A   1      -9.746  -0.281 124.681  0.00  0.00    -0.385 OA
ATOM     18  H   LIG A   1      -9.666   0.665 124.896  0.00  0.00    +0.211 HD
ENDBRANCH  14  17
ENDBRANCH  13  14
ENDBRANCH   9  12
BRANCH  10  19
ATOM     19  O   LIG A   1      -5.605  -2.295 123.979  0.00  0.00    -0.494 OA
ATOM     20  C   LIG A   1      -4.720  -3.349 123.600  0.00  0.00    +0.277 C 
ENDBRANCH  10  19
TORSDOF 4
ENDMDL
MODEL 6
REMARK VINA RESULT:      -6.4      8.536      9.914
REMARK  Name = NuBBE_1268
REMARK  7 active torsions:
REMARK  status: ('A' for Active; 'I' for Inactive)
REMARK    1  A    between atoms: C_9  and  C_10
REMARK    2  A    between atoms: C_11  and  C_12
REMARK    3  A    between atoms: C_12  and  O_13
REMARK    4  A    between atoms: C_12  and  C_14
REMARK    5  A    between atoms: C_12  and  C_15
REMARK    6  A    between atoms: C_16  and  O_17
REMARK    7  A    between atoms: O_17  and  C_18
REMARK                            x       y       z     vdW  Elec       q    Type
REMARK                         _______ _______ _______ _____ _____    ______ ____
ROOT
ATOM      1  O   LIG A   1      -6.023   5.725 118.324  0.00  0.00    -0.245 OA
ATOM      2  C   LIG A   1      -6.077   5.058 119.358  0.00  0.00    +0.337 A 
ATOM      3  C   LIG A   1      -4.895   4.903 120.218  0.00  0.00    +0.092 A 
ATOM      4  C   LIG A   1      -4.926   4.215 121.367  0.00  0.00    +0.018 A 
ATOM      5  O   LIG A   1      -7.235   4.413 119.762  0.00  0.00    -0.422 OA
ATOM      6  C   LIG A   1      -7.290   3.720 120.986  0.00  0.00    +0.143 A 
ATOM      7  C   LIG A   1      -6.174   3.614 121.807  0.00  0.00    +0.018 A 
ATOM      8  C   LIG A   1      -6.306   2.970 123.040  0.00  0.00    +0.023 A 
ATOM      9  C   LIG A   1      -7.547   2.439 123.442  0.00  0.00    +0.017 A 
ATOM     10  C   LIG A   1      -8.656   2.517 122.570  0.00  0.00    +0.131 A 
ATOM     11  C   LIG A   1      -8.520   3.178 121.344  0.00  0.00    +0.093 A 
ENDROOT
BRANCH   9  12
ATOM     12  C   LIG A   1      -7.656   1.903 124.810  0.00  0.00    +0.010 C 
ATOM     13  C   LIG A   1      -7.696   2.543 125.993  0.00  0.00    +0.007 C 
BRANCH  13  14
ATOM     14  C   LIG A   1      -7.656   4.010 126.353  0.00  0.00    +0.079 C 
ATOM     15  C   LIG A   1      -7.937   4.338 127.819  0.00  0.00    +0.045 C 
ATOM     16  C   LIG A   1      -6.299   4.620 125.968  0.00  0.00    +0.045 C 
BRANCH  14  17
ATOM     17  O   LIG A   1      -8.637   4.662 125.546  0.00  0.00    -0.385 OA
ATOM     18  H   LIG A   1      -9.505   4.324 125.829  0.00  0.00    +0.211 HD
ENDBRANCH  14  17
ENDBRANCH  13  14
ENDBRANCH   9  12
BRANCH  10  19
ATOM     19  O   LIG A   1      -9.841   1.964 122.992  0.00  0.00    -0.494 OA
ATOM     20  C   LIG A   1     -10.137   0.667 122.474  0.00  0.00    +0.277 C 
ENDBRANCH  10  19
TORSDOF 4
ENDMDL
MODEL 7
REMARK VINA RESULT:      -6.4      1.853      5.943
REMARK  Name = NuBBE_1268
REMARK  7 active torsions:
REMARK  status: ('A' for Active; 'I' for Inactive)
REMARK    1  A    between atoms: C_9  and  C_10
REMARK    2  A    between atoms: C_11  and  C_12
REMARK    3  A    between atoms: C_12  and  O_13
REMARK    4  A    between atoms: C_12  and  C_14
REMARK    5  A    between atoms: C_12  and  C_15
REMARK    6  A    between atoms: C_16  and  O_17
REMARK    7  A    between atoms: O_17  and  C_18
REMARK                            x       y       z     vdW  Elec       q    Type
REMARK                         _______ _______ _______ _____ _____    ______ ____
ROOT
ATOM      1  O   LIG A   1      -6.856   2.096 134.276  0.00  0.00    -0.245 OA
ATOM      2  C   LIG A   1      -7.423   3.031 133.709  0.00  0.00    +0.337 A 
ATOM      3  C   LIG A   1      -7.915   4.188 134.470  0.00  0.00    +0.092 A 
ATOM      4  C   LIG A   1      -8.503   5.238 133.883  0.00  0.00    +0.018 A 
ATOM      5  O   LIG A   1      -7.638   3.043 132.340  0.00  0.00    -0.422 OA
ATOM      6  C   LIG A   1      -8.221   4.158 131.708  0.00  0.00    +0.143 A 
ATOM      7  C   LIG A   1      -8.646   5.261 132.436  0.00  0.00    +0.018 A 
ATOM      8  C   LIG A   1      -9.157   6.365 131.747  0.00  0.00    +0.023 A 
ATOM      9  C   LIG A   1      -9.239   6.358 130.342  0.00  0.00    +0.017 A 
ATOM     10  C   LIG A   1      -8.843   5.206 129.625  0.00  0.00    +0.131 A 
ATOM     11  C   LIG A   1      -8.317   4.111 130.320  0.00  0.00    +0.093 A 
ENDROOT
BRANCH   9  12
ATOM     12  C   LIG A   1      -9.649   7.602 129.669  0.00  0.00    +0.010 C 
ATOM     13  C   LIG A   1     -10.862   8.002 129.247  0.00  0.00    +0.007 C 
BRANCH  13  14
ATOM     14  C   LIG A   1     -12.224   7.350 129.312  0.00  0.00    +0.079 C 
ATOM     15  C   LIG A   1     -12.800   7.161 130.714  0.00  0.00    +0.045 C 
ATOM     16  C   LIG A   1     -13.237   8.141 128.470  0.00  0.00    +0.045 C 
BRANCH  14  17
ATOM     17  O   LIG A   1     -12.098   6.067 128.696  0.00  0.00    -0.385 OA
ATOM     18  H   LIG A   1     -11.638   5.493 129.333  0.00  0.00    +0.211 HD
ENDBRANCH  14  17
ENDBRANCH  13  14
ENDBRANCH   9  12
BRANCH  10  19
ATOM     19  O   LIG A   1      -8.962   5.233 128.256  0.00  0.00    -0.494 OA
ATOM     20  C   LIG A   1      -8.060   4.389 127.541  0.00  0.00    +0.277 C 
ENDBRANCH  10  19
TORSDOF 4
ENDMDL
MODEL 8
REMARK VINA RESULT:      -6.4      8.950     10.134
REMARK  Name = NuBBE_1268
REMARK  7 active torsions:
REMARK  status: ('A' for Active; 'I' for Inactive)
REMARK    1  A    between atoms: C_9  and  C_10
REMARK    2  A    between atoms: C_11  and  C_12
REMARK    3  A    between atoms: C_12  and  O_13
REMARK    4  A    between atoms: C_12  and  C_14
REMARK    5  A    between atoms: C_12  and  C_15
REMARK    6  A    between atoms: C_16  and  O_17
REMARK    7  A    between atoms: O_17  and  C_18
REMARK                            x       y       z     vdW  Elec       q    Type
REMARK                         _______ _______ _______ _____ _____    ______ ____
ROOT
ATOM      1  O   LIG A   1      -6.072   5.651 118.324  0.00  0.00    -0.245 OA
ATOM      2  C   LIG A   1      -6.111   5.042 119.393  0.00  0.00    +0.337 A 
ATOM      3  C   LIG A   1      -4.933   4.982 120.270  0.00  0.00    +0.092 A 
ATOM      4  C   LIG A   1      -4.948   4.359 121.455  0.00  0.00    +0.018 A 
ATOM      5  O   LIG A   1      -7.247   4.375 119.824  0.00  0.00    -0.422 OA
ATOM      6  C   LIG A   1      -7.288   3.751 121.085  0.00  0.00    +0.143 A 
ATOM      7  C   LIG A   1      -6.177   3.735 121.919  0.00  0.00    +0.018 A 
ATOM      8  C   LIG A   1      -6.297   3.157 123.186  0.00  0.00    +0.023 A 
ATOM      9  C   LIG A   1      -7.520   2.601 123.607  0.00  0.00    +0.017 A 
ATOM     10  C   LIG A   1      -8.622   2.587 122.723  0.00  0.00    +0.131 A 
ATOM     11  C   LIG A   1      -8.500   3.182 121.463  0.00  0.00    +0.093 A 
ENDROOT
BRANCH   9  12
ATOM     12  C   LIG A   1      -7.622   2.139 125.002  0.00  0.00    +0.010 C 
ATOM     13  C   LIG A   1      -7.400   0.923 125.533  0.00  0.00    +0.007 C 
BRANCH  13  14
ATOM     14  C   LIG A   1      -6.963  -0.387 124.918  0.00  0.00    +0.079 C 
ATOM     15  C   LIG A   1      -6.781  -0.377 123.401  0.00  0.00    +0.045 C 
ATOM     16  C   LIG A   1      -5.656  -0.873 125.564  0.00  0.00    +0.045 C 
BRANCH  14  17
ATOM     17  O   LIG A   1      -7.962  -1.353 125.249  0.00  0.00    -0.385 OA
ATOM     18  H   LIG A   1      -8.777  -1.084 124.789  0.00  0.00    +0.211 HD
ENDBRANCH  14  17
ENDBRANCH  13  14
ENDBRANCH   9  12
BRANCH  10  19
ATOM     19  O   LIG A   1      -9.790   2.012 123.167  0.00  0.00    -0.494 OA
ATOM     20  C   LIG A   1     -10.128   0.760 122.569  0.00  0.00    +0.277 C 
ENDBRANCH  10  19
TORSDOF 4
ENDMDL
MODEL 9
REMARK VINA RESULT:      -6.3      2.020      3.187
REMARK  Name = NuBBE_1268
REMARK  7 active torsions:
REMARK  status: ('A' for Active; 'I' for Inactive)
REMARK    1  A    between atoms: C_9  and  C_10
REMARK    2  A    between atoms: C_11  and  C_12
REMARK    3  A    between atoms: C_12  and  O_13
REMARK    4  A    between atoms: C_12  and  C_14
REMARK    5  A    between atoms: C_12  and  C_15
REMARK    6  A    between atoms: C_16  and  O_17
REMARK    7  A    between atoms: O_17  and  C_18
REMARK                            x       y       z     vdW  Elec       q    Type
REMARK                         _______ _______ _______ _____ _____    ______ ____
ROOT
ATOM      1  O   LIG A   1     -13.885   6.645 128.311  0.00  0.00    -0.245 OA
ATOM      2  C   LIG A   1     -12.753   6.709 128.791  0.00  0.00    +0.337 A 
ATOM      3  C   LIG A   1     -12.096   8.007 129.001  0.00  0.00    +0.092 A 
ATOM      4  C   LIG A   1     -10.880   8.118 129.552  0.00  0.00    +0.018 A 
ATOM      5  O   LIG A   1     -12.036   5.578 129.146  0.00  0.00    -0.422 OA
ATOM      6  C   LIG A   1     -10.775   5.684 129.763  0.00  0.00    +0.143 A 
ATOM      7  C   LIG A   1     -10.182   6.919 129.989  0.00  0.00    +0.018 A 
ATOM      8  C   LIG A   1      -8.958   6.965 130.663  0.00  0.00    +0.023 A 
ATOM      9  C   LIG A   1      -8.339   5.780 131.104  0.00  0.00    +0.017 A 
ATOM     10  C   LIG A   1      -8.938   4.531 130.821  0.00  0.00    +0.131 A 
ATOM     11  C   LIG A   1     -10.170   4.495 130.160  0.00  0.00    +0.093 A 
ENDROOT
BRANCH   9  12
ATOM     12  C   LIG A   1      -7.128   5.903 131.933  0.00  0.00    +0.010 C 
ATOM     13  C   LIG A   1      -6.973   5.796 133.265  0.00  0.00    +0.007 C 
BRANCH  13  14
ATOM     14  C   LIG A   1      -7.952   5.509 134.380  0.00  0.00    +0.079 C 
ATOM     15  C   LIG A   1      -8.434   4.063 134.479  0.00  0.00    +0.045 C 
ATOM     16  C   LIG A   1      -7.357   5.919 135.736  0.00  0.00    +0.045 C 
BRANCH  14  17
ATOM     17  O   LIG A   1      -9.085   6.351 134.164  0.00  0.00    -0.385 OA
ATOM     18  H   LIG A   1      -8.776   7.109 133.635  0.00  0.00    +0.211 HD
ENDBRANCH  14  17
ENDBRANCH  13  14
ENDBRANCH   9  12
BRANCH  10  19
ATOM     19  O   LIG A   1      -8.286   3.399 131.248  0.00  0.00    -0.494 OA
ATOM     20  C   LIG A   1      -7.902   2.483 130.223  0.00  0.00    +0.277 C 
ENDBRANCH  10  19
TORSDOF 4
ENDMDL
