MODEL 1
REMARK VINA RESULT:      -7.0      0.000      0.000
REMARK  Name = NuBBE_1432
REMARK  11 active torsions:
REMARK  status: ('A' for Active; 'I' for Inactive)
REMARK    1  A    between atoms: C_1  and  C_2
REMARK    2  A    between atoms: C_2  and  C_3
REMARK    3  A    between atoms: C_4  and  C_5
REMARK    4  A    between atoms: C_5  and  C_6
REMARK    5  A    between atoms: C_6  and  O_7
REMARK    6  A    between atoms: O_7  and  C_8
REMARK    7  A    between atoms: C_9  and  O_11
REMARK    8  A    between atoms: O_11  and  C_12
REMARK    9  A    between atoms: C_12  and  C_13
REMARK   10  A    between atoms: C_25  and  O_26
REMARK   11  A    between atoms: O_26  and  C_27
REMARK                            x       y       z     vdW  Elec       q    Type
REMARK                         _______ _______ _______ _____ _____    ______ ____
ROOT
ATOM      1  C   LIG A   1      -7.455  -1.478 126.193  0.00  0.00    +0.151 C 
ATOM      2  C   LIG A   1      -8.498  -0.775 125.275  0.00  0.00    +0.215 C 
ATOM      3  C   LIG A   1      -8.493   0.736 125.424  0.00  0.00    +0.053 C 
ATOM      4  C   LIG A   1      -8.739   1.143 126.875  0.00  0.00    +0.044 C 
ATOM      5  C   LIG A   1      -8.004   0.334 127.922  0.00  0.00    +0.019 A 
ATOM      6  C   LIG A   1      -7.425  -0.907 127.622  0.00  0.00    +0.087 A 
ATOM      7  N   LIG A   1      -6.790  -1.683 128.536  0.00  0.00    -0.213 NA
ATOM      8  C   LIG A   1      -6.806  -1.217 129.790  0.00  0.00    +0.231 A 
ATOM      9  O   LIG A   1      -6.268  -1.916 130.828  0.00  0.00    -0.445 OA
ATOM     10  C   LIG A   1      -6.489  -1.196 131.953  0.00  0.00    +0.198 A 
ATOM     11  C   LIG A   1      -7.154  -0.031 131.654  0.00  0.00    +0.055 A 
ATOM     12  C   LIG A   1      -7.359  -0.022 130.242  0.00  0.00    +0.082 A 
ATOM     13  C   LIG A   1      -7.954   0.800 129.260  0.00  0.00    +0.137 A 
ENDROOT
BRANCH   1  14
ATOM     14  O   LIG A   1      -7.760  -2.911 126.220  0.00  0.00    -0.366 OA
ATOM     15  C   LIG A   1      -9.063  -3.276 126.676  0.00  0.00    +0.195 C 
ENDBRANCH   1  14
BRANCH  13  16
ATOM     16  O   LIG A   1      -8.603   2.002 129.502  0.00  0.00    -0.494 OA
ATOM     17  C   LIG A   1      -7.759   3.101 129.828  0.00  0.00    +0.277 C 
ENDBRANCH  13  16
BRANCH   1  18
ATOM     18  C   LIG A   1      -5.989  -1.400 125.617  0.00  0.00    +0.072 C 
BRANCH  18  22
ATOM     19  C   LIG A   1      -4.489  -4.510 123.709  0.00  0.00    +0.038 C 
ATOM     20  C   LIG A   1      -5.140  -3.162 123.918  0.00  0.00    -0.080 C 
ATOM     21  C   LIG A   1      -5.534  -2.460 122.648  0.00  0.00    +0.038 C 
ATOM     22  C   LIG A   1      -5.321  -2.689 125.170  0.00  0.00    -0.025 C 
ENDBRANCH  18  22
ENDBRANCH   1  18
BRANCH   2  23
ATOM     23  O   LIG A   1      -8.246  -1.108 123.886  0.00  0.00    -0.458 OA
BRANCH  23  24
ATOM     24  C   LIG A   1      -9.307  -1.541 123.154  0.00  0.00    +0.304 C 
ATOM     25  C   LIG A   1      -9.366  -3.048 123.134  0.00  0.00    +0.136 C 
ATOM     26  O   LIG A   1     -10.148  -0.818 122.599  0.00  0.00    -0.251 OA
ENDBRANCH  23  24
ENDBRANCH   2  23
TORSDOF 6
ENDMDL
MODEL 2
REMARK VINA RESULT:      -6.7      2.660      4.654
REMARK  Name = NuBBE_1432
REMARK  11 active torsions:
REMARK  status: ('A' for Active; 'I' for Inactive)
REMARK    1  A    between atoms: C_1  and  C_2
REMARK    2  A    between atoms: C_2  and  C_3
REMARK    3  A    between atoms: C_4  and  C_5
REMARK    4  A    between atoms: C_5  and  C_6
REMARK    5  A    between atoms: C_6  and  O_7
REMARK    6  A    between atoms: O_7  and  C_8
REMARK    7  A    between atoms: C_9  and  O_11
REMARK    8  A    between atoms: O_11  and  C_12
REMARK    9  A    between atoms: C_12  and  C_13
REMARK   10  A    between atoms: C_25  and  O_26
REMARK   11  A    between atoms: O_26  and  C_27
REMARK                            x       y       z     vdW  Elec       q    Type
REMARK                         _______ _______ _______ _____ _____    ______ ____
ROOT
ATOM      1  C   LIG A   1      -6.546  -1.114 126.953  0.00  0.00    +0.151 C 
ATOM      2  C   LIG A   1      -7.978  -1.687 127.163  0.00  0.00    +0.215 C 
ATOM      3  C   LIG A   1      -8.892  -1.443 125.975  0.00  0.00    +0.053 C 
ATOM      4  C   LIG A   1      -8.984   0.046 125.653  0.00  0.00    +0.044 C 
ATOM      5  C   LIG A   1      -7.682   0.815 125.703  0.00  0.00    +0.019 A 
ATOM      6  C   LIG A   1      -6.542   0.295 126.334  0.00  0.00    +0.087 A 
ATOM      7  N   LIG A   1      -5.366   0.963 126.436  0.00  0.00    -0.213 NA
ATOM      8  C   LIG A   1      -5.373   2.208 125.946  0.00  0.00    +0.231 A 
ATOM      9  O   LIG A   1      -4.287   3.026 126.036  0.00  0.00    -0.445 OA
ATOM     10  C   LIG A   1      -4.636   4.216 125.491  0.00  0.00    +0.198 A 
ATOM     11  C   LIG A   1      -5.933   4.174 125.039  0.00  0.00    +0.055 A 
ATOM     12  C   LIG A   1      -6.426   2.865 125.317  0.00  0.00    +0.082 A 
ATOM     13  C   LIG A   1      -7.619   2.124 125.162  0.00  0.00    +0.137 A 
ENDROOT
BRANCH   1  14
ATOM     14  O   LIG A   1      -5.861  -1.106 128.249  0.00  0.00    -0.366 OA
ATOM     15  C   LIG A   1      -4.849  -2.094 128.441  0.00  0.00    +0.195 C 
ENDBRANCH   1  14
BRANCH  13  16
ATOM     16  O   LIG A   1      -8.798   2.603 124.611  0.00  0.00    -0.494 OA
ATOM     17  C   LIG A   1      -8.831   2.664 123.189  0.00  0.00    +0.277 C 
ENDBRANCH  13  16
BRANCH   1  18
ATOM     18  C   LIG A   1      -5.649  -2.038 126.043  0.00  0.00    +0.072 C 
BRANCH  18  22
ATOM     19  C   LIG A   1      -5.617  -2.469 122.122  0.00  0.00    +0.038 C 
ATOM     20  C   LIG A   1      -5.386  -2.795 123.579  0.00  0.00    -0.080 C 
ATOM     21  C   LIG A   1      -4.673  -4.097 123.818  0.00  0.00    +0.038 C 
ATOM     22  C   LIG A   1      -5.813  -1.943 124.535  0.00  0.00    -0.025 C 
ENDBRANCH  18  22
ENDBRANCH   1  18
BRANCH   2  23
ATOM     23  O   LIG A   1      -7.914  -3.113 127.418  0.00  0.00    -0.458 OA
BRANCH  23  24
ATOM     24  C   LIG A   1      -8.687  -3.594 128.427  0.00  0.00    +0.304 C 
ATOM     25  C   LIG A   1      -8.149  -3.162 129.769  0.00  0.00    +0.136 C 
ATOM     26  O   LIG A   1      -9.719  -4.268 128.292  0.00  0.00    -0.251 OA
ENDBRANCH  23  24
ENDBRANCH   2  23
TORSDOF 6
ENDMDL
MODEL 3
REMARK VINA RESULT:      -6.6      5.640      9.348
REMARK  Name = NuBBE_1432
REMARK  11 active torsions:
REMARK  status: ('A' for Active; 'I' for Inactive)
REMARK    1  A    between atoms: C_1  and  C_2
REMARK    2  A    between atoms: C_2  and  C_3
REMARK    3  A    between atoms: C_4  and  C_5
REMARK    4  A    between atoms: C_5  and  C_6
REMARK    5  A    between atoms: C_6  and  O_7
REMARK    6  A    between atoms: O_7  and  C_8
REMARK    7  A    between atoms: C_9  and  O_11
REMARK    8  A    between atoms: O_11  and  C_12
REMARK    9  A    between atoms: C_12  and  C_13
REMARK   10  A    between atoms: C_25  and  O_26
REMARK   11  A    between atoms: O_26  and  C_27
REMARK                            x       y       z     vdW  Elec       q    Type
REMARK                         _______ _______ _______ _____ _____    ______ ____
ROOT
ATOM      1  C   LIG A   1      -8.704   5.033 130.171  0.00  0.00    +0.151 C 
ATOM      2  C   LIG A   1      -8.004   4.544 131.473  0.00  0.00    +0.215 C 
ATOM      3  C   LIG A   1      -6.505   4.790 131.465  0.00  0.00    +0.053 C 
ATOM      4  C   LIG A   1      -5.849   4.128 130.256  0.00  0.00    +0.044 C 
ATOM      5  C   LIG A   1      -6.587   4.269 128.943  0.00  0.00    +0.019 A 
ATOM      6  C   LIG A   1      -7.932   4.663 128.892  0.00  0.00    +0.087 A 
ATOM      7  N   LIG A   1      -8.644   4.767 127.742  0.00  0.00    -0.213 NA
ATOM      8  C   LIG A   1      -7.994   4.396 126.633  0.00  0.00    +0.231 A 
ATOM      9  O   LIG A   1      -8.598   4.382 125.412  0.00  0.00    -0.445 OA
ATOM     10  C   LIG A   1      -7.688   3.920 124.521  0.00  0.00    +0.198 A 
ATOM     11  C   LIG A   1      -6.498   3.646 125.150  0.00  0.00    +0.055 A 
ATOM     12  C   LIG A   1      -6.675   3.964 126.529  0.00  0.00    +0.082 A 
ATOM     13  C   LIG A   1      -5.934   3.929 127.731  0.00  0.00    +0.137 A 
ENDROOT
BRANCH   1  14
ATOM     14  O   LIG A   1     -10.055   4.464 130.136  0.00  0.00    -0.366 OA
ATOM     15  C   LIG A   1     -10.171   3.081 130.465  0.00  0.00    +0.195 C 
ENDBRANCH   1  14
BRANCH  13  16
ATOM     16  O   LIG A   1      -4.626   3.486 127.858  0.00  0.00    -0.494 OA
ATOM     17  C   LIG A   1      -3.630   4.348 127.321  0.00  0.00    +0.277 C 
ENDBRANCH  13  16
BRANCH   1  18
ATOM     18  C   LIG A   1      -8.935   6.593 130.155  0.00  0.00    +0.072 C 
BRANCH  18  22
ATOM     19  C   LIG A   1     -12.446   8.346 129.755  0.00  0.00    +0.038 C 
ATOM     20  C   LIG A   1     -11.043   7.904 129.412  0.00  0.00    -0.080 C 
ATOM     21  C   LIG A   1     -10.537   8.416 128.092  0.00  0.00    +0.038 C 
ATOM     22  C   LIG A   1     -10.359   7.113 130.266  0.00  0.00    -0.025 C 
ENDBRANCH  18  22
ENDBRANCH   1  18
BRANCH   2  23
ATOM     23  O   LIG A   1      -8.580   5.203 132.628  0.00  0.00    -0.458 OA
BRANCH  23  24
ATOM     24  C   LIG A   1      -8.714   4.460 133.758  0.00  0.00    +0.304 C 
ATOM     25  C   LIG A   1      -7.922   5.060 134.893  0.00  0.00    +0.136 C 
ATOM     26  O   LIG A   1      -9.417   3.445 133.879  0.00  0.00    -0.251 OA
ENDBRANCH  23  24
ENDBRANCH   2  23
TORSDOF 6
ENDMDL
MODEL 4
REMARK VINA RESULT:      -6.5      3.755      6.507
REMARK  Name = NuBBE_1432
REMARK  11 active torsions:
REMARK  status: ('A' for Active; 'I' for Inactive)
REMARK    1  A    between atoms: C_1  and  C_2
REMARK    2  A    between atoms: C_2  and  C_3
REMARK    3  A    between atoms: C_4  and  C_5
REMARK    4  A    between atoms: C_5  and  C_6
REMARK    5  A    between atoms: C_6  and  O_7
REMARK    6  A    between atoms: O_7  and  C_8
REMARK    7  A    between atoms: C_9  and  O_11
REMARK    8  A    between atoms: O_11  and  C_12
REMARK    9  A    between atoms: C_12  and  C_13
REMARK   10  A    between atoms: C_25  and  O_26
REMARK   11  A    between atoms: O_26  and  C_27
REMARK                            x       y       z     vdW  Elec       q    Type
REMARK                         _______ _______ _______ _____ _____    ______ ____
ROOT
ATOM      1  C   LIG A   1      -6.950   1.880 124.107  0.00  0.00    +0.151 C 
ATOM      2  C   LIG A   1      -6.153   2.513 125.285  0.00  0.00    +0.215 C 
ATOM      3  C   LIG A   1      -5.031   1.619 125.787  0.00  0.00    +0.053 C 
ATOM      4  C   LIG A   1      -5.568   0.255 126.213  0.00  0.00    +0.044 C 
ATOM      5  C   LIG A   1      -6.599  -0.365 125.295  0.00  0.00    +0.019 A 
ATOM      6  C   LIG A   1      -7.274   0.392 124.326  0.00  0.00    +0.087 A 
ATOM      7  N   LIG A   1      -8.232  -0.114 123.508  0.00  0.00    -0.213 NA
ATOM      8  C   LIG A   1      -8.554  -1.393 123.729  0.00  0.00    +0.231 A 
ATOM      9  O   LIG A   1      -9.544  -2.019 123.034  0.00  0.00    -0.445 OA
ATOM     10  C   LIG A   1      -9.645  -3.277 123.526  0.00  0.00    +0.198 A 
ATOM     11  C   LIG A   1      -8.724  -3.476 124.525  0.00  0.00    +0.055 A 
ATOM     12  C   LIG A   1      -7.993  -2.259 124.664  0.00  0.00    +0.082 A 
ATOM     13  C   LIG A   1      -6.952  -1.729 125.457  0.00  0.00    +0.137 A 
ENDROOT
BRANCH   1  14
ATOM     14  O   LIG A   1      -8.183   2.651 123.923  0.00  0.00    -0.366 OA
ATOM     15  C   LIG A   1      -8.987   2.853 125.084  0.00  0.00    +0.195 C 
ENDBRANCH   1  14
BRANCH  13  16
ATOM     16  O   LIG A   1      -6.293  -2.402 126.475  0.00  0.00    -0.494 OA
ATOM     17  C   LIG A   1      -7.033  -2.570 127.679  0.00  0.00    +0.277 C 
ENDBRANCH  13  16
BRANCH   1  18
ATOM     18  C   LIG A   1      -6.199   2.007 122.727  0.00  0.00    +0.072 C 
BRANCH  18  22
ATOM     19  C   LIG A   1      -7.370   4.285 119.727  0.00  0.00    +0.038 C 
ATOM     20  C   LIG A   1      -6.461   3.698 120.782  0.00  0.00    -0.080 C 
ATOM     21  C   LIG A   1      -5.089   4.312 120.829  0.00  0.00    +0.038 C 
ATOM     22  C   LIG A   1      -6.909   2.706 121.580  0.00  0.00    -0.025 C 
ENDBRANCH  18  22
ENDBRANCH   1  18
BRANCH   2  23
ATOM     23  O   LIG A   1      -5.590   3.787 124.881  0.00  0.00    -0.458 OA
BRANCH  23  24
ATOM     24  C   LIG A   1      -5.882   4.863 125.658  0.00  0.00    +0.304 C 
ATOM     25  C   LIG A   1      -4.857   5.028 126.753  0.00  0.00    +0.136 C 
ATOM     26  O   LIG A   1      -6.831   5.644 125.489  0.00  0.00    -0.251 OA
ENDBRANCH  23  24
ENDBRANCH   2  23
TORSDOF 6
ENDMDL
MODEL 5
REMARK VINA RESULT:      -6.4      1.993      2.282
REMARK  Name = NuBBE_1432
REMARK  11 active torsions:
REMARK  status: ('A' for Active; 'I' for Inactive)
REMARK    1  A    between atoms: C_1  and  C_2
REMARK    2  A    between atoms: C_2  and  C_3
REMARK    3  A    between atoms: C_4  and  C_5
REMARK    4  A    between atoms: C_5  and  C_6
REMARK    5  A    between atoms: C_6  and  O_7
REMARK    6  A    between atoms: O_7  and  C_8
REMARK    7  A    between atoms: C_9  and  O_11
REMARK    8  A    between atoms: O_11  and  C_12
REMARK    9  A    between atoms: C_12  and  C_13
REMARK   10  A    between atoms: C_25  and  O_26
REMARK   11  A    between atoms: O_26  and  C_27
REMARK                            x       y       z     vdW  Elec       q    Type
REMARK                         _______ _______ _______ _____ _____    ______ ____
ROOT
ATOM      1  C   LIG A   1      -6.876  -0.754 126.622  0.00  0.00    +0.151 C 
ATOM      2  C   LIG A   1      -8.374  -0.856 126.210  0.00  0.00    +0.215 C 
ATOM      3  C   LIG A   1      -8.983   0.491 125.859  0.00  0.00    +0.053 C 
ATOM      4  C   LIG A   1      -8.841   1.474 127.019  0.00  0.00    +0.044 C 
ATOM      5  C   LIG A   1      -7.504   1.474 127.725  0.00  0.00    +0.019 A 
ATOM      6  C   LIG A   1      -6.588   0.423 127.571  0.00  0.00    +0.087 A 
ATOM      7  N   LIG A   1      -5.394   0.363 128.213  0.00  0.00    -0.213 NA
ATOM      8  C   LIG A   1      -5.161   1.356 129.078  0.00  0.00    +0.231 A 
ATOM      9  O   LIG A   1      -4.036   1.397 129.846  0.00  0.00    -0.445 OA
ATOM     10  C   LIG A   1      -4.130   2.494 130.635  0.00  0.00    +0.198 A 
ATOM     11  C   LIG A   1      -5.298   3.170 130.379  0.00  0.00    +0.055 A 
ATOM     12  C   LIG A   1      -5.979   2.448 129.355  0.00  0.00    +0.082 A 
ATOM     13  C   LIG A   1      -7.185   2.524 128.624  0.00  0.00    +0.137 A 
ENDROOT
BRANCH   1  14
ATOM     14  O   LIG A   1      -6.485  -2.022 127.245  0.00  0.00    -0.366 OA
ATOM     15  C   LIG A   1      -7.302  -2.480 128.322  0.00  0.00    +0.195 C 
ENDBRANCH   1  14
BRANCH  13  16
ATOM     16  O   LIG A   1      -8.161   3.497 128.780  0.00  0.00    -0.494 OA
ATOM     17  C   LIG A   1      -8.871   3.464 130.012  0.00  0.00    +0.277 C 
ENDBRANCH  13  16
BRANCH   1  18
ATOM     18  C   LIG A   1      -5.913  -0.614 125.382  0.00  0.00    +0.072 C 
BRANCH  18  22
ATOM     19  C   LIG A   1      -4.482  -3.741 123.449  0.00  0.00    +0.038 C 
ATOM     20  C   LIG A   1      -5.273  -2.479 123.700  0.00  0.00    -0.080 C 
ATOM     21  C   LIG A   1      -6.119  -2.035 122.539  0.00  0.00    +0.038 C 
ATOM     22  C   LIG A   1      -5.181  -1.852 124.893  0.00  0.00    -0.025 C 
ENDBRANCH  18  22
ENDBRANCH   1  18
BRANCH   2  23
ATOM     23  O   LIG A   1      -8.521  -1.745 125.075  0.00  0.00    -0.458 OA
BRANCH  23  24
ATOM     24  C   LIG A   1      -9.141  -2.934 125.299  0.00  0.00    +0.304 C 
ATOM     25  C   LIG A   1      -8.318  -4.079 124.763  0.00  0.00    +0.136 C 
ATOM     26  O   LIG A   1     -10.219  -3.089 125.893  0.00  0.00    -0.251 OA
ENDBRANCH  23  24
ENDBRANCH   2  23
TORSDOF 6
ENDMDL
MODEL 6
REMARK VINA RESULT:      -6.4      2.144      4.115
REMARK  Name = NuBBE_1432
REMARK  11 active torsions:
REMARK  status: ('A' for Active; 'I' for Inactive)
REMARK    1  A    between atoms: C_1  and  C_2
REMARK    2  A    between atoms: C_2  and  C_3
REMARK    3  A    between atoms: C_4  and  C_5
REMARK    4  A    between atoms: C_5  and  C_6
REMARK    5  A    between atoms: C_6  and  O_7
REMARK    6  A    between atoms: O_7  and  C_8
REMARK    7  A    between atoms: C_9  and  O_11
REMARK    8  A    between atoms: O_11  and  C_12
REMARK    9  A    between atoms: C_12  and  C_13
REMARK   10  A    between atoms: C_25  and  O_26
REMARK   11  A    between atoms: O_26  and  C_27
REMARK                            x       y       z     vdW  Elec       q    Type
REMARK                         _______ _______ _______ _____ _____    ______ ____
ROOT
ATOM      1  C   LIG A   1      -7.659  -1.039 126.336  0.00  0.00    +0.151 C 
ATOM      2  C   LIG A   1      -8.352  -2.296 125.732  0.00  0.00    +0.215 C 
ATOM      3  C   LIG A   1      -9.140  -3.088 126.762  0.00  0.00    +0.053 C 
ATOM      4  C   LIG A   1      -8.247  -3.510 127.926  0.00  0.00    +0.044 C 
ATOM      5  C   LIG A   1      -7.287  -2.459 128.438  0.00  0.00    +0.019 A 
ATOM      6  C   LIG A   1      -6.981  -1.313 127.689  0.00  0.00    +0.087 A 
ATOM      7  N   LIG A   1      -6.098  -0.364 128.092  0.00  0.00    -0.213 NA
ATOM      8  C   LIG A   1      -5.467  -0.623 129.242  0.00  0.00    +0.231 A 
ATOM      9  O   LIG A   1      -4.505   0.203 129.740  0.00  0.00    -0.445 OA
ATOM     10  C   LIG A   1      -4.041  -0.363 130.879  0.00  0.00    +0.198 A 
ATOM     11  C   LIG A   1      -4.701  -1.542 131.131  0.00  0.00    +0.055 A 
ATOM     12  C   LIG A   1      -5.645  -1.721 130.078  0.00  0.00    +0.082 A 
ATOM     13  C   LIG A   1      -6.619  -2.661 129.672  0.00  0.00    +0.137 A 
ENDROOT
BRANCH   1  14
ATOM     14  O   LIG A   1      -6.681  -0.544 125.363  0.00  0.00    -0.366 OA
ATOM     15  C   LIG A   1      -5.671  -1.465 124.952  0.00  0.00    +0.195 C 
ENDBRANCH   1  14
BRANCH  13  16
ATOM     16  O   LIG A   1      -6.918  -3.845 130.330  0.00  0.00    -0.494 OA
ATOM     17  C   LIG A   1      -5.831  -4.749 130.493  0.00  0.00    +0.277 C 
ENDBRANCH  13  16
BRANCH   1  18
ATOM     18  C   LIG A   1      -8.656   0.166 126.537  0.00  0.00    +0.072 C 
BRANCH  18  22
ATOM     19  C   LIG A   1      -8.435   3.332 124.194  0.00  0.00    +0.038 C 
ATOM     20  C   LIG A   1      -8.946   2.026 124.756  0.00  0.00    -0.080 C 
ATOM     21  C   LIG A   1     -10.120   1.449 124.016  0.00  0.00    +0.038 C 
ATOM     22  C   LIG A   1      -8.350   1.480 125.838  0.00  0.00    -0.025 C 
ENDBRANCH  18  22
ENDBRANCH   1  18
BRANCH   2  23
ATOM     23  O   LIG A   1      -9.245  -1.908 124.658  0.00  0.00    -0.458 OA
BRANCH  23  24
ATOM     24  C   LIG A   1      -9.218  -2.665 123.530  0.00  0.00    +0.304 C 
ATOM     25  C   LIG A   1      -8.247  -2.096 122.525  0.00  0.00    +0.136 C 
ATOM     26  O   LIG A   1      -9.863  -3.706 123.339  0.00  0.00    -0.251 OA
ENDBRANCH  23  24
ENDBRANCH   2  23
TORSDOF 6
ENDMDL
MODEL 7
REMARK VINA RESULT:      -6.4      4.363      7.756
REMARK  Name = NuBBE_1432
REMARK  11 active torsions:
REMARK  status: ('A' for Active; 'I' for Inactive)
REMARK    1  A    between atoms: C_1  and  C_2
REMARK    2  A    between atoms: C_2  and  C_3
REMARK    3  A    between atoms: C_4  and  C_5
REMARK    4  A    between atoms: C_5  and  C_6
REMARK    5  A    between atoms: C_6  and  O_7
REMARK    6  A    between atoms: O_7  and  C_8
REMARK    7  A    between atoms: C_9  and  O_11
REMARK    8  A    between atoms: O_11  and  C_12
REMARK    9  A    between atoms: C_12  and  C_13
REMARK   10  A    between atoms: C_25  and  O_26
REMARK   11  A    between atoms: O_26  and  C_27
REMARK                            x       y       z     vdW  Elec       q    Type
REMARK                         _______ _______ _______ _____ _____    ______ ____
ROOT
ATOM      1  C   LIG A   1      -6.168   3.900 126.094  0.00  0.00    +0.151 C 
ATOM      2  C   LIG A   1      -7.541   3.677 126.793  0.00  0.00    +0.215 C 
ATOM      3  C   LIG A   1      -8.344   2.548 126.168  0.00  0.00    +0.053 C 
ATOM      4  C   LIG A   1      -8.567   2.795 124.678  0.00  0.00    +0.044 C 
ATOM      5  C   LIG A   1      -7.372   3.311 123.908  0.00  0.00    +0.019 A 
ATOM      6  C   LIG A   1      -6.256   3.858 124.558  0.00  0.00    +0.087 A 
ATOM      7  N   LIG A   1      -5.179   4.367 123.908  0.00  0.00    -0.213 NA
ATOM      8  C   LIG A   1      -5.272   4.381 122.573  0.00  0.00    +0.231 A 
ATOM      9  O   LIG A   1      -4.301   4.921 121.787  0.00  0.00    -0.445 OA
ATOM     10  C   LIG A   1      -4.720   4.816 120.503  0.00  0.00    +0.198 A 
ATOM     11  C   LIG A   1      -5.948   4.202 120.449  0.00  0.00    +0.055 A 
ATOM     12  C   LIG A   1      -6.319   3.899 121.792  0.00  0.00    +0.082 A 
ATOM     13  C   LIG A   1      -7.398   3.313 122.490  0.00  0.00    +0.137 A 
ENDROOT
BRANCH   1  14
ATOM     14  O   LIG A   1      -5.631   5.189 126.541  0.00  0.00    -0.366 OA
ATOM     15  C   LIG A   1      -4.446   5.144 127.335  0.00  0.00    +0.195 C 
ENDBRANCH   1  14
BRANCH  13  16
ATOM     16  O   LIG A   1      -8.557   2.818 121.911  0.00  0.00    -0.494 OA
ATOM     17  C   LIG A   1      -9.062   3.566 120.811  0.00  0.00    +0.277 C 
ENDBRANCH  13  16
BRANCH   1  18
ATOM     18  C   LIG A   1      -5.082   2.848 126.539  0.00  0.00    +0.072 C 
BRANCH  18  22
ATOM     19  C   LIG A   1      -5.373  -0.981 125.638  0.00  0.00    +0.038 C 
ATOM     20  C   LIG A   1      -5.477   0.289 126.449  0.00  0.00    -0.080 C 
ATOM     21  C   LIG A   1      -6.004   0.093 127.844  0.00  0.00    +0.038 C 
ATOM     22  C   LIG A   1      -5.110   1.468 125.904  0.00  0.00    -0.025 C 
ENDBRANCH  18  22
ENDBRANCH   1  18
BRANCH   2  23
ATOM     23  O   LIG A   1      -7.346   3.389 128.200  0.00  0.00    -0.458 OA
BRANCH  23  24
ATOM     24  C   LIG A   1      -7.867   4.274 129.089  0.00  0.00    +0.304 C 
ATOM     25  C   LIG A   1      -7.617   3.822 130.506  0.00  0.00    +0.136 C 
ATOM     26  O   LIG A   1      -8.441   5.336 128.803  0.00  0.00    -0.251 OA
ENDBRANCH  23  24
ENDBRANCH   2  23
TORSDOF 6
ENDMDL
MODEL 8
REMARK VINA RESULT:      -6.3      2.845      6.547
REMARK  Name = NuBBE_1432
REMARK  11 active torsions:
REMARK  status: ('A' for Active; 'I' for Inactive)
REMARK    1  A    between atoms: C_1  and  C_2
REMARK    2  A    between atoms: C_2  and  C_3
REMARK    3  A    between atoms: C_4  and  C_5
REMARK    4  A    between atoms: C_5  and  C_6
REMARK    5  A    between atoms: C_6  and  O_7
REMARK    6  A    between atoms: O_7  and  C_8
REMARK    7  A    between atoms: C_9  and  O_11
REMARK    8  A    between atoms: O_11  and  C_12
REMARK    9  A    between atoms: C_12  and  C_13
REMARK   10  A    between atoms: C_25  and  O_26
REMARK   11  A    between atoms: O_26  and  C_27
REMARK                            x       y       z     vdW  Elec       q    Type
REMARK                         _______ _______ _______ _____ _____    ______ ____
ROOT
ATOM      1  C   LIG A   1      -7.512   1.907 125.896  0.00  0.00    +0.151 C 
ATOM      2  C   LIG A   1      -6.272   2.234 126.778  0.00  0.00    +0.215 C 
ATOM      3  C   LIG A   1      -4.964   1.792 126.145  0.00  0.00    +0.053 C 
ATOM      4  C   LIG A   1      -4.985   0.297 125.834  0.00  0.00    +0.044 C 
ATOM      5  C   LIG A   1      -6.267  -0.235 125.233  0.00  0.00    +0.019 A 
ATOM      6  C   LIG A   1      -7.464   0.497 125.282  0.00  0.00    +0.087 A 
ATOM      7  N   LIG A   1      -8.644   0.044 124.790  0.00  0.00    -0.213 NA
ATOM      8  C   LIG A   1      -8.620  -1.202 124.303  0.00  0.00    +0.231 A 
ATOM      9  O   LIG A   1      -9.741  -1.818 123.837  0.00  0.00    -0.445 OA
ATOM     10  C   LIG A   1      -9.385  -3.070 123.463  0.00  0.00    +0.198 A 
ATOM     11  C   LIG A   1      -8.042  -3.268 123.673  0.00  0.00    +0.055 A 
ATOM     12  C   LIG A   1      -7.522  -2.053 124.210  0.00  0.00    +0.082 A 
ATOM     13  C   LIG A   1      -6.290  -1.534 124.666  0.00  0.00    +0.137 A 
ENDROOT
BRANCH   1  14
ATOM     14  O   LIG A   1      -8.714   2.066 126.719  0.00  0.00    -0.366 OA
ATOM     15  C   LIG A   1      -8.660   1.519 128.036  0.00  0.00    +0.195 C 
ENDBRANCH   1  14
BRANCH  13  16
ATOM     16  O   LIG A   1      -5.091  -2.228 124.708  0.00  0.00    -0.494 OA
ATOM     17  C   LIG A   1      -4.762  -2.960 123.532  0.00  0.00    +0.277 C 
ENDBRANCH  13  16
BRANCH   1  18
ATOM     18  C   LIG A   1      -7.707   2.934 124.716  0.00  0.00    +0.072 C 
BRANCH  18  22
ATOM     19  C   LIG A   1      -5.785   2.977 121.271  0.00  0.00    +0.038 C 
ATOM     20  C   LIG A   1      -6.930   3.096 122.249  0.00  0.00    -0.080 C 
ATOM     21  C   LIG A   1      -8.255   3.422 121.617  0.00  0.00    +0.038 C 
ATOM     22  C   LIG A   1      -6.710   2.914 123.569  0.00  0.00    -0.025 C 
ENDBRANCH  18  22
ENDBRANCH   1  18
BRANCH   2  23
ATOM     23  O   LIG A   1      -6.206   3.659 127.039  0.00  0.00    -0.458 OA
BRANCH  23  24
ATOM     24  C   LIG A   1      -5.810   4.040 128.283  0.00  0.00    +0.304 C 
ATOM     25  C   LIG A   1      -6.996   4.449 129.121  0.00  0.00    +0.136 C 
ATOM     26  O   LIG A   1      -4.646   4.026 128.709  0.00  0.00    -0.251 OA
ENDBRANCH  23  24
ENDBRANCH   2  23
TORSDOF 6
ENDMDL
MODEL 9
REMARK VINA RESULT:      -6.3      6.341      9.097
REMARK  Name = NuBBE_1432
REMARK  11 active torsions:
REMARK  status: ('A' for Active; 'I' for Inactive)
REMARK    1  A    between atoms: C_1  and  C_2
REMARK    2  A    between atoms: C_2  and  C_3
REMARK    3  A    between atoms: C_4  and  C_5
REMARK    4  A    between atoms: C_5  and  C_6
REMARK    5  A    between atoms: C_6  and  O_7
REMARK    6  A    between atoms: O_7  and  C_8
REMARK    7  A    between atoms: C_9  and  O_11
REMARK    8  A    between atoms: O_11  and  C_12
REMARK    9  A    between atoms: C_12  and  C_13
REMARK   10  A    between atoms: C_25  and  O_26
REMARK   11  A    between atoms: O_26  and  C_27
REMARK                            x       y       z     vdW  Elec       q    Type
REMARK                         _______ _______ _______ _____ _____    ______ ____
ROOT
ATOM      1  C   LIG A   1      -8.200   4.572 131.721  0.00  0.00    +0.151 C 
ATOM      2  C   LIG A   1      -7.472   3.664 130.686  0.00  0.00    +0.215 C 
ATOM      3  C   LIG A   1      -7.216   4.365 129.363  0.00  0.00    +0.053 C 
ATOM      4  C   LIG A   1      -8.519   4.881 128.757  0.00  0.00    +0.044 C 
ATOM      5  C   LIG A   1      -9.481   5.539 129.721  0.00  0.00    +0.019 A 
ATOM      6  C   LIG A   1      -9.360   5.377 131.109  0.00  0.00    +0.087 A 
ATOM      7  N   LIG A   1     -10.221   5.917 132.008  0.00  0.00    -0.213 NA
ATOM      8  C   LIG A   1     -11.260   6.574 131.481  0.00  0.00    +0.231 A 
ATOM      9  O   LIG A   1     -12.243   7.112 132.255  0.00  0.00    -0.445 OA
ATOM     10  C   LIG A   1     -13.156   7.660 131.419  0.00  0.00    +0.198 A 
ATOM     11  C   LIG A   1     -12.770   7.493 130.111  0.00  0.00    +0.055 A 
ATOM     12  C   LIG A   1     -11.526   6.796 130.133  0.00  0.00    +0.082 A 
ATOM     13  C   LIG A   1     -10.579   6.283 129.219  0.00  0.00    +0.137 A 
ENDROOT
BRANCH   1  14
ATOM     14  O   LIG A   1      -8.686   3.723 132.813  0.00  0.00    -0.366 OA
ATOM     15  C   LIG A   1      -9.319   2.501 132.436  0.00  0.00    +0.195 C 
ENDBRANCH   1  14
BRANCH  13  16
ATOM     16  O   LIG A   1     -10.676   6.349 127.837  0.00  0.00    -0.494 OA
ATOM     17  C   LIG A   1     -10.610   7.656 127.278  0.00  0.00    +0.277 C 
ENDBRANCH  13  16
BRANCH   1  18
ATOM     18  C   LIG A   1      -7.227   5.594 132.422  0.00  0.00    +0.072 C 
BRANCH  18  22
ATOM     19  C   LIG A   1      -4.619   7.843 130.497  0.00  0.00    +0.038 C 
ATOM     20  C   LIG A   1      -5.148   6.734 131.377  0.00  0.00    -0.080 C 
ATOM     21  C   LIG A   1      -4.083   5.868 131.990  0.00  0.00    +0.038 C 
ATOM     22  C   LIG A   1      -6.479   6.592 131.553  0.00  0.00    -0.025 C 
ENDBRANCH  18  22
ENDBRANCH   1  18
BRANCH   2  23
ATOM     23  O   LIG A   1      -6.207   3.206 131.225  0.00  0.00    -0.458 OA
BRANCH  23  24
ATOM     24  C   LIG A   1      -5.622   2.145 130.609  0.00  0.00    +0.304 C 
ATOM     25  C   LIG A   1      -4.173   2.434 130.302  0.00  0.00    +0.136 C 
ATOM     26  O   LIG A   1      -6.169   1.061 130.356  0.00  0.00    -0.251 OA
ENDBRANCH  23  24
ENDBRANCH   2  23
TORSDOF 6
ENDMDL
