MODEL 1
REMARK VINA RESULT:      -7.1      0.000      0.000
REMARK  Name = NuBBE_1443
REMARK  13 active torsions:
REMARK  status: ('A' for Active; 'I' for Inactive)
REMARK    1  A    between atoms: C_3  and  O_4
REMARK    2  A    between atoms: O_4  and  C_5
REMARK    3  A    between atoms: C_6  and  C_20
REMARK    4  A    between atoms: C_10  and  O_11
REMARK    5  A    between atoms: O_11  and  C_12
REMARK    6  A    between atoms: C_14  and  O_15
REMARK    7  A    between atoms: O_15  and  C_16
REMARK    8  A    between atoms: C_17  and  O_18
REMARK    9  A    between atoms: O_18  and  C_19
REMARK   10  A    between atoms: C_23  and  O_28
REMARK   11  A    between atoms: C_24  and  O_25
REMARK   12  A    between atoms: O_25  and  C_26
REMARK   13  A    between atoms: O_28  and  C_29
REMARK                            x       y       z     vdW  Elec       q    Type
REMARK                         _______ _______ _______ _____ _____    ______ ____
ROOT
ATOM      1  O   LIG A   1      -8.624   3.118 127.545  0.00  0.00    -0.283 OA
ATOM      2  C   LIG A   1      -8.020   2.502 126.585  0.00  0.00    +0.238 A 
ATOM      3  C   LIG A   1      -7.400   3.255 125.492  0.00  0.00    +0.211 A 
ATOM      4  C   LIG A   1      -7.700   2.626 124.277  0.00  0.00    +0.181 A 
ATOM      5  O   LIG A   1      -8.401   1.417 124.220  0.00  0.00    -0.447 OA
ATOM      6  C   LIG A   1      -8.223   0.505 125.232  0.00  0.00    +0.188 A 
ATOM      7  C   LIG A   1      -7.945   1.048 126.537  0.00  0.00    +0.113 A 
ATOM      8  C   LIG A   1      -7.678   0.204 127.589  0.00  0.00    +0.138 A 
ATOM      9  C   LIG A   1      -7.798  -1.159 127.381  0.00  0.00    +0.096 A 
ATOM     10  C   LIG A   1      -8.121  -1.710 126.110  0.00  0.00    +0.169 A 
ATOM     11  C   LIG A   1      -8.314  -0.897 124.963  0.00  0.00    +0.205 A 
ENDROOT
BRANCH   4  12
ATOM     12  C   LIG A   1      -7.391   3.075 122.917  0.00  0.00    +0.025 A 
ATOM     13  C   LIG A   1      -6.073   3.323 122.532  0.00  0.00    +0.015 A 
ATOM     14  C   LIG A   1      -5.795   3.782 121.250  0.00  0.00    +0.050 A 
ATOM     15  C   LIG A   1      -6.814   4.056 120.302  0.00  0.00    +0.162 A 
ATOM     16  C   LIG A   1      -8.138   3.753 120.655  0.00  0.00    +0.162 A 
ATOM     17  C   LIG A   1      -8.343   3.135 121.900  0.00  0.00    +0.061 A 
BRANCH  16  18
ATOM     18  O   LIG A   1      -9.378   3.945 120.096  0.00  0.00    -0.491 OA
ATOM     19  C   LIG A   1      -9.532   4.339 118.762  0.00  0.00    +0.277 C 
ENDBRANCH  16  18
BRANCH  15  20
ATOM     20  O   LIG A   1      -6.264   4.587 119.161  0.00  0.00    -0.491 OA
ATOM     21  C   LIG A   1      -5.525   5.776 119.306  0.00  0.00    +0.277 C 
ENDBRANCH  15  20
ENDBRANCH   4  12
BRANCH   3  22
ATOM     22  O   LIG A   1      -6.782   4.437 125.826  0.00  0.00    -0.488 OA
ATOM     23  C   LIG A   1      -5.356   4.463 126.100  0.00  0.00    +0.277 C 
ENDBRANCH   3  22
BRANCH   8  24
ATOM     24  O   LIG A   1      -7.299   0.518 128.872  0.00  0.00    -0.494 OA
ATOM     25  C   LIG A   1      -7.613  -0.438 129.872  0.00  0.00    +0.277 C 
ENDBRANCH   8  24
BRANCH  10  26
ATOM     26  O   LIG A   1      -8.173  -3.085 126.304  0.00  0.00    -0.491 OA
ATOM     27  C   LIG A   1      -8.566  -3.313 127.601  0.00  0.00    +0.277 C 
ENDBRANCH  10  26
BRANCH  11  28
ATOM     28  O   LIG A   1      -8.698  -1.230 123.657  0.00  0.00    -0.488 OA
ATOM     29  C   LIG A   1      -9.234  -2.477 123.128  0.00  0.00    +0.277 C 
ENDBRANCH  11  28
TORSDOF 7
ENDMDL
MODEL 2
REMARK VINA RESULT:      -7.0      2.086      7.970
REMARK  Name = NuBBE_1443
REMARK  13 active torsions:
REMARK  status: ('A' for Active; 'I' for Inactive)
REMARK    1  A    between atoms: C_3  and  O_4
REMARK    2  A    between atoms: O_4  and  C_5
REMARK    3  A    between atoms: C_6  and  C_20
REMARK    4  A    between atoms: C_10  and  O_11
REMARK    5  A    between atoms: O_11  and  C_12
REMARK    6  A    between atoms: C_14  and  O_15
REMARK    7  A    between atoms: O_15  and  C_16
REMARK    8  A    between atoms: C_17  and  O_18
REMARK    9  A    between atoms: O_18  and  C_19
REMARK   10  A    between atoms: C_23  and  O_28
REMARK   11  A    between atoms: C_24  and  O_25
REMARK   12  A    between atoms: O_25  and  C_26
REMARK   13  A    between atoms: O_28  and  C_29
REMARK                            x       y       z     vdW  Elec       q    Type
REMARK                         _______ _______ _______ _____ _____    ______ ____
ROOT
ATOM      1  O   LIG A   1     -10.488   1.332 124.434  0.00  0.00    -0.283 OA
ATOM      2  C   LIG A   1      -9.239   1.037 124.564  0.00  0.00    +0.238 A 
ATOM      3  C   LIG A   1      -8.832  -0.210 125.216  0.00  0.00    +0.211 A 
ATOM      4  C   LIG A   1      -7.762   0.055 126.079  0.00  0.00    +0.181 A 
ATOM      5  O   LIG A   1      -7.173   1.320 126.165  0.00  0.00    -0.447 OA
ATOM      6  C   LIG A   1      -7.114   2.097 125.033  0.00  0.00    +0.188 A 
ATOM      7  C   LIG A   1      -8.190   1.931 124.091  0.00  0.00    +0.113 A 
ATOM      8  C   LIG A   1      -8.168   2.613 122.897  0.00  0.00    +0.138 A 
ATOM      9  C   LIG A   1      -7.157   3.533 122.688  0.00  0.00    +0.096 A 
ATOM     10  C   LIG A   1      -6.113   3.746 123.631  0.00  0.00    +0.169 A 
ATOM     11  C   LIG A   1      -6.026   3.005 124.838  0.00  0.00    +0.205 A 
ENDROOT
BRANCH   4  12
ATOM     12  C   LIG A   1      -7.102  -0.856 127.018  0.00  0.00    +0.025 A 
ATOM     13  C   LIG A   1      -5.734  -0.748 127.271  0.00  0.00    +0.015 A 
ATOM     14  C   LIG A   1      -5.111  -1.638 128.138  0.00  0.00    +0.050 A 
ATOM     15  C   LIG A   1      -5.808  -2.703 128.764  0.00  0.00    +0.162 A 
ATOM     16  C   LIG A   1      -7.194  -2.786 128.567  0.00  0.00    +0.162 A 
ATOM     17  C   LIG A   1      -7.797  -1.763 127.817  0.00  0.00    +0.061 A 
BRANCH  16  18
ATOM     18  O   LIG A   1      -8.187  -3.678 128.895  0.00  0.00    -0.491 OA
ATOM     19  C   LIG A   1      -9.161  -4.069 127.970  0.00  0.00    +0.277 C 
ENDBRANCH  16  18
BRANCH  15  20
ATOM     20  O   LIG A   1      -4.932  -3.478 129.483  0.00  0.00    -0.491 OA
ATOM     21  C   LIG A   1      -3.583  -3.450 129.084  0.00  0.00    +0.277 C 
ENDBRANCH  15  20
ENDBRANCH   4  12
BRANCH   3  22
ATOM     22  O   LIG A   1      -9.607  -1.319 124.971  0.00  0.00    -0.488 OA
ATOM     23  C   LIG A   1      -9.043  -2.468 124.285  0.00  0.00    +0.277 C 
ENDBRANCH   3  22
BRANCH   8  24
ATOM     24  O   LIG A   1      -9.037   2.521 121.835  0.00  0.00    -0.494 OA
ATOM     25  C   LIG A   1      -8.921   3.526 120.840  0.00  0.00    +0.277 C 
ENDBRANCH   8  24
BRANCH  10  26
ATOM     26  O   LIG A   1      -5.318   4.746 123.085  0.00  0.00    -0.491 OA
ATOM     27  C   LIG A   1      -5.101   4.438 121.764  0.00  0.00    +0.277 C 
ENDBRANCH  10  26
BRANCH  11  28
ATOM     28  O   LIG A   1      -5.133   3.106 125.914  0.00  0.00    -0.488 OA
ATOM     29  C   LIG A   1      -4.876   4.221 126.815  0.00  0.00    +0.277 C 
ENDBRANCH  11  28
TORSDOF 7
ENDMDL
MODEL 3
REMARK VINA RESULT:      -7.0      2.511      8.506
REMARK  Name = NuBBE_1443
REMARK  13 active torsions:
REMARK  status: ('A' for Active; 'I' for Inactive)
REMARK    1  A    between atoms: C_3  and  O_4
REMARK    2  A    between atoms: O_4  and  C_5
REMARK    3  A    between atoms: C_6  and  C_20
REMARK    4  A    between atoms: C_10  and  O_11
REMARK    5  A    between atoms: O_11  and  C_12
REMARK    6  A    between atoms: C_14  and  O_15
REMARK    7  A    between atoms: O_15  and  C_16
REMARK    8  A    between atoms: C_17  and  O_18
REMARK    9  A    between atoms: O_18  and  C_19
REMARK   10  A    between atoms: C_23  and  O_28
REMARK   11  A    between atoms: C_24  and  O_25
REMARK   12  A    between atoms: O_25  and  C_26
REMARK   13  A    between atoms: O_28  and  C_29
REMARK                            x       y       z     vdW  Elec       q    Type
REMARK                         _______ _______ _______ _____ _____    ______ ____
ROOT
ATOM      1  O   LIG A   1     -10.478   0.499 125.112  0.00  0.00    -0.283 OA
ATOM      2  C   LIG A   1      -9.244   0.208 125.352  0.00  0.00    +0.238 A 
ATOM      3  C   LIG A   1      -8.887  -1.079 125.953  0.00  0.00    +0.211 A 
ATOM      4  C   LIG A   1      -7.918  -0.868 126.942  0.00  0.00    +0.181 A 
ATOM      5  O   LIG A   1      -7.363   0.394 127.181  0.00  0.00    -0.447 OA
ATOM      6  C   LIG A   1      -7.199   1.252 126.119  0.00  0.00    +0.188 A 
ATOM      7  C   LIG A   1      -8.167   1.144 125.058  0.00  0.00    +0.113 A 
ATOM      8  C   LIG A   1      -8.032   1.912 123.926  0.00  0.00    +0.138 A 
ATOM      9  C   LIG A   1      -7.020   2.854 123.891  0.00  0.00    +0.096 A 
ATOM     10  C   LIG A   1      -6.085   3.008 124.952  0.00  0.00    +0.169 A 
ATOM     11  C   LIG A   1      -6.113   2.182 126.106  0.00  0.00    +0.205 A 
ENDROOT
BRANCH   4  12
ATOM     12  C   LIG A   1      -7.344  -1.837 127.879  0.00  0.00    +0.025 A 
ATOM     13  C   LIG A   1      -8.171  -2.672 128.632  0.00  0.00    +0.015 A 
ATOM     14  C   LIG A   1      -7.617  -3.565 129.543  0.00  0.00    +0.050 A 
ATOM     15  C   LIG A   1      -6.221  -3.643 129.779  0.00  0.00    +0.162 A 
ATOM     16  C   LIG A   1      -5.375  -2.855 128.985  0.00  0.00    +0.162 A 
ATOM     17  C   LIG A   1      -5.977  -2.096 127.966  0.00  0.00    +0.061 A 
BRANCH  16  18
ATOM     18  O   LIG A   1      -4.032  -2.570 128.953  0.00  0.00    -0.491 OA
ATOM     19  C   LIG A   1      -3.063  -3.562 129.142  0.00  0.00    +0.277 C 
ENDBRANCH  16  18
BRANCH  15  20
ATOM     20  O   LIG A   1      -5.966  -4.535 130.792  0.00  0.00    -0.491 OA
ATOM     21  C   LIG A   1      -5.501  -3.999 132.007  0.00  0.00    +0.277 C 
ENDBRANCH  15  20
ENDBRANCH   4  12
BRANCH   3  22
ATOM     22  O   LIG A   1      -9.613  -2.175 125.549  0.00  0.00    -0.488 OA
ATOM     23  C   LIG A   1      -9.163  -2.973 124.423  0.00  0.00    +0.277 C 
ENDBRANCH   3  22
BRANCH   8  24
ATOM     24  O   LIG A   1      -8.782   1.888 122.774  0.00  0.00    -0.494 OA
ATOM     25  C   LIG A   1      -8.723   3.052 121.963  0.00  0.00    +0.277 C 
ENDBRANCH   8  24
BRANCH  10  26
ATOM     26  O   LIG A   1      -5.254   4.053 124.567  0.00  0.00    -0.491 OA
ATOM     27  C   LIG A   1      -5.461   4.284 123.228  0.00  0.00    +0.277 C 
ENDBRANCH  10  26
BRANCH  11  28
ATOM     28  O   LIG A   1      -5.340   2.213 127.275  0.00  0.00    -0.488 OA
ATOM     29  C   LIG A   1      -3.963   2.646 127.476  0.00  0.00    +0.277 C 
ENDBRANCH  11  28
TORSDOF 7
ENDMDL
MODEL 4
REMARK VINA RESULT:      -6.8      2.937      5.773
REMARK  Name = NuBBE_1443
REMARK  13 active torsions:
REMARK  status: ('A' for Active; 'I' for Inactive)
REMARK    1  A    between atoms: C_3  and  O_4
REMARK    2  A    between atoms: O_4  and  C_5
REMARK    3  A    between atoms: C_6  and  C_20
REMARK    4  A    between atoms: C_10  and  O_11
REMARK    5  A    between atoms: O_11  and  C_12
REMARK    6  A    between atoms: C_14  and  O_15
REMARK    7  A    between atoms: O_15  and  C_16
REMARK    8  A    between atoms: C_17  and  O_18
REMARK    9  A    between atoms: O_18  and  C_19
REMARK   10  A    between atoms: C_23  and  O_28
REMARK   11  A    between atoms: C_24  and  O_25
REMARK   12  A    between atoms: O_25  and  C_26
REMARK   13  A    between atoms: O_28  and  C_29
REMARK                            x       y       z     vdW  Elec       q    Type
REMARK                         _______ _______ _______ _____ _____    ______ ____
ROOT
ATOM      1  O   LIG A   1      -6.897  -0.180 123.239  0.00  0.00    -0.283 OA
ATOM      2  C   LIG A   1      -6.853   0.198 124.472  0.00  0.00    +0.238 A 
ATOM      3  C   LIG A   1      -6.412   1.550 124.820  0.00  0.00    +0.211 A 
ATOM      4  C   LIG A   1      -5.553   1.480 125.924  0.00  0.00    +0.181 A 
ATOM      5  O   LIG A   1      -5.293   0.276 126.587  0.00  0.00    -0.447 OA
ATOM      6  C   LIG A   1      -6.294  -0.662 126.665  0.00  0.00    +0.188 A 
ATOM      7  C   LIG A   1      -7.217  -0.701 125.559  0.00  0.00    +0.113 A 
ATOM      8  C   LIG A   1      -8.293  -1.556 125.593  0.00  0.00    +0.138 A 
ATOM      9  C   LIG A   1      -8.391  -2.442 126.652  0.00  0.00    +0.096 A 
ATOM     10  C   LIG A   1      -7.460  -2.451 127.727  0.00  0.00    +0.169 A 
ATOM     11  C   LIG A   1      -6.383  -1.529 127.798  0.00  0.00    +0.205 A 
ENDROOT
BRANCH   4  12
ATOM     12  C   LIG A   1      -4.785   2.558 126.551  0.00  0.00    +0.025 A 
ATOM     13  C   LIG A   1      -3.400   2.628 126.395  0.00  0.00    +0.015 A 
ATOM     14  C   LIG A   1      -2.677   3.636 127.023  0.00  0.00    +0.050 A 
ATOM     15  C   LIG A   1      -3.287   4.597 127.868  0.00  0.00    +0.162 A 
ATOM     16  C   LIG A   1      -4.685   4.576 127.984  0.00  0.00    +0.162 A 
ATOM     17  C   LIG A   1      -5.379   3.642 127.197  0.00  0.00    +0.061 A 
BRANCH  16  18
ATOM     18  O   LIG A   1      -5.624   5.236 128.740  0.00  0.00    -0.491 OA
ATOM     19  C   LIG A   1      -6.704   4.565 129.323  0.00  0.00    +0.277 C 
ENDBRANCH  16  18
BRANCH  15  20
ATOM     20  O   LIG A   1      -2.329   5.406 128.428  0.00  0.00    -0.491 OA
ATOM     21  C   LIG A   1      -2.466   6.791 128.220  0.00  0.00    +0.277 C 
ENDBRANCH  15  20
ENDBRANCH   4  12
BRANCH   3  22
ATOM     22  O   LIG A   1      -6.799   2.565 123.977  0.00  0.00    -0.488 OA
ATOM     23  C   LIG A   1      -8.127   3.141 124.088  0.00  0.00    +0.277 C 
ENDBRANCH   3  22
BRANCH   8  24
ATOM     24  O   LIG A   1      -9.328  -1.675 124.697  0.00  0.00    -0.494 OA
ATOM     25  C   LIG A   1      -9.313  -2.828 123.869  0.00  0.00    +0.277 C 
ENDBRANCH   8  24
BRANCH  10  26
ATOM     26  O   LIG A   1      -7.871  -3.479 128.566  0.00  0.00    -0.491 OA
ATOM     27  C   LIG A   1      -8.999  -4.042 128.020  0.00  0.00    +0.277 C 
ENDBRANCH  10  26
BRANCH  11  28
ATOM     28  O   LIG A   1      -5.333  -1.415 128.720  0.00  0.00    -0.488 OA
ATOM     29  C   LIG A   1      -4.388  -2.419 129.191  0.00  0.00    +0.277 C 
ENDBRANCH  11  28
TORSDOF 7
ENDMDL
MODEL 5
REMARK VINA RESULT:      -6.7      3.738      5.940
REMARK  Name = NuBBE_1443
REMARK  13 active torsions:
REMARK  status: ('A' for Active; 'I' for Inactive)
REMARK    1  A    between atoms: C_3  and  O_4
REMARK    2  A    between atoms: O_4  and  C_5
REMARK    3  A    between atoms: C_6  and  C_20
REMARK    4  A    between atoms: C_10  and  O_11
REMARK    5  A    between atoms: O_11  and  C_12
REMARK    6  A    between atoms: C_14  and  O_15
REMARK    7  A    between atoms: O_15  and  C_16
REMARK    8  A    between atoms: C_17  and  O_18
REMARK    9  A    between atoms: O_18  and  C_19
REMARK   10  A    between atoms: C_23  and  O_28
REMARK   11  A    between atoms: C_24  and  O_25
REMARK   12  A    between atoms: O_25  and  C_26
REMARK   13  A    between atoms: O_28  and  C_29
REMARK                            x       y       z     vdW  Elec       q    Type
REMARK                         _______ _______ _______ _____ _____    ______ ____
ROOT
ATOM      1  O   LIG A   1      -6.480   3.280 130.853  0.00  0.00    -0.283 OA
ATOM      2  C   LIG A   1      -7.284   3.421 129.852  0.00  0.00    +0.238 A 
ATOM      3  C   LIG A   1      -6.933   2.883 128.536  0.00  0.00    +0.211 A 
ATOM      4  C   LIG A   1      -7.255   3.830 127.556  0.00  0.00    +0.181 A 
ATOM      5  O   LIG A   1      -7.898   5.032 127.867  0.00  0.00    -0.447 OA
ATOM      6  C   LIG A   1      -8.806   5.044 128.900  0.00  0.00    +0.188 A 
ATOM      7  C   LIG A   1      -8.549   4.130 129.983  0.00  0.00    +0.113 A 
ATOM      8  C   LIG A   1      -9.448   4.024 131.018  0.00  0.00    +0.138 A 
ATOM      9  C   LIG A   1     -10.526   4.890 131.040  0.00  0.00    +0.096 A 
ATOM     10  C   LIG A   1     -10.767   5.833 130.003  0.00  0.00    +0.169 A 
ATOM     11  C   LIG A   1      -9.930   5.927 128.861  0.00  0.00    +0.205 A 
ENDROOT
BRANCH   4  12
ATOM     12  C   LIG A   1      -6.984   3.781 126.117  0.00  0.00    +0.025 A 
ATOM     13  C   LIG A   1      -5.734   4.148 125.616  0.00  0.00    +0.015 A 
ATOM     14  C   LIG A   1      -5.499   4.129 124.246  0.00  0.00    +0.050 A 
ATOM     15  C   LIG A   1      -6.503   3.787 123.305  0.00  0.00    +0.162 A 
ATOM     16  C   LIG A   1      -7.744   3.357 123.798  0.00  0.00    +0.162 A 
ATOM     17  C   LIG A   1      -7.873   3.234 125.192  0.00  0.00    +0.061 A 
BRANCH  16  18
ATOM     18  O   LIG A   1      -8.966   3.040 123.256  0.00  0.00    -0.491 OA
ATOM     19  C   LIG A   1      -9.331   1.717 122.984  0.00  0.00    +0.277 C 
ENDBRANCH  16  18
BRANCH  15  20
ATOM     20  O   LIG A   1      -6.025   3.948 122.028  0.00  0.00    -0.491 OA
ATOM     21  C   LIG A   1      -4.768   4.565 121.894  0.00  0.00    +0.277 C 
ENDBRANCH  15  20
ENDBRANCH   4  12
BRANCH   3  22
ATOM     22  O   LIG A   1      -6.279   1.674 128.514  0.00  0.00    -0.488 OA
ATOM     23  C   LIG A   1      -4.857   1.618 128.227  0.00  0.00    +0.277 C 
ENDBRANCH   3  22
BRANCH   8  24
ATOM     24  O   LIG A   1      -9.438   3.154 132.083  0.00  0.00    -0.494 OA
ATOM     25  C   LIG A   1      -9.176   3.724 133.356  0.00  0.00    +0.277 C 
ENDBRANCH   8  24
BRANCH  10  26
ATOM     26  O   LIG A   1     -11.908   6.526 130.388  0.00  0.00    -0.491 OA
ATOM     27  C   LIG A   1     -11.931   6.570 131.761  0.00  0.00    +0.277 C 
ENDBRANCH  10  26
BRANCH  11  28
ATOM     28  O   LIG A   1      -9.952   6.817 127.778  0.00  0.00    -0.488 OA
ATOM     29  C   LIG A   1     -10.755   8.014 127.567  0.00  0.00    +0.277 C 
ENDBRANCH  11  28
TORSDOF 7
ENDMDL
MODEL 6
REMARK VINA RESULT:      -6.7      2.280      8.487
REMARK  Name = NuBBE_1443
REMARK  13 active torsions:
REMARK  status: ('A' for Active; 'I' for Inactive)
REMARK    1  A    between atoms: C_3  and  O_4
REMARK    2  A    between atoms: O_4  and  C_5
REMARK    3  A    between atoms: C_6  and  C_20
REMARK    4  A    between atoms: C_10  and  O_11
REMARK    5  A    between atoms: O_11  and  C_12
REMARK    6  A    between atoms: C_14  and  O_15
REMARK    7  A    between atoms: O_15  and  C_16
REMARK    8  A    between atoms: C_17  and  O_18
REMARK    9  A    between atoms: O_18  and  C_19
REMARK   10  A    between atoms: C_23  and  O_28
REMARK   11  A    between atoms: C_24  and  O_25
REMARK   12  A    between atoms: O_25  and  C_26
REMARK   13  A    between atoms: O_28  and  C_29
REMARK                            x       y       z     vdW  Elec       q    Type
REMARK                         _______ _______ _______ _____ _____    ______ ____
ROOT
ATOM      1  O   LIG A   1      -9.758  -0.404 123.627  0.00  0.00    -0.283 OA
ATOM      2  C   LIG A   1      -8.795  -0.207 124.464  0.00  0.00    +0.238 A 
ATOM      3  C   LIG A   1      -8.127  -1.340 125.109  0.00  0.00    +0.211 A 
ATOM      4  C   LIG A   1      -7.941  -1.048 126.466  0.00  0.00    +0.181 A 
ATOM      5  O   LIG A   1      -8.280   0.194 127.012  0.00  0.00    -0.447 OA
ATOM      6  C   LIG A   1      -8.143   1.316 126.229  0.00  0.00    +0.188 A 
ATOM      7  C   LIG A   1      -8.350   1.135 124.815  0.00  0.00    +0.113 A 
ATOM      8  C   LIG A   1      -8.157   2.188 123.953  0.00  0.00    +0.138 A 
ATOM      9  C   LIG A   1      -7.875   3.431 124.492  0.00  0.00    +0.096 A 
ATOM     10  C   LIG A   1      -7.716   3.637 125.890  0.00  0.00    +0.169 A 
ATOM     11  C   LIG A   1      -7.809   2.572 126.824  0.00  0.00    +0.205 A 
ENDROOT
BRANCH   4  12
ATOM     12  C   LIG A   1      -7.420  -1.919 127.523  0.00  0.00    +0.025 A 
ATOM     13  C   LIG A   1      -8.278  -2.738 128.257  0.00  0.00    +0.015 A 
ATOM     14  C   LIG A   1      -7.778  -3.536 129.280  0.00  0.00    +0.050 A 
ATOM     15  C   LIG A   1      -6.409  -3.527 129.650  0.00  0.00    +0.162 A 
ATOM     16  C   LIG A   1      -5.525  -2.756 128.882  0.00  0.00    +0.162 A 
ATOM     17  C   LIG A   1      -6.058  -2.102 127.757  0.00  0.00    +0.061 A 
BRANCH  16  18
ATOM     18  O   LIG A   1      -4.199  -2.406 128.954  0.00  0.00    -0.491 OA
ATOM     19  C   LIG A   1      -3.211  -3.333 129.305  0.00  0.00    +0.277 C 
ENDBRANCH  16  18
BRANCH  15  20
ATOM     20  O   LIG A   1      -6.216  -4.330 130.748  0.00  0.00    -0.491 OA
ATOM     21  C   LIG A   1      -5.940  -3.685 131.967  0.00  0.00    +0.277 C 
ENDBRANCH  15  20
ENDBRANCH   4  12
BRANCH   3  22
ATOM     22  O   LIG A   1      -7.929  -2.463 124.340  0.00  0.00    -0.488 OA
ATOM     23  C   LIG A   1      -8.747  -3.644 124.549  0.00  0.00    +0.277 C 
ENDBRANCH   3  22
BRANCH   8  24
ATOM     24  O   LIG A   1      -8.206   2.198 122.580  0.00  0.00    -0.494 OA
ATOM     25  C   LIG A   1      -7.651   3.337 121.940  0.00  0.00    +0.277 C 
ENDBRANCH   8  24
BRANCH  10  26
ATOM     26  O   LIG A   1      -7.470   4.996 126.040  0.00  0.00    -0.491 OA
ATOM     27  C   LIG A   1      -6.438   5.333 125.197  0.00  0.00    +0.277 C 
ENDBRANCH  10  26
BRANCH  11  28
ATOM     28  O   LIG A   1      -7.753   2.574 128.225  0.00  0.00    -0.488 OA
ATOM     29  C   LIG A   1      -8.376   3.475 129.185  0.00  0.00    +0.277 C 
ENDBRANCH  11  28
TORSDOF 7
ENDMDL
MODEL 7
REMARK VINA RESULT:      -6.6      4.676      7.315
REMARK  Name = NuBBE_1443
REMARK  13 active torsions:
REMARK  status: ('A' for Active; 'I' for Inactive)
REMARK    1  A    between atoms: C_3  and  O_4
REMARK    2  A    between atoms: O_4  and  C_5
REMARK    3  A    between atoms: C_6  and  C_20
REMARK    4  A    between atoms: C_10  and  O_11
REMARK    5  A    between atoms: O_11  and  C_12
REMARK    6  A    between atoms: C_14  and  O_15
REMARK    7  A    between atoms: O_15  and  C_16
REMARK    8  A    between atoms: C_17  and  O_18
REMARK    9  A    between atoms: O_18  and  C_19
REMARK   10  A    between atoms: C_23  and  O_28
REMARK   11  A    between atoms: C_24  and  O_25
REMARK   12  A    between atoms: O_25  and  C_26
REMARK   13  A    between atoms: O_28  and  C_29
REMARK                            x       y       z     vdW  Elec       q    Type
REMARK                         _______ _______ _______ _____ _____    ______ ____
ROOT
ATOM      1  O   LIG A   1      -6.507   6.341 131.184  0.00  0.00    -0.283 OA
ATOM      2  C   LIG A   1      -7.419   5.600 130.650  0.00  0.00    +0.238 A 
ATOM      3  C   LIG A   1      -7.060   4.563 129.680  0.00  0.00    +0.211 A 
ATOM      4  C   LIG A   1      -7.971   4.597 128.617  0.00  0.00    +0.181 A 
ATOM      5  O   LIG A   1      -9.077   5.454 128.615  0.00  0.00    -0.447 OA
ATOM      6  C   LIG A   1      -9.685   5.746 129.812  0.00  0.00    +0.188 A 
ATOM      7  C   LIG A   1      -8.829   5.773 130.970  0.00  0.00    +0.113 A 
ATOM      8  C   LIG A   1      -9.369   5.982 132.218  0.00  0.00    +0.138 A 
ATOM      9  C   LIG A   1     -10.719   6.274 132.305  0.00  0.00    +0.096 A 
ATOM     10  C   LIG A   1     -11.568   6.300 131.165  0.00  0.00    +0.169 A 
ATOM     11  C   LIG A   1     -11.091   6.000 129.863  0.00  0.00    +0.205 A 
ENDROOT
BRANCH   4  12
ATOM     12  C   LIG A   1      -7.947   3.828 127.371  0.00  0.00    +0.025 A 
ATOM     13  C   LIG A   1      -7.777   4.468 126.143  0.00  0.00    +0.015 A 
ATOM     14  C   LIG A   1      -7.790   3.732 124.964  0.00  0.00    +0.050 A 
ATOM     15  C   LIG A   1      -8.013   2.332 124.943  0.00  0.00    +0.162 A 
ATOM     16  C   LIG A   1      -8.124   1.666 126.174  0.00  0.00    +0.162 A 
ATOM     17  C   LIG A   1      -7.936   2.434 127.336  0.00  0.00    +0.061 A 
BRANCH  16  18
ATOM     18  O   LIG A   1      -8.427   0.391 126.583  0.00  0.00    -0.491 OA
ATOM     19  C   LIG A   1      -7.439  -0.497 127.022  0.00  0.00    +0.277 C 
ENDBRANCH  16  18
BRANCH  15  20
ATOM     20  O   LIG A   1      -8.071   1.884 123.646  0.00  0.00    -0.491 OA
ATOM     21  C   LIG A   1      -7.270   2.557 122.706  0.00  0.00    +0.277 C 
ENDBRANCH  15  20
ENDBRANCH   4  12
BRANCH   3  22
ATOM     22  O   LIG A   1      -5.895   3.871 129.914  0.00  0.00    -0.488 OA
ATOM     23  C   LIG A   1      -4.710   4.147 129.122  0.00  0.00    +0.277 C 
ENDBRANCH   3  22
BRANCH   8  24
ATOM     24  O   LIG A   1      -8.748   5.947 133.443  0.00  0.00    -0.494 OA
ATOM     25  C   LIG A   1      -8.472   4.659 133.971  0.00  0.00    +0.277 C 
ENDBRANCH   8  24
BRANCH  10  26
ATOM     26  O   LIG A   1     -12.824   6.650 131.646  0.00  0.00    -0.491 OA
ATOM     27  C   LIG A   1     -12.919   8.020 131.618  0.00  0.00    +0.277 C 
ENDBRANCH  10  26
BRANCH  11  28
ATOM     28  O   LIG A   1     -11.736   6.035 128.619  0.00  0.00    -0.488 OA
ATOM     29  C   LIG A   1     -12.676   7.009 128.079  0.00  0.00    +0.277 C 
ENDBRANCH  11  28
TORSDOF 7
ENDMDL
MODEL 8
REMARK VINA RESULT:      -6.5      2.839      7.657
REMARK  Name = NuBBE_1443
REMARK  13 active torsions:
REMARK  status: ('A' for Active; 'I' for Inactive)
REMARK    1  A    between atoms: C_3  and  O_4
REMARK    2  A    between atoms: O_4  and  C_5
REMARK    3  A    between atoms: C_6  and  C_20
REMARK    4  A    between atoms: C_10  and  O_11
REMARK    5  A    between atoms: O_11  and  C_12
REMARK    6  A    between atoms: C_14  and  O_15
REMARK    7  A    between atoms: O_15  and  C_16
REMARK    8  A    between atoms: C_17  and  O_18
REMARK    9  A    between atoms: O_18  and  C_19
REMARK   10  A    between atoms: C_23  and  O_28
REMARK   11  A    between atoms: C_24  and  O_25
REMARK   12  A    between atoms: O_25  and  C_26
REMARK   13  A    between atoms: O_28  and  C_29
REMARK                            x       y       z     vdW  Elec       q    Type
REMARK                         _______ _______ _______ _____ _____    ______ ____
ROOT
ATOM      1  O   LIG A   1      -8.570  -1.505 126.317  0.00  0.00    -0.283 OA
ATOM      2  C   LIG A   1      -8.115  -0.318 126.541  0.00  0.00    +0.238 A 
ATOM      3  C   LIG A   1      -7.917   0.154 127.913  0.00  0.00    +0.211 A 
ATOM      4  C   LIG A   1      -8.384   1.471 128.015  0.00  0.00    +0.181 A 
ATOM      5  O   LIG A   1      -8.857   2.178 126.905  0.00  0.00    -0.447 OA
ATOM      6  C   LIG A   1      -8.286   1.937 125.678  0.00  0.00    +0.188 A 
ATOM      7  C   LIG A   1      -7.802   0.599 125.454  0.00  0.00    +0.113 A 
ATOM      8  C   LIG A   1      -7.148   0.293 124.284  0.00  0.00    +0.138 A 
ATOM      9  C   LIG A   1      -7.075   1.265 123.302  0.00  0.00    +0.096 A 
ATOM     10  C   LIG A   1      -7.591   2.577 123.489  0.00  0.00    +0.169 A 
ATOM     11  C   LIG A   1      -8.192   2.984 124.709  0.00  0.00    +0.205 A 
ENDROOT
BRANCH   4  12
ATOM     12  C   LIG A   1      -8.493   2.310 129.211  0.00  0.00    +0.025 A 
ATOM     13  C   LIG A   1      -8.710   1.736 130.464  0.00  0.00    +0.015 A 
ATOM     14  C   LIG A   1      -8.846   2.544 131.588  0.00  0.00    +0.050 A 
ATOM     15  C   LIG A   1      -8.815   3.960 131.515  0.00  0.00    +0.162 A 
ATOM     16  C   LIG A   1      -8.537   4.547 130.272  0.00  0.00    +0.162 A 
ATOM     17  C   LIG A   1      -8.242   3.681 129.206  0.00  0.00    +0.061 A 
BRANCH  16  18
ATOM     18  O   LIG A   1      -8.512   5.825 129.766  0.00  0.00    -0.491 OA
ATOM     19  C   LIG A   1      -9.532   6.744 130.035  0.00  0.00    +0.277 C 
ENDBRANCH  16  18
BRANCH  15  20
ATOM     20  O   LIG A   1      -9.072   4.499 132.752  0.00  0.00    -0.491 OA
ATOM     21  C   LIG A   1      -8.992   3.627 133.853  0.00  0.00    +0.277 C 
ENDBRANCH  15  20
ENDBRANCH   4  12
BRANCH   3  22
ATOM     22  O   LIG A   1      -7.452  -0.764 128.825  0.00  0.00    -0.488 OA
ATOM     23  C   LIG A   1      -6.025  -0.982 128.979  0.00  0.00    +0.277 C 
ENDBRANCH   3  22
BRANCH   8  24
ATOM     24  O   LIG A   1      -6.533  -0.882 123.921  0.00  0.00    -0.494 OA
ATOM     25  C   LIG A   1      -7.202  -1.666 122.946  0.00  0.00    +0.277 C 
ENDBRANCH   8  24
BRANCH  10  26
ATOM     26  O   LIG A   1      -7.355   3.243 122.293  0.00  0.00    -0.491 OA
ATOM     27  C   LIG A   1      -6.042   3.650 122.290  0.00  0.00    +0.277 C 
ENDBRANCH  10  26
BRANCH  11  28
ATOM     28  O   LIG A   1      -8.814   4.187 125.068  0.00  0.00    -0.488 OA
ATOM     29  C   LIG A   1      -8.305   5.308 125.847  0.00  0.00    +0.277 C 
ENDBRANCH  11  28
TORSDOF 7
ENDMDL
MODEL 9
REMARK VINA RESULT:      -6.4      4.107      6.943
REMARK  Name = NuBBE_1443
REMARK  13 active torsions:
REMARK  status: ('A' for Active; 'I' for Inactive)
REMARK    1  A    between atoms: C_3  and  O_4
REMARK    2  A    between atoms: O_4  and  C_5
REMARK    3  A    between atoms: C_6  and  C_20
REMARK    4  A    between atoms: C_10  and  O_11
REMARK    5  A    between atoms: O_11  and  C_12
REMARK    6  A    between atoms: C_14  and  O_15
REMARK    7  A    between atoms: O_15  and  C_16
REMARK    8  A    between atoms: C_17  and  O_18
REMARK    9  A    between atoms: O_18  and  C_19
REMARK   10  A    between atoms: C_23  and  O_28
REMARK   11  A    between atoms: C_24  and  O_25
REMARK   12  A    between atoms: O_25  and  C_26
REMARK   13  A    between atoms: O_28  and  C_29
REMARK                            x       y       z     vdW  Elec       q    Type
REMARK                         _______ _______ _______ _____ _____    ______ ____
ROOT
ATOM      1  O   LIG A   1      -6.357   4.279 131.415  0.00  0.00    -0.283 OA
ATOM      2  C   LIG A   1      -7.359   4.092 130.622  0.00  0.00    +0.238 A 
ATOM      3  C   LIG A   1      -7.347   2.992 129.655  0.00  0.00    +0.211 A 
ATOM      4  C   LIG A   1      -7.833   3.458 128.428  0.00  0.00    +0.181 A 
ATOM      5  O   LIG A   1      -8.323   4.758 128.269  0.00  0.00    -0.447 OA
ATOM      6  C   LIG A   1      -8.969   5.352 129.327  0.00  0.00    +0.188 A 
ATOM      7  C   LIG A   1      -8.522   4.969 130.641  0.00  0.00    +0.113 A 
ATOM      8  C   LIG A   1      -9.165   5.457 131.754  0.00  0.00    +0.138 A 
ATOM      9  C   LIG A   1     -10.162   6.398 131.573  0.00  0.00    +0.096 A 
ATOM     10  C   LIG A   1     -10.583   6.825 130.283  0.00  0.00    +0.169 A 
ATOM     11  C   LIG A   1     -10.024   6.289 129.093  0.00  0.00    +0.205 A 
ENDROOT
BRANCH   4  12
ATOM     12  C   LIG A   1      -7.900   2.752 127.146  0.00  0.00    +0.025 A 
ATOM     13  C   LIG A   1      -8.505   1.498 127.056  0.00  0.00    +0.015 A 
ATOM     14  C   LIG A   1      -8.533   0.821 125.842  0.00  0.00    +0.050 A 
ATOM     15  C   LIG A   1      -7.926   1.337 124.669  0.00  0.00    +0.162 A 
ATOM     16  C   LIG A   1      -7.369   2.623 124.730  0.00  0.00    +0.162 A 
ATOM     17  C   LIG A   1      -7.517   3.329 125.936  0.00  0.00    +0.061 A 
BRANCH  16  18
ATOM     18  O   LIG A   1      -6.631   3.421 123.889  0.00  0.00    -0.491 OA
ATOM     19  C   LIG A   1      -5.883   4.503 124.367  0.00  0.00    +0.277 C 
ENDBRANCH  16  18
BRANCH  15  20
ATOM     20  O   LIG A   1      -8.021   0.422 123.650  0.00  0.00    -0.491 OA
ATOM     21  C   LIG A   1      -6.982  -0.521 123.545  0.00  0.00    +0.277 C 
ENDBRANCH  15  20
ENDBRANCH   4  12
BRANCH   3  22
ATOM     22  O   LIG A   1      -6.781   1.809 130.069  0.00  0.00    -0.488 OA
ATOM     23  C   LIG A   1      -5.468   1.420 129.585  0.00  0.00    +0.277 C 
ENDBRANCH   3  22
BRANCH   8  24
ATOM     24  O   LIG A   1      -8.959   5.142 133.076  0.00  0.00    -0.494 OA
ATOM     25  C   LIG A   1      -9.310   3.825 133.471  0.00  0.00    +0.277 C 
ENDBRANCH   8  24
BRANCH  10  26
ATOM     26  O   LIG A   1     -11.567   7.778 130.509  0.00  0.00    -0.491 OA
ATOM     27  C   LIG A   1     -12.782   7.136 130.515  0.00  0.00    +0.277 C 
ENDBRANCH  10  26
BRANCH  11  28
ATOM     28  O   LIG A   1     -10.245   6.615 127.748  0.00  0.00    -0.488 OA
ATOM     29  C   LIG A   1     -10.906   7.774 127.162  0.00  0.00    +0.277 C 
ENDBRANCH  11  28
TORSDOF 7
ENDMDL
