MODEL 1
REMARK VINA RESULT:      -8.9      0.000      0.000
REMARK  Name = NuBBE_1230
REMARK  11 active torsions:
REMARK  status: ('A' for Active; 'I' for Inactive)
REMARK    1  A    between atoms: C_1  and  C_2
REMARK    2  A    between atoms: C_3  and  O_19
REMARK    3  A    between atoms: C_6  and  C_8
REMARK    4  A    between atoms: C_8  and  O_9
REMARK    5  A    between atoms: C_8  and  C_10
REMARK    6  A    between atoms: C_8  and  C_11
REMARK    7  A    between atoms: C_15  and  C_16
REMARK    8  A    between atoms: C_15  and  C_17
REMARK    9  A    between atoms: C_25  and  O_27
REMARK   10  A    between atoms: C_28  and  O_30
REMARK   11  A    between atoms: C_32  and  C_33
REMARK                            x       y       z     vdW  Elec       q    Type
REMARK                         _______ _______ _______ _____ _____    ______ ____
ROOT
ATOM      1  C   LIG A   1      -8.050   4.884 129.595  0.00  0.00    +0.014 C 
ATOM      2  C   LIG A   1      -8.855   4.378 130.818  0.00  0.00    +0.006 C 
ATOM      3  C   LIG A   1      -7.902   3.932 131.975  0.00  0.00    +0.093 C 
ATOM      4  C   LIG A   1      -8.771   4.106 133.232  0.00  0.00    +0.040 C 
ATOM      5  C   LIG A   1      -9.586   5.370 132.988  0.00  0.00    +0.010 C 
ATOM      6  C   LIG A   1      -9.676   5.565 131.453  0.00  0.00    +0.032 C 
ATOM      7  C   LIG A   1      -7.328   2.525 131.877  0.00  0.00    -0.031 C 
ATOM      8  C   LIG A   1      -6.544   2.053 132.870  0.00  0.00    +0.049 C 
ATOM      9  C   LIG A   1      -5.875   0.730 132.798  0.00  0.00    +0.160 C 
ATOM     10  C   LIG A   1      -5.969  -0.029 131.485  0.00  0.00    +0.069 C 
ATOM     11  C   LIG A   1      -5.555  -1.497 131.632  0.00  0.00    +0.045 C 
ATOM     12  C   LIG A   1      -5.576  -2.212 130.283  0.00  0.00    +0.144 C 
ATOM     13  C   LIG A   1      -6.915  -2.055 129.547  0.00  0.00    +0.144 C 
ATOM     14  C   LIG A   1      -7.380  -0.598 129.479  0.00  0.00    +0.042 C 
ATOM     15  C   LIG A   1      -7.373   0.151 130.848  0.00  0.00    -0.013 C 
ATOM     16  C   LIG A   1      -8.490  -0.412 131.772  0.00  0.00    +0.012 C 
ATOM     17  C   LIG A   1      -7.591   1.698 130.619  0.00  0.00    +0.025 C 
ATOM     18  C   LIG A   1      -8.922   1.994 129.896  0.00  0.00    +0.009 C 
ATOM     19  C   LIG A   1      -9.723   3.173 130.428  0.00  0.00    +0.011 C 
ATOM     20  O   LIG A   1      -5.216   0.337 133.755  0.00  0.00    -0.292 OA
ENDROOT
BRANCH   6  21
ATOM     21  C   LIG A   1     -11.119   5.933 130.950  0.00  0.00    +0.093 C 
ATOM     22  C   LIG A   1     -11.832   4.846 130.131  0.00  0.00    +0.044 C 
BRANCH  21  23
ATOM     23  C   LIG A   1     -11.168   7.293 130.207  0.00  0.00    +0.151 C 
ATOM     24  C   LIG A   1     -10.596   7.326 128.797  0.00  0.00    +0.037 C 
ATOM     25  C   LIG A   1     -11.223   8.594 128.265  0.00  0.00    +0.037 C 
ATOM     26  C   LIG A   1     -12.629   8.548 128.868  0.00  0.00    +0.065 C 
ATOM     27  C   LIG A   1     -13.626   7.892 127.911  0.00  0.00    +0.041 C 
ATOM     28  C   LIG A   1     -13.120   9.931 129.286  0.00  0.00    +0.041 C 
ATOM     29  O   LIG A   1     -12.542   7.720 130.050  0.00  0.00    -0.368 OA
ENDBRANCH  21  23
BRANCH  21  30
ATOM     30  O   LIG A   1     -11.915   6.082 132.152  0.00  0.00    -0.386 OA
ATOM     31  H   LIG A   1     -11.558   5.423 132.781  0.00  0.00    +0.210 HD
ENDBRANCH  21  30
ENDBRANCH   6  21
BRANCH   3  32
ATOM     32  O   LIG A   1      -6.777   4.813 132.069  0.00  0.00    -0.384 OA
ATOM     33  H   LIG A   1      -6.427   4.968 131.177  0.00  0.00    +0.211 HD
ENDBRANCH   3  32
BRANCH  12  34
ATOM     34  O   LIG A   1      -5.341  -3.611 130.478  0.00  0.00    -0.389 OA
ATOM     35  H   LIG A   1      -4.580  -3.858 129.921  0.00  0.00    +0.210 HD
ENDBRANCH  12  34
BRANCH  13  36
ATOM     36  O   LIG A   1      -7.912  -2.853 130.186  0.00  0.00    -0.389 OA
ATOM     37  H   LIG A   1      -8.644  -2.899 129.537  0.00  0.00    +0.210 HD
ENDBRANCH  13  36
TORSDOF 6
ENDMDL
MODEL 2
REMARK VINA RESULT:      -8.8      3.839      8.300
REMARK  Name = NuBBE_1230
REMARK  11 active torsions:
REMARK  status: ('A' for Active; 'I' for Inactive)
REMARK    1  A    between atoms: C_1  and  C_2
REMARK    2  A    between atoms: C_3  and  O_19
REMARK    3  A    between atoms: C_6  and  C_8
REMARK    4  A    between atoms: C_8  and  O_9
REMARK    5  A    between atoms: C_8  and  C_10
REMARK    6  A    between atoms: C_8  and  C_11
REMARK    7  A    between atoms: C_15  and  C_16
REMARK    8  A    between atoms: C_15  and  C_17
REMARK    9  A    between atoms: C_25  and  O_27
REMARK   10  A    between atoms: C_28  and  O_30
REMARK   11  A    between atoms: C_32  and  C_33
REMARK                            x       y       z     vdW  Elec       q    Type
REMARK                         _______ _______ _______ _____ _____    ______ ____
ROOT
ATOM      1  C   LIG A   1      -6.333   0.286 128.067  0.00  0.00    +0.014 C 
ATOM      2  C   LIG A   1      -6.819   1.472 127.198  0.00  0.00    +0.006 C 
ATOM      3  C   LIG A   1      -5.992   2.766 127.496  0.00  0.00    +0.093 C 
ATOM      4  C   LIG A   1      -6.116   3.570 126.192  0.00  0.00    +0.040 C 
ATOM      5  C   LIG A   1      -6.058   2.537 125.073  0.00  0.00    +0.010 C 
ATOM      6  C   LIG A   1      -6.519   1.186 125.676  0.00  0.00    +0.032 C 
ATOM      7  C   LIG A   1      -6.426   3.584 128.706  0.00  0.00    -0.031 C 
ATOM      8  C   LIG A   1      -5.794   4.743 128.989  0.00  0.00    +0.049 C 
ATOM      9  C   LIG A   1      -6.099   5.542 130.202  0.00  0.00    +0.160 C 
ATOM     10  C   LIG A   1      -7.049   4.933 131.219  0.00  0.00    +0.069 C 
ATOM     11  C   LIG A   1      -7.555   5.964 132.232  0.00  0.00    +0.045 C 
ATOM     12  C   LIG A   1      -8.437   5.307 133.293  0.00  0.00    +0.144 C 
ATOM     13  C   LIG A   1      -9.578   4.478 132.685  0.00  0.00    +0.144 C 
ATOM     14  C   LIG A   1      -9.090   3.511 131.605  0.00  0.00    +0.042 C 
ATOM     15  C   LIG A   1      -8.192   4.161 130.507  0.00  0.00    -0.013 C 
ATOM     16  C   LIG A   1      -9.041   5.108 129.611  0.00  0.00    +0.012 C 
ATOM     17  C   LIG A   1      -7.522   3.039 129.620  0.00  0.00    +0.025 C 
ATOM     18  C   LIG A   1      -8.572   2.139 128.936  0.00  0.00    +0.009 C 
ATOM     19  C   LIG A   1      -8.296   1.778 127.484  0.00  0.00    +0.011 C 
ATOM     20  O   LIG A   1      -5.525   6.612 130.376  0.00  0.00    -0.292 OA
ENDROOT
BRANCH   6  21
ATOM     21  C   LIG A   1      -7.537   0.407 124.766  0.00  0.00    +0.093 C 
ATOM     22  C   LIG A   1      -8.827   1.164 124.417  0.00  0.00    +0.044 C 
BRANCH  21  23
ATOM     23  C   LIG A   1      -7.867  -1.007 125.309  0.00  0.00    +0.151 C 
ATOM     24  C   LIG A   1      -9.275  -1.225 125.847  0.00  0.00    +0.037 C 
ATOM     25  C   LIG A   1      -9.356  -2.734 125.827  0.00  0.00    +0.037 C 
ATOM     26  C   LIG A   1      -8.618  -3.090 124.534  0.00  0.00    +0.065 C 
ATOM     27  C   LIG A   1      -9.585  -3.223 123.357  0.00  0.00    +0.041 C 
ATOM     28  C   LIG A   1      -7.779  -4.357 124.682  0.00  0.00    +0.041 C 
ATOM     29  O   LIG A   1      -7.728  -1.986 124.252  0.00  0.00    -0.368 OA
ENDBRANCH  21  23
BRANCH  21  30
ATOM     30  O   LIG A   1      -6.854   0.223 123.502  0.00  0.00    -0.386 OA
ATOM     31  H   LIG A   1      -6.847   1.106 123.081  0.00  0.00    +0.210 HD
ENDBRANCH  21  30
ENDBRANCH   6  21
BRANCH   3  32
ATOM     32  O   LIG A   1      -4.614   2.445 127.709  0.00  0.00    -0.384 OA
ATOM     33  H   LIG A   1      -4.302   2.915 128.499  0.00  0.00    +0.211 HD
ENDBRANCH   3  32
BRANCH  12  34
ATOM     34  O   LIG A   1      -9.018   6.317 134.125  0.00  0.00    -0.389 OA
ATOM     35  H   LIG A   1      -8.643   7.173 133.847  0.00  0.00    +0.210 HD
ENDBRANCH  12  34
BRANCH  13  36
ATOM     36  O   LIG A   1     -10.571   5.350 132.143  0.00  0.00    -0.389 OA
ATOM     37  H   LIG A   1     -11.363   5.196 132.698  0.00  0.00    +0.210 HD
ENDBRANCH  13  36
TORSDOF 6
ENDMDL
MODEL 3
REMARK VINA RESULT:      -8.8      1.970      2.368
REMARK  Name = NuBBE_1230
REMARK  11 active torsions:
REMARK  status: ('A' for Active; 'I' for Inactive)
REMARK    1  A    between atoms: C_1  and  C_2
REMARK    2  A    between atoms: C_3  and  O_19
REMARK    3  A    between atoms: C_6  and  C_8
REMARK    4  A    between atoms: C_8  and  O_9
REMARK    5  A    between atoms: C_8  and  C_10
REMARK    6  A    between atoms: C_8  and  C_11
REMARK    7  A    between atoms: C_15  and  C_16
REMARK    8  A    between atoms: C_15  and  C_17
REMARK    9  A    between atoms: C_25  and  O_27
REMARK   10  A    between atoms: C_28  and  O_30
REMARK   11  A    between atoms: C_32  and  C_33
REMARK                            x       y       z     vdW  Elec       q    Type
REMARK                         _______ _______ _______ _____ _____    ______ ____
ROOT
ATOM      1  C   LIG A   1      -8.268   3.750 129.073  0.00  0.00    +0.014 C 
ATOM      2  C   LIG A   1      -8.144   4.459 130.444  0.00  0.00    +0.006 C 
ATOM      3  C   LIG A   1      -6.646   4.636 130.855  0.00  0.00    +0.093 C 
ATOM      4  C   LIG A   1      -6.680   5.852 131.795  0.00  0.00    +0.040 C 
ATOM      5  C   LIG A   1      -7.709   6.800 131.192  0.00  0.00    +0.010 C 
ATOM      6  C   LIG A   1      -8.674   5.941 130.336  0.00  0.00    +0.032 C 
ATOM      7  C   LIG A   1      -5.976   3.436 131.511  0.00  0.00    -0.031 C 
ATOM      8  C   LIG A   1      -4.700   3.536 131.943  0.00  0.00    +0.049 C 
ATOM      9  C   LIG A   1      -3.955   2.383 132.505  0.00  0.00    +0.160 C 
ATOM     10  C   LIG A   1      -4.622   1.020 132.434  0.00  0.00    +0.069 C 
ATOM     11  C   LIG A   1      -3.935  -0.011 133.336  0.00  0.00    +0.045 C 
ATOM     12  C   LIG A   1      -4.571  -1.391 133.179  0.00  0.00    +0.144 C 
ATOM     13  C   LIG A   1      -6.094  -1.368 133.377  0.00  0.00    +0.144 C 
ATOM     14  C   LIG A   1      -6.777  -0.277 132.548  0.00  0.00    +0.042 C 
ATOM     15  C   LIG A   1      -6.147   1.143 132.698  0.00  0.00    -0.013 C 
ATOM     16  C   LIG A   1      -6.433   1.709 134.118  0.00  0.00    +0.012 C 
ATOM     17  C   LIG A   1      -6.737   2.115 131.601  0.00  0.00    +0.025 C 
ATOM     18  C   LIG A   1      -8.272   2.237 131.702  0.00  0.00    +0.009 C 
ATOM     19  C   LIG A   1      -8.842   3.638 131.538  0.00  0.00    +0.011 C 
ATOM     20  O   LIG A   1      -2.816   2.552 132.926  0.00  0.00    -0.292 OA
ENDROOT
BRANCH   6  21
ATOM     21  C   LIG A   1     -10.190   6.294 130.553  0.00  0.00    +0.093 C 
ATOM     22  C   LIG A   1     -11.169   5.117 130.420  0.00  0.00    +0.044 C 
BRANCH  21  23
ATOM     23  C   LIG A   1     -10.659   7.491 129.685  0.00  0.00    +0.151 C 
ATOM     24  C   LIG A   1     -10.468   7.365 128.181  0.00  0.00    +0.037 C 
ATOM     25  C   LIG A   1     -11.420   8.428 127.683  0.00  0.00    +0.037 C 
ATOM     26  C   LIG A   1     -12.602   8.293 128.645  0.00  0.00    +0.065 C 
ATOM     27  C   LIG A   1     -13.674   7.356 128.084  0.00  0.00    +0.041 C 
ATOM     28  C   LIG A   1     -13.210   9.646 129.002  0.00  0.00    +0.041 C 
ATOM     29  O   LIG A   1     -12.082   7.693 129.853  0.00  0.00    -0.368 OA
ENDBRANCH  21  23
BRANCH  21  30
ATOM     30  O   LIG A   1     -10.290   6.713 131.936  0.00  0.00    -0.386 OA
ATOM     31  H   LIG A   1     -10.620   7.634 131.903  0.00  0.00    +0.210 HD
ENDBRANCH  21  30
ENDBRANCH   6  21
BRANCH   3  32
ATOM     32  O   LIG A   1      -5.845   4.962 129.713  0.00  0.00    -0.384 OA
ATOM     33  H   LIG A   1      -4.957   5.211 130.015  0.00  0.00    +0.211 HD
ENDBRANCH   3  32
BRANCH  12  34
ATOM     34  O   LIG A   1      -4.013  -2.288 134.146  0.00  0.00    -0.389 OA
ATOM     35  H   LIG A   1      -4.589  -3.074 134.178  0.00  0.00    +0.210 HD
ENDBRANCH  12  34
BRANCH  13  36
ATOM     36  O   LIG A   1      -6.398  -1.188 134.761  0.00  0.00    -0.389 OA
ATOM     37  H   LIG A   1      -7.360  -1.008 134.780  0.00  0.00    +0.210 HD
ENDBRANCH  13  36
TORSDOF 6
ENDMDL
MODEL 4
REMARK VINA RESULT:      -8.7      3.246      8.606
REMARK  Name = NuBBE_1230
REMARK  11 active torsions:
REMARK  status: ('A' for Active; 'I' for Inactive)
REMARK    1  A    between atoms: C_1  and  C_2
REMARK    2  A    between atoms: C_3  and  O_19
REMARK    3  A    between atoms: C_6  and  C_8
REMARK    4  A    between atoms: C_8  and  O_9
REMARK    5  A    between atoms: C_8  and  C_10
REMARK    6  A    between atoms: C_8  and  C_11
REMARK    7  A    between atoms: C_15  and  C_16
REMARK    8  A    between atoms: C_15  and  C_17
REMARK    9  A    between atoms: C_25  and  O_27
REMARK   10  A    between atoms: C_28  and  O_30
REMARK   11  A    between atoms: C_32  and  C_33
REMARK                            x       y       z     vdW  Elec       q    Type
REMARK                         _______ _______ _______ _____ _____    ______ ____
ROOT
ATOM      1  C   LIG A   1      -5.296   0.401 128.863  0.00  0.00    +0.014 C 
ATOM      2  C   LIG A   1      -6.799   0.346 128.496  0.00  0.00    +0.006 C 
ATOM      3  C   LIG A   1      -7.304   1.731 127.974  0.00  0.00    +0.093 C 
ATOM      4  C   LIG A   1      -8.501   1.356 127.086  0.00  0.00    +0.040 C 
ATOM      5  C   LIG A   1      -8.095   0.067 126.382  0.00  0.00    +0.010 C 
ATOM      6  C   LIG A   1      -7.020  -0.615 127.266  0.00  0.00    +0.032 C 
ATOM      7  C   LIG A   1      -7.686   2.757 129.032  0.00  0.00    -0.031 C 
ATOM      8  C   LIG A   1      -8.185   3.953 128.653  0.00  0.00    +0.049 C 
ATOM      9  C   LIG A   1      -8.490   5.034 129.623  0.00  0.00    +0.160 C 
ATOM     10  C   LIG A   1      -8.072   4.814 131.067  0.00  0.00    +0.069 C 
ATOM     11  C   LIG A   1      -8.734   5.813 132.022  0.00  0.00    +0.045 C 
ATOM     12  C   LIG A   1      -8.230   5.626 133.451  0.00  0.00    +0.144 C 
ATOM     13  C   LIG A   1      -8.362   4.176 133.941  0.00  0.00    +0.144 C 
ATOM     14  C   LIG A   1      -7.785   3.165 132.948  0.00  0.00    +0.042 C 
ATOM     15  C   LIG A   1      -8.291   3.334 131.481  0.00  0.00    -0.013 C 
ATOM     16  C   LIG A   1      -9.791   2.935 131.382  0.00  0.00    +0.012 C 
ATOM     17  C   LIG A   1      -7.430   2.440 130.505  0.00  0.00    +0.025 C 
ATOM     18  C   LIG A   1      -7.491   0.945 130.883  0.00  0.00    +0.009 C 
ATOM     19  C   LIG A   1      -7.638  -0.031 129.726  0.00  0.00    +0.011 C 
ATOM     20  O   LIG A   1      -8.988   6.080 129.220  0.00  0.00    -0.292 OA
ENDROOT
BRANCH   6  21
ATOM     21  C   LIG A   1      -7.249  -2.159 127.455  0.00  0.00    +0.093 C 
ATOM     22  C   LIG A   1      -6.559  -2.786 128.676  0.00  0.00    +0.044 C 
BRANCH  21  23
ATOM     23  C   LIG A   1      -6.932  -2.975 126.174  0.00  0.00    +0.151 C 
ATOM     24  C   LIG A   1      -8.092  -3.246 125.228  0.00  0.00    +0.037 C 
ATOM     25  C   LIG A   1      -7.349  -3.608 123.962  0.00  0.00    +0.037 C 
ATOM     26  C   LIG A   1      -6.165  -2.637 123.983  0.00  0.00    +0.065 C 
ATOM     27  C   LIG A   1      -6.475  -1.362 123.197  0.00  0.00    +0.041 C 
ATOM     28  C   LIG A   1      -4.883  -3.284 123.467  0.00  0.00    +0.041 C 
ATOM     29  O   LIG A   1      -5.964  -2.265 125.365  0.00  0.00    -0.368 OA
ENDBRANCH  21  23
BRANCH  21  30
ATOM     30  O   LIG A   1      -8.668  -2.306 127.705  0.00  0.00    -0.386 OA
ATOM     31  H   LIG A   1      -8.866  -3.247 127.523  0.00  0.00    +0.210 HD
ENDBRANCH  21  30
ENDBRANCH   6  21
BRANCH   3  32
ATOM     32  O   LIG A   1      -6.306   2.355 127.159  0.00  0.00    -0.384 OA
ATOM     33  H   LIG A   1      -6.595   2.324 126.233  0.00  0.00    +0.211 HD
ENDBRANCH   3  32
BRANCH  12  34
ATOM     34  O   LIG A   1      -8.981   6.462 134.338  0.00  0.00    -0.389 OA
ATOM     35  H   LIG A   1      -9.820   6.678 133.891  0.00  0.00    +0.210 HD
ENDBRANCH  12  34
BRANCH  13  36
ATOM     36  O   LIG A   1      -9.735   3.876 134.197  0.00  0.00    -0.389 OA
ATOM     37  H   LIG A   1      -9.875   2.996 133.790  0.00  0.00    +0.210 HD
ENDBRANCH  13  36
TORSDOF 6
ENDMDL
MODEL 5
REMARK VINA RESULT:      -8.7      5.696     10.267
REMARK  Name = NuBBE_1230
REMARK  11 active torsions:
REMARK  status: ('A' for Active; 'I' for Inactive)
REMARK    1  A    between atoms: C_1  and  C_2
REMARK    2  A    between atoms: C_3  and  O_19
REMARK    3  A    between atoms: C_6  and  C_8
REMARK    4  A    between atoms: C_8  and  O_9
REMARK    5  A    between atoms: C_8  and  C_10
REMARK    6  A    between atoms: C_8  and  C_11
REMARK    7  A    between atoms: C_15  and  C_16
REMARK    8  A    between atoms: C_15  and  C_17
REMARK    9  A    between atoms: C_25  and  O_27
REMARK   10  A    between atoms: C_28  and  O_30
REMARK   11  A    between atoms: C_32  and  C_33
REMARK                            x       y       z     vdW  Elec       q    Type
REMARK                         _______ _______ _______ _____ _____    ______ ____
ROOT
ATOM      1  C   LIG A   1      -5.070  -2.066 127.455  0.00  0.00    +0.014 C 
ATOM      2  C   LIG A   1      -6.545  -1.972 127.916  0.00  0.00    +0.006 C 
ATOM      3  C   LIG A   1      -7.522  -2.405 126.774  0.00  0.00    +0.093 C 
ATOM      4  C   LIG A   1      -8.768  -2.878 127.539  0.00  0.00    +0.040 C 
ATOM      5  C   LIG A   1      -8.237  -3.593 128.775  0.00  0.00    +0.010 C 
ATOM      6  C   LIG A   1      -6.823  -3.025 129.057  0.00  0.00    +0.032 C 
ATOM      7  C   LIG A   1      -7.866  -1.343 125.738  0.00  0.00    -0.031 C 
ATOM      8  C   LIG A   1      -8.748  -1.629 124.756  0.00  0.00    +0.049 C 
ATOM      9  C   LIG A   1      -9.059  -0.677 123.661  0.00  0.00    +0.160 C 
ATOM     10  C   LIG A   1      -8.227   0.591 123.581  0.00  0.00    +0.069 C 
ATOM     11  C   LIG A   1      -8.850   1.637 122.651  0.00  0.00    +0.045 C 
ATOM     12  C   LIG A   1      -7.950   2.865 122.522  0.00  0.00    +0.144 C 
ATOM     13  C   LIG A   1      -7.554   3.456 123.883  0.00  0.00    +0.144 C 
ATOM     14  C   LIG A   1      -7.017   2.399 124.849  0.00  0.00    +0.042 C 
ATOM     15  C   LIG A   1      -7.924   1.138 125.002  0.00  0.00    -0.013 C 
ATOM     16  C   LIG A   1      -9.232   1.507 125.757  0.00  0.00    +0.012 C 
ATOM     17  C   LIG A   1      -7.150   0.006 125.786  0.00  0.00    +0.025 C 
ATOM     18  C   LIG A   1      -6.706   0.473 127.188  0.00  0.00    +0.009 C 
ATOM     19  C   LIG A   1      -6.891  -0.530 128.316  0.00  0.00    +0.011 C 
ATOM     20  O   LIG A   1      -9.907  -0.978 122.827  0.00  0.00    -0.292 OA
ENDROOT
BRANCH   6  21
ATOM     21  C   LIG A   1      -6.572  -2.687 130.572  0.00  0.00    +0.093 C 
ATOM     22  C   LIG A   1      -5.486  -1.635 130.844  0.00  0.00    +0.044 C 
BRANCH  21  23
ATOM     23  C   LIG A   1      -6.334  -3.951 131.438  0.00  0.00    +0.151 C 
ATOM     24  C   LIG A   1      -4.953  -4.586 131.360  0.00  0.00    +0.037 C 
ATOM     25  C   LIG A   1      -4.956  -5.428 132.616  0.00  0.00    +0.037 C 
ATOM     26  C   LIG A   1      -5.686  -4.529 133.617  0.00  0.00    +0.065 C 
ATOM     27  C   LIG A   1      -4.702  -3.683 134.428  0.00  0.00    +0.041 C 
ATOM     28  C   LIG A   1      -6.597  -5.326 134.546  0.00  0.00    +0.041 C 
ATOM     29  O   LIG A   1      -6.505  -3.627 132.839  0.00  0.00    -0.368 OA
ENDBRANCH  21  23
BRANCH  21  30
ATOM     30  O   LIG A   1      -7.805  -2.085 131.037  0.00  0.00    -0.386 OA
ATOM     31  H   LIG A   1      -8.321  -1.896 130.227  0.00  0.00    +0.210 HD
ENDBRANCH  21  30
ENDBRANCH   6  21
BRANCH   3  32
ATOM     32  O   LIG A   1      -6.983  -3.511 126.043  0.00  0.00    -0.384 OA
ATOM     33  H   LIG A   1      -7.638  -4.228 126.035  0.00  0.00    +0.211 HD
ENDBRANCH   3  32
BRANCH  12  34
ATOM     34  O   LIG A   1      -8.631   3.882 121.778  0.00  0.00    -0.389 OA
ATOM     35  H   LIG A   1      -8.228   4.736 122.020  0.00  0.00    +0.210 HD
ENDBRANCH  12  34
BRANCH  13  36
ATOM     36  O   LIG A   1      -8.677   4.120 124.465  0.00  0.00    -0.389 OA
ATOM     37  H   LIG A   1      -8.767   4.949 123.950  0.00  0.00    +0.210 HD
ENDBRANCH  13  36
TORSDOF 6
ENDMDL
MODEL 6
REMARK VINA RESULT:      -8.5      5.235      8.223
REMARK  Name = NuBBE_1230
REMARK  11 active torsions:
REMARK  status: ('A' for Active; 'I' for Inactive)
REMARK    1  A    between atoms: C_1  and  C_2
REMARK    2  A    between atoms: C_3  and  O_19
REMARK    3  A    between atoms: C_6  and  C_8
REMARK    4  A    between atoms: C_8  and  O_9
REMARK    5  A    between atoms: C_8  and  C_10
REMARK    6  A    between atoms: C_8  and  C_11
REMARK    7  A    between atoms: C_15  and  C_16
REMARK    8  A    between atoms: C_15  and  C_17
REMARK    9  A    between atoms: C_25  and  O_27
REMARK   10  A    between atoms: C_28  and  O_30
REMARK   11  A    between atoms: C_32  and  C_33
REMARK                            x       y       z     vdW  Elec       q    Type
REMARK                         _______ _______ _______ _____ _____    ______ ____
ROOT
ATOM      1  C   LIG A   1      -5.222   1.068 126.058  0.00  0.00    +0.014 C 
ATOM      2  C   LIG A   1      -6.218   2.235 126.265  0.00  0.00    +0.006 C 
ATOM      3  C   LIG A   1      -5.505   3.618 126.117  0.00  0.00    +0.093 C 
ATOM      4  C   LIG A   1      -6.646   4.559 125.696  0.00  0.00    +0.040 C 
ATOM      5  C   LIG A   1      -7.520   3.737 124.757  0.00  0.00    +0.010 C 
ATOM      6  C   LIG A   1      -7.287   2.246 125.104  0.00  0.00    +0.032 C 
ATOM      7  C   LIG A   1      -4.772   4.138 127.347  0.00  0.00    -0.031 C 
ATOM      8  C   LIG A   1      -4.182   5.352 127.310  0.00  0.00    +0.049 C 
ATOM      9  C   LIG A   1      -3.372   5.881 128.435  0.00  0.00    +0.160 C 
ATOM     10  C   LIG A   1      -3.086   4.939 129.592  0.00  0.00    +0.069 C 
ATOM     11  C   LIG A   1      -2.556   5.678 130.826  0.00  0.00    +0.045 C 
ATOM     12  C   LIG A   1      -2.196   4.698 131.941  0.00  0.00    +0.144 C 
ATOM     13  C   LIG A   1      -3.346   3.740 132.285  0.00  0.00    +0.144 C 
ATOM     14  C   LIG A   1      -3.941   3.069 131.045  0.00  0.00    +0.042 C 
ATOM     15  C   LIG A   1      -4.323   4.051 129.895  0.00  0.00    -0.013 C 
ATOM     16  C   LIG A   1      -5.550   4.913 130.310  0.00  0.00    +0.012 C 
ATOM     17  C   LIG A   1      -4.654   3.242 128.579  0.00  0.00    +0.025 C 
ATOM     18  C   LIG A   1      -5.814   2.246 128.789  0.00  0.00    +0.009 C 
ATOM     19  C   LIG A   1      -6.839   2.169 127.668  0.00  0.00    +0.011 C 
ATOM     20  O   LIG A   1      -2.904   7.012 128.359  0.00  0.00    -0.292 OA
ENDROOT
BRANCH   6  21
ATOM     21  C   LIG A   1      -8.613   1.406 125.195  0.00  0.00    +0.093 C 
ATOM     22  C   LIG A   1      -9.004   0.936 126.605  0.00  0.00    +0.044 C 
BRANCH  21  23
ATOM     23  C   LIG A   1      -8.641   0.218 124.199  0.00  0.00    +0.151 C 
ATOM     24  C   LIG A   1      -7.363  -0.055 123.419  0.00  0.00    +0.037 C 
ATOM     25  C   LIG A   1      -7.608  -1.474 122.959  0.00  0.00    +0.037 C 
ATOM     26  C   LIG A   1      -8.297  -2.102 124.173  0.00  0.00    +0.065 C 
ATOM     27  C   LIG A   1      -7.288  -2.788 125.095  0.00  0.00    +0.041 C 
ATOM     28  C   LIG A   1      -9.398  -3.078 123.767  0.00  0.00    +0.041 C 
ATOM     29  O   LIG A   1      -8.900  -1.015 124.911  0.00  0.00    -0.368 OA
ENDBRANCH  21  23
BRANCH  21  30
ATOM     30  O   LIG A   1      -9.667   2.315 124.794  0.00  0.00    -0.386 OA
ATOM     31  H   LIG A   1      -9.856   2.858 125.587  0.00  0.00    +0.210 HD
ENDBRANCH  21  30
ENDBRANCH   6  21
BRANCH   3  32
ATOM     32  O   LIG A   1      -4.534   3.575 125.067  0.00  0.00    -0.384 OA
ATOM     33  H   LIG A   1      -4.362   2.647 124.838  0.00  0.00    +0.211 HD
ENDBRANCH   3  32
BRANCH  12  34
ATOM     34  O   LIG A   1      -1.857   5.426 133.127  0.00  0.00    -0.389 OA
ATOM     35  H   LIG A   1      -2.669   5.868 133.437  0.00  0.00    +0.210 HD
ENDBRANCH  12  34
BRANCH  13  36
ATOM     36  O   LIG A   1      -4.366   4.447 132.992  0.00  0.00    -0.389 OA
ATOM     37  H   LIG A   1      -5.194   4.221 132.520  0.00  0.00    +0.210 HD
ENDBRANCH  13  36
TORSDOF 6
ENDMDL
MODEL 7
REMARK VINA RESULT:      -8.4      5.832      8.525
REMARK  Name = NuBBE_1230
REMARK  11 active torsions:
REMARK  status: ('A' for Active; 'I' for Inactive)
REMARK    1  A    between atoms: C_1  and  C_2
REMARK    2  A    between atoms: C_3  and  O_19
REMARK    3  A    between atoms: C_6  and  C_8
REMARK    4  A    between atoms: C_8  and  O_9
REMARK    5  A    between atoms: C_8  and  C_10
REMARK    6  A    between atoms: C_8  and  C_11
REMARK    7  A    between atoms: C_15  and  C_16
REMARK    8  A    between atoms: C_15  and  C_17
REMARK    9  A    between atoms: C_25  and  O_27
REMARK   10  A    between atoms: C_28  and  O_30
REMARK   11  A    between atoms: C_32  and  C_33
REMARK                            x       y       z     vdW  Elec       q    Type
REMARK                         _______ _______ _______ _____ _____    ______ ____
ROOT
ATOM      1  C   LIG A   1      -3.166   7.367 130.548  0.00  0.00    +0.014 C 
ATOM      2  C   LIG A   1      -3.055   6.345 131.706  0.00  0.00    +0.006 C 
ATOM      3  C   LIG A   1      -3.320   4.889 131.200  0.00  0.00    +0.093 C 
ATOM      4  C   LIG A   1      -2.558   4.021 132.215  0.00  0.00    +0.040 C 
ATOM      5  C   LIG A   1      -1.283   4.793 132.530  0.00  0.00    +0.010 C 
ATOM      6  C   LIG A   1      -1.569   6.286 132.234  0.00  0.00    +0.032 C 
ATOM      7  C   LIG A   1      -4.778   4.468 131.081  0.00  0.00    -0.031 C 
ATOM      8  C   LIG A   1      -5.081   3.206 130.706  0.00  0.00    +0.049 C 
ATOM      9  C   LIG A   1      -6.476   2.754 130.479  0.00  0.00    +0.160 C 
ATOM     10  C   LIG A   1      -7.568   3.809 130.526  0.00  0.00    +0.069 C 
ATOM     11  C   LIG A   1      -8.967   3.192 130.626  0.00  0.00    +0.045 C 
ATOM     12  C   LIG A   1     -10.048   4.271 130.584  0.00  0.00    +0.144 C 
ATOM     13  C   LIG A   1      -9.823   5.378 131.625  0.00  0.00    +0.144 C 
ATOM     14  C   LIG A   1      -8.398   5.933 131.593  0.00  0.00    +0.042 C 
ATOM     15  C   LIG A   1      -7.276   4.849 131.641  0.00  0.00    -0.013 C 
ATOM     16  C   LIG A   1      -7.238   4.179 133.044  0.00  0.00    +0.012 C 
ATOM     17  C   LIG A   1      -5.876   5.504 131.318  0.00  0.00    +0.025 C 
ATOM     18  C   LIG A   1      -5.522   6.631 132.311  0.00  0.00    +0.009 C 
ATOM     19  C   LIG A   1      -4.082   6.661 132.802  0.00  0.00    +0.011 C 
ATOM     20  O   LIG A   1      -6.687   1.581 130.188  0.00  0.00    -0.292 OA
ENDROOT
BRANCH   6  21
ATOM     21  C   LIG A   1      -1.053   7.260 133.355  0.00  0.00    +0.093 C 
ATOM     22  C   LIG A   1      -1.631   7.020 134.759  0.00  0.00    +0.044 C 
BRANCH  21  23
ATOM     23  C   LIG A   1      -1.186   8.754 132.962  0.00  0.00    +0.151 C 
ATOM     24  C   LIG A   1      -2.290   9.548 133.645  0.00  0.00    +0.037 C 
ATOM     25  C   LIG A   1      -1.821  10.963 133.391  0.00  0.00    +0.037 C 
ATOM     26  C   LIG A   1      -0.304  10.845 133.555  0.00  0.00    +0.065 C 
ATOM     27  C   LIG A   1       0.129  11.172 134.985  0.00  0.00    +0.041 C 
ATOM     28  C   LIG A   1       0.451  11.716 132.556  0.00  0.00    +0.041 C 
ATOM     29  O   LIG A   1       0.031   9.462 133.298  0.00  0.00    -0.368 OA
ENDBRANCH  21  23
BRANCH  21  30
ATOM     30  O   LIG A   1       0.363   6.982 133.478  0.00  0.00    -0.386 OA
ATOM     31  H   LIG A   1       0.734   7.744 133.969  0.00  0.00    +0.210 HD
ENDBRANCH  21  30
ENDBRANCH   6  21
BRANCH   3  32
ATOM     32  O   LIG A   1      -2.744   4.693 129.904  0.00  0.00    -0.384 OA
ATOM     33  H   LIG A   1      -1.793   4.882 129.953  0.00  0.00    +0.211 HD
ENDBRANCH   3  32
BRANCH  12  34
ATOM     34  O   LIG A   1     -11.327   3.678 130.838  0.00  0.00    -0.389 OA
ATOM     35  H   LIG A   1     -11.995   4.228 130.390  0.00  0.00    +0.210 HD
ENDBRANCH  12  34
BRANCH  13  36
ATOM     36  O   LIG A   1     -10.120   4.879 132.930  0.00  0.00    -0.389 OA
ATOM     37  H   LIG A   1     -10.758   4.152 132.777  0.00  0.00    +0.210 HD
ENDBRANCH  13  36
TORSDOF 6
ENDMDL
MODEL 8
REMARK VINA RESULT:      -8.4      5.190      7.747
REMARK  Name = NuBBE_1230
REMARK  11 active torsions:
REMARK  status: ('A' for Active; 'I' for Inactive)
REMARK    1  A    between atoms: C_1  and  C_2
REMARK    2  A    between atoms: C_3  and  O_19
REMARK    3  A    between atoms: C_6  and  C_8
REMARK    4  A    between atoms: C_8  and  O_9
REMARK    5  A    between atoms: C_8  and  C_10
REMARK    6  A    between atoms: C_8  and  C_11
REMARK    7  A    between atoms: C_15  and  C_16
REMARK    8  A    between atoms: C_15  and  C_17
REMARK    9  A    between atoms: C_25  and  O_27
REMARK   10  A    between atoms: C_28  and  O_30
REMARK   11  A    between atoms: C_32  and  C_33
REMARK                            x       y       z     vdW  Elec       q    Type
REMARK                         _______ _______ _______ _____ _____    ______ ____
ROOT
ATOM      1  C   LIG A   1      -7.577   3.338 127.977  0.00  0.00    +0.014 C 
ATOM      2  C   LIG A   1      -6.681   3.462 126.720  0.00  0.00    +0.006 C 
ATOM      3  C   LIG A   1      -7.543   3.544 125.418  0.00  0.00    +0.093 C 
ATOM      4  C   LIG A   1      -6.626   4.292 124.436  0.00  0.00    +0.040 C 
ATOM      5  C   LIG A   1      -5.910   5.344 125.274  0.00  0.00    +0.010 C 
ATOM      6  C   LIG A   1      -5.910   4.838 126.738  0.00  0.00    +0.032 C 
ATOM      7  C   LIG A   1      -8.026   2.220 124.840  0.00  0.00    -0.031 C 
ATOM      8  C   LIG A   1      -8.726   2.211 123.686  0.00  0.00    +0.049 C 
ATOM      9  C   LIG A   1      -9.308   0.971 123.115  0.00  0.00    +0.160 C 
ATOM     10  C   LIG A   1      -9.229  -0.290 123.959  0.00  0.00    +0.069 C 
ATOM     11  C   LIG A   1      -9.536  -1.553 123.147  0.00  0.00    +0.045 C 
ATOM     12  C   LIG A   1      -9.535  -2.793 124.038  0.00  0.00    +0.144 C 
ATOM     13  C   LIG A   1      -8.248  -2.930 124.864  0.00  0.00    +0.144 C 
ATOM     14  C   LIG A   1      -7.885  -1.641 125.604  0.00  0.00    +0.042 C 
ATOM     15  C   LIG A   1      -7.874  -0.361 124.712  0.00  0.00    -0.013 C 
ATOM     16  C   LIG A   1      -6.677  -0.409 123.720  0.00  0.00    +0.012 C 
ATOM     17  C   LIG A   1      -7.771   0.930 125.617  0.00  0.00    +0.025 C 
ATOM     18  C   LIG A   1      -6.501   0.922 126.494  0.00  0.00    +0.009 C 
ATOM     19  C   LIG A   1      -5.754   2.243 126.599  0.00  0.00    +0.011 C 
ATOM     20  O   LIG A   1      -9.891   1.022 122.037  0.00  0.00    -0.292 OA
ENDROOT
BRANCH   6  21
ATOM     21  C   LIG A   1      -4.521   4.997 127.458  0.00  0.00    +0.093 C 
ATOM     22  C   LIG A   1      -3.365   4.187 126.852  0.00  0.00    +0.044 C 
BRANCH  21  23
ATOM     23  C   LIG A   1      -4.606   4.760 128.988  0.00  0.00    +0.151 C 
ATOM     24  C   LIG A   1      -3.290   4.566 129.727  0.00  0.00    +0.037 C 
ATOM     25  C   LIG A   1      -3.721   4.836 131.151  0.00  0.00    +0.037 C 
ATOM     26  C   LIG A   1      -4.717   5.986 130.984  0.00  0.00    +0.065 C 
ATOM     27  C   LIG A   1      -4.033   7.345 131.147  0.00  0.00    +0.041 C 
ATOM     28  C   LIG A   1      -5.899   5.865 131.942  0.00  0.00    +0.041 C 
ATOM     29  O   LIG A   1      -5.218   5.903 129.630  0.00  0.00    -0.368 OA
ENDBRANCH  21  23
BRANCH  21  30
ATOM     30  O   LIG A   1      -4.150   6.384 127.268  0.00  0.00    -0.386 OA
ATOM     31  H   LIG A   1      -3.853   6.695 128.147  0.00  0.00    +0.210 HD
ENDBRANCH  21  30
ENDBRANCH   6  21
BRANCH   3  32
ATOM     32  O   LIG A   1      -8.717   4.331 125.640  0.00  0.00    -0.384 OA
ATOM     33  H   LIG A   1      -8.684   5.112 125.065  0.00  0.00    +0.211 HD
ENDBRANCH   3  32
BRANCH  12  34
ATOM     34  O   LIG A   1      -9.667  -3.966 123.226  0.00  0.00    -0.389 OA
ATOM     35  H   LIG A   1      -8.849  -4.486 123.334  0.00  0.00    +0.210 HD
ENDBRANCH  12  34
BRANCH  13  36
ATOM     36  O   LIG A   1      -7.169  -3.321 124.014  0.00  0.00    -0.389 OA
ATOM     37  H   LIG A   1      -6.394  -2.832 124.358  0.00  0.00    +0.210 HD
ENDBRANCH  13  36
TORSDOF 6
ENDMDL
MODEL 9
REMARK VINA RESULT:      -8.3      5.057      7.197
REMARK  Name = NuBBE_1230
REMARK  11 active torsions:
REMARK  status: ('A' for Active; 'I' for Inactive)
REMARK    1  A    between atoms: C_1  and  C_2
REMARK    2  A    between atoms: C_3  and  O_19
REMARK    3  A    between atoms: C_6  and  C_8
REMARK    4  A    between atoms: C_8  and  O_9
REMARK    5  A    between atoms: C_8  and  C_10
REMARK    6  A    between atoms: C_8  and  C_11
REMARK    7  A    between atoms: C_15  and  C_16
REMARK    8  A    between atoms: C_15  and  C_17
REMARK    9  A    between atoms: C_25  and  O_27
REMARK   10  A    between atoms: C_28  and  O_30
REMARK   11  A    between atoms: C_32  and  C_33
REMARK                            x       y       z     vdW  Elec       q    Type
REMARK                         _______ _______ _______ _____ _____    ______ ____
ROOT
ATOM      1  C   LIG A   1      -3.423   2.611 127.139  0.00  0.00    +0.014 C 
ATOM      2  C   LIG A   1      -4.663   2.892 128.022  0.00  0.00    +0.006 C 
ATOM      3  C   LIG A   1      -5.164   1.588 128.725  0.00  0.00    +0.093 C 
ATOM      4  C   LIG A   1      -5.884   2.118 129.976  0.00  0.00    +0.040 C 
ATOM      5  C   LIG A   1      -5.048   3.298 130.454  0.00  0.00    +0.010 C 
ATOM      6  C   LIG A   1      -4.268   3.831 129.227  0.00  0.00    +0.032 C 
ATOM      7  C   LIG A   1      -6.063   0.676 127.901  0.00  0.00    -0.031 C 
ATOM      8  C   LIG A   1      -6.579  -0.438 128.463  0.00  0.00    +0.049 C 
ATOM      9  C   LIG A   1      -7.383  -1.420 127.694  0.00  0.00    +0.160 C 
ATOM     10  C   LIG A   1      -7.483  -1.218 126.192  0.00  0.00    +0.069 C 
ATOM     11  C   LIG A   1      -8.597  -2.062 125.565  0.00  0.00    +0.045 C 
ATOM     12  C   LIG A   1      -8.617  -1.906 124.046  0.00  0.00    +0.144 C 
ATOM     13  C   LIG A   1      -8.680  -0.437 123.601  0.00  0.00    +0.144 C 
ATOM     14  C   LIG A   1      -7.628   0.432 124.295  0.00  0.00    +0.042 C 
ATOM     15  C   LIG A   1      -7.593   0.292 125.849  0.00  0.00    -0.013 C 
ATOM     16  C   LIG A   1      -8.871   0.923 126.473  0.00  0.00    +0.012 C 
ATOM     17  C   LIG A   1      -6.306   1.001 126.428  0.00  0.00    +0.025 C 
ATOM     18  C   LIG A   1      -6.255   2.499 126.061  0.00  0.00    +0.009 C 
ATOM     19  C   LIG A   1      -5.815   3.443 127.169  0.00  0.00    +0.011 C 
ATOM     20  O   LIG A   1      -7.866  -2.387 128.275  0.00  0.00    -0.292 OA
ENDROOT
BRANCH   6  21
ATOM     21  C   LIG A   1      -4.295   5.397 129.096  0.00  0.00    +0.093 C 
ATOM     22  C   LIG A   1      -3.856   5.956 127.733  0.00  0.00    +0.044 C 
BRANCH  21  23
ATOM     23  C   LIG A   1      -3.535   6.110 130.245  0.00  0.00    +0.151 C 
ATOM     24  C   LIG A   1      -4.334   6.431 131.500  0.00  0.00    +0.037 C 
ATOM     25  C   LIG A   1      -3.219   6.655 132.497  0.00  0.00    +0.037 C 
ATOM     26  C   LIG A   1      -2.198   5.585 132.100  0.00  0.00    +0.065 C 
ATOM     27  C   LIG A   1      -2.391   4.302 132.908  0.00  0.00    +0.041 C 
ATOM     28  C   LIG A   1      -0.762   6.086 132.228  0.00  0.00    +0.041 C 
ATOM     29  O   LIG A   1      -2.450   5.274 130.710  0.00  0.00    -0.368 OA
ENDBRANCH  21  23
BRANCH  21  30
ATOM     30  O   LIG A   1      -5.690   5.766 129.223  0.00  0.00    -0.386 OA
ATOM     31  H   LIG A   1      -5.887   6.310 128.433  0.00  0.00    +0.210 HD
ENDBRANCH  21  30
ENDBRANCH   6  21
BRANCH   3  32
ATOM     32  O   LIG A   1      -4.056   0.783 129.140  0.00  0.00    -0.384 OA
ATOM     33  H   LIG A   1      -3.775   0.230 128.393  0.00  0.00    +0.211 HD
ENDBRANCH   3  32
BRANCH  12  34
ATOM     34  O   LIG A   1      -9.763  -2.578 123.510  0.00  0.00    -0.389 OA
ATOM     35  H   LIG A   1     -10.251  -2.963 124.261  0.00  0.00    +0.210 HD
ENDBRANCH  12  34
BRANCH  13  36
ATOM     36  O   LIG A   1      -9.984   0.088 123.851  0.00  0.00    -0.389 OA
ATOM     37  H   LIG A   1      -9.852   1.056 123.917  0.00  0.00    +0.210 HD
ENDBRANCH  13  36
TORSDOF 6
ENDMDL
