MODEL 1
REMARK VINA RESULT:      -7.2      0.000      0.000
REMARK  Name = NuBBE_1616
REMARK  9 active torsions:
REMARK  status: ('A' for Active; 'I' for Inactive)
REMARK    1  A    between atoms: C_1  and  C_2
REMARK    2  A    between atoms: C_1  and  C_9
REMARK    3  A    between atoms: C_2  and  C_4
REMARK    4  A    between atoms: C_2  and  O_8
REMARK    5  A    between atoms: C_4  and  C_5
REMARK    6  A    between atoms: C_4  and  C_6
REMARK    7  A    between atoms: C_4  and  O_7
REMARK    8  A    between atoms: C_14  and  O_15
REMARK    9  A    between atoms: O_15  and  C_16
REMARK                            x       y       z     vdW  Elec       q    Type
REMARK                         _______ _______ _______ _____ _____    ______ ____
ROOT
ATOM      1  C   LIG A   1      -9.591   6.879 130.723  0.00  0.00    +0.040 A 
ATOM      2  C   LIG A   1      -8.268   6.723 131.173  0.00  0.00    +0.146 A 
ATOM      3  C   LIG A   1      -7.952   6.049 132.349  0.00  0.00    +0.018 A 
ATOM      4  C   LIG A   1      -8.983   5.503 133.112  0.00  0.00    +0.015 A 
ATOM      5  C   LIG A   1     -10.309   5.638 132.690  0.00  0.00    +0.046 A 
ATOM      6  C   LIG A   1     -10.621   6.327 131.510  0.00  0.00    +0.127 A 
ATOM      7  C   LIG A   1      -6.563   5.930 132.763  0.00  0.00    +0.018 A 
ATOM      8  C   LIG A   1      -5.602   6.476 132.009  0.00  0.00    +0.092 A 
ATOM      9  C   LIG A   1      -5.898   7.197 130.764  0.00  0.00    +0.337 A 
ATOM     10  O   LIG A   1      -4.991   7.692 130.096  0.00  0.00    -0.245 OA
ATOM     11  O   LIG A   1      -7.231   7.277 130.385  0.00  0.00    -0.422 OA
ENDROOT
BRANCH   6  12
ATOM     12  O   LIG A   1     -11.903   6.458 131.035  0.00  0.00    -0.495 OA
ATOM     13  C   LIG A   1     -12.673   7.514 131.608  0.00  0.00    +0.277 C 
ENDBRANCH   6  12
BRANCH   1  14
ATOM     14  C   LIG A   1      -9.890   7.657 129.449  0.00  0.00    +0.076 C 
BRANCH  14  15
ATOM     15  C   LIG A   1     -10.586   6.835 128.341  0.00  0.00    +0.150 C 
BRANCH  15  16
ATOM     16  C   LIG A   1     -11.632   7.662 127.526  0.00  0.00    +0.086 C 
ATOM     17  C   LIG A   1     -11.199   7.821 126.061  0.00  0.00    +0.043 C 
ATOM     18  C   LIG A   1     -13.034   7.053 127.571  0.00  0.00    +0.043 C 
BRANCH  16  19
ATOM     19  O   LIG A   1     -11.728   8.986 128.073  0.00  0.00    -0.387 OA
ATOM     20  H   LIG A   1     -10.817   9.230 128.331  0.00  0.00    +0.210 HD
ENDBRANCH  16  19
ENDBRANCH  15  16
BRANCH  15  21
ATOM     21  O   LIG A   1      -9.600   6.359 127.405  0.00  0.00    -0.389 OA
ATOM     22  H   LIG A   1      -9.918   5.504 127.066  0.00  0.00    +0.210 HD
ENDBRANCH  15  21
ENDBRANCH  14  15
ENDBRANCH   1  14
TORSDOF 6
ENDMDL
MODEL 2
REMARK VINA RESULT:      -6.7      7.816      9.131
REMARK  Name = NuBBE_1616
REMARK  9 active torsions:
REMARK  status: ('A' for Active; 'I' for Inactive)
REMARK    1  A    between atoms: C_1  and  C_2
REMARK    2  A    between atoms: C_1  and  C_9
REMARK    3  A    between atoms: C_2  and  C_4
REMARK    4  A    between atoms: C_2  and  O_8
REMARK    5  A    between atoms: C_4  and  C_5
REMARK    6  A    between atoms: C_4  and  C_6
REMARK    7  A    between atoms: C_4  and  O_7
REMARK    8  A    between atoms: C_14  and  O_15
REMARK    9  A    between atoms: O_15  and  C_16
REMARK                            x       y       z     vdW  Elec       q    Type
REMARK                         _______ _______ _______ _____ _____    ______ ____
ROOT
ATOM      1  C   LIG A   1      -8.994   0.573 125.619  0.00  0.00    +0.040 A 
ATOM      2  C   LIG A   1      -8.862  -0.826 125.658  0.00  0.00    +0.146 A 
ATOM      3  C   LIG A   1      -8.240  -1.490 126.711  0.00  0.00    +0.018 A 
ATOM      4  C   LIG A   1      -7.727  -0.744 127.771  0.00  0.00    +0.015 A 
ATOM      5  C   LIG A   1      -7.845   0.649 127.763  0.00  0.00    +0.046 A 
ATOM      6  C   LIG A   1      -8.464   1.312 126.694  0.00  0.00    +0.127 A 
ATOM      7  C   LIG A   1      -8.129  -2.940 126.686  0.00  0.00    +0.018 A 
ATOM      8  C   LIG A   1      -8.625  -3.621 125.647  0.00  0.00    +0.092 A 
ATOM      9  C   LIG A   1      -9.286  -2.954 124.518  0.00  0.00    +0.337 A 
ATOM     10  O   LIG A   1      -9.727  -3.610 123.574  0.00  0.00    -0.245 OA
ATOM     11  O   LIG A   1      -9.394  -1.572 124.579  0.00  0.00    -0.422 OA
ENDROOT
BRANCH   6  12
ATOM     12  O   LIG A   1      -8.635   2.674 126.655  0.00  0.00    -0.495 OA
ATOM     13  C   LIG A   1      -7.597   3.448 127.256  0.00  0.00    +0.277 C 
ENDBRANCH   6  12
BRANCH   1  14
ATOM     14  C   LIG A   1      -9.651   1.257 124.428  0.00  0.00    +0.076 C 
BRANCH  14  15
ATOM     15  C   LIG A   1      -8.739   1.410 123.190  0.00  0.00    +0.150 C 
BRANCH  15  16
ATOM     16  C   LIG A   1      -8.199   2.865 122.999  0.00  0.00    +0.086 C 
ATOM     17  C   LIG A   1      -6.684   2.934 123.245  0.00  0.00    +0.043 C 
ATOM     18  C   LIG A   1      -8.508   3.435 121.615  0.00  0.00    +0.043 C 
BRANCH  16  19
ATOM     19  O   LIG A   1      -8.812   3.734 123.963  0.00  0.00    -0.387 OA
ATOM     20  H   LIG A   1      -9.708   3.919 123.616  0.00  0.00    +0.210 HD
ENDBRANCH  16  19
ENDBRANCH  15  16
BRANCH  15  21
ATOM     21  O   LIG A   1      -7.593   0.547 123.327  0.00  0.00    -0.389 OA
ATOM     22  H   LIG A   1      -6.812   1.121 123.412  0.00  0.00    +0.210 HD
ENDBRANCH  15  21
ENDBRANCH  14  15
ENDBRANCH   1  14
TORSDOF 6
ENDMDL
MODEL 3
REMARK VINA RESULT:      -6.6      2.353      5.038
REMARK  Name = NuBBE_1616
REMARK  9 active torsions:
REMARK  status: ('A' for Active; 'I' for Inactive)
REMARK    1  A    between atoms: C_1  and  C_2
REMARK    2  A    between atoms: C_1  and  C_9
REMARK    3  A    between atoms: C_2  and  C_4
REMARK    4  A    between atoms: C_2  and  O_8
REMARK    5  A    between atoms: C_4  and  C_5
REMARK    6  A    between atoms: C_4  and  C_6
REMARK    7  A    between atoms: C_4  and  O_7
REMARK    8  A    between atoms: C_14  and  O_15
REMARK    9  A    between atoms: O_15  and  C_16
REMARK                            x       y       z     vdW  Elec       q    Type
REMARK                         _______ _______ _______ _____ _____    ______ ____
ROOT
ATOM      1  C   LIG A   1      -9.702   6.255 130.386  0.00  0.00    +0.040 A 
ATOM      2  C   LIG A   1     -10.627   6.701 129.425  0.00  0.00    +0.146 A 
ATOM      3  C   LIG A   1     -11.934   7.052 129.750  0.00  0.00    +0.018 A 
ATOM      4  C   LIG A   1     -12.346   6.961 131.078  0.00  0.00    +0.015 A 
ATOM      5  C   LIG A   1     -11.449   6.524 132.058  0.00  0.00    +0.046 A 
ATOM      6  C   LIG A   1     -10.137   6.163 131.722  0.00  0.00    +0.127 A 
ATOM      7  C   LIG A   1     -12.844   7.498 128.707  0.00  0.00    +0.018 A 
ATOM      8  C   LIG A   1     -12.414   7.563 127.442  0.00  0.00    +0.092 A 
ATOM      9  C   LIG A   1     -11.043   7.198 127.061  0.00  0.00    +0.337 A 
ATOM     10  O   LIG A   1     -10.681   7.264 125.886  0.00  0.00    -0.245 OA
ATOM     11  O   LIG A   1     -10.193   6.795 128.081  0.00  0.00    -0.422 OA
ENDROOT
BRANCH   6  12
ATOM     12  O   LIG A   1      -9.209   5.760 132.650  0.00  0.00    -0.495 OA
ATOM     13  C   LIG A   1      -9.423   4.471 133.223  0.00  0.00    +0.277 C 
ENDBRANCH   6  12
BRANCH   1  14
ATOM     14  C   LIG A   1      -8.294   5.848 129.975  0.00  0.00    +0.076 C 
BRANCH  14  15
ATOM     15  C   LIG A   1      -8.103   4.332 129.747  0.00  0.00    +0.150 C 
BRANCH  15  16
ATOM     16  C   LIG A   1      -7.679   3.978 128.285  0.00  0.00    +0.086 C 
ATOM     17  C   LIG A   1      -6.172   4.183 128.076  0.00  0.00    +0.043 C 
ATOM     18  C   LIG A   1      -8.050   2.547 127.890  0.00  0.00    +0.043 C 
BRANCH  16  19
ATOM     19  O   LIG A   1      -8.346   4.857 127.366  0.00  0.00    -0.387 OA
ATOM     20  H   LIG A   1      -8.986   5.363 127.905  0.00  0.00    +0.210 HD
ENDBRANCH  16  19
ENDBRANCH  15  16
BRANCH  15  21
ATOM     21  O   LIG A   1      -7.067   3.840 130.619  0.00  0.00    -0.389 OA
ATOM     22  H   LIG A   1      -6.745   3.006 130.238  0.00  0.00    +0.210 HD
ENDBRANCH  15  21
ENDBRANCH  14  15
ENDBRANCH   1  14
TORSDOF 6
ENDMDL
MODEL 4
REMARK VINA RESULT:      -6.6      8.344      9.100
REMARK  Name = NuBBE_1616
REMARK  9 active torsions:
REMARK  status: ('A' for Active; 'I' for Inactive)
REMARK    1  A    between atoms: C_1  and  C_2
REMARK    2  A    between atoms: C_1  and  C_9
REMARK    3  A    between atoms: C_2  and  C_4
REMARK    4  A    between atoms: C_2  and  O_8
REMARK    5  A    between atoms: C_4  and  C_5
REMARK    6  A    between atoms: C_4  and  C_6
REMARK    7  A    between atoms: C_4  and  O_7
REMARK    8  A    between atoms: C_14  and  O_15
REMARK    9  A    between atoms: O_15  and  C_16
REMARK                            x       y       z     vdW  Elec       q    Type
REMARK                         _______ _______ _______ _____ _____    ______ ____
ROOT
ATOM      1  C   LIG A   1      -8.209  -1.370 126.282  0.00  0.00    +0.040 A 
ATOM      2  C   LIG A   1      -7.786  -1.630 127.597  0.00  0.00    +0.146 A 
ATOM      3  C   LIG A   1      -8.135  -2.793 128.280  0.00  0.00    +0.018 A 
ATOM      4  C   LIG A   1      -8.933  -3.738 127.638  0.00  0.00    +0.015 A 
ATOM      5  C   LIG A   1      -9.368  -3.509 126.329  0.00  0.00    +0.046 A 
ATOM      6  C   LIG A   1      -9.021  -2.332 125.651  0.00  0.00    +0.127 A 
ATOM      7  C   LIG A   1      -7.670  -2.997 129.642  0.00  0.00    +0.018 A 
ATOM      8  C   LIG A   1      -6.914  -2.063 130.228  0.00  0.00    +0.092 A 
ATOM      9  C   LIG A   1      -6.528  -0.823 129.540  0.00  0.00    +0.337 A 
ATOM     10  O   LIG A   1      -5.835   0.019 130.110  0.00  0.00    -0.245 OA
ATOM     11  O   LIG A   1      -6.970  -0.665 128.234  0.00  0.00    -0.422 OA
ENDROOT
BRANCH   6  12
ATOM     12  O   LIG A   1      -9.393  -2.076 124.354  0.00  0.00    -0.495 OA
ATOM     13  C   LIG A   1      -9.418  -3.205 123.481  0.00  0.00    +0.277 C 
ENDBRANCH   6  12
BRANCH   1  14
ATOM     14  C   LIG A   1      -7.831  -0.067 125.590  0.00  0.00    +0.076 C 
BRANCH  14  15
ATOM     15  C   LIG A   1      -8.888   1.053 125.706  0.00  0.00    +0.150 C 
BRANCH  15  16
ATOM     16  C   LIG A   1      -8.740   2.156 124.608  0.00  0.00    +0.086 C 
ATOM     17  C   LIG A   1      -7.265   2.396 124.255  0.00  0.00    +0.043 C 
ATOM     18  C   LIG A   1      -9.514   1.828 123.330  0.00  0.00    +0.043 C 
BRANCH  16  19
ATOM     19  O   LIG A   1      -9.252   3.401 125.106  0.00  0.00    -0.387 OA
ATOM     20  H   LIG A   1      -9.469   3.238 126.046  0.00  0.00    +0.210 HD
ENDBRANCH  16  19
ENDBRANCH  15  16
BRANCH  15  21
ATOM     21  O   LIG A   1     -10.206   0.488 125.564  0.00  0.00    -0.389 OA
ATOM     22  H   LIG A   1     -10.105  -0.359 125.098  0.00  0.00    +0.210 HD
ENDBRANCH  15  21
ENDBRANCH  14  15
ENDBRANCH   1  14
TORSDOF 6
ENDMDL
MODEL 5
REMARK VINA RESULT:      -6.5      2.623      5.462
REMARK  Name = NuBBE_1616
REMARK  9 active torsions:
REMARK  status: ('A' for Active; 'I' for Inactive)
REMARK    1  A    between atoms: C_1  and  C_2
REMARK    2  A    between atoms: C_1  and  C_9
REMARK    3  A    between atoms: C_2  and  C_4
REMARK    4  A    between atoms: C_2  and  O_8
REMARK    5  A    between atoms: C_4  and  C_5
REMARK    6  A    between atoms: C_4  and  C_6
REMARK    7  A    between atoms: C_4  and  O_7
REMARK    8  A    between atoms: C_14  and  O_15
REMARK    9  A    between atoms: O_15  and  C_16
REMARK                            x       y       z     vdW  Elec       q    Type
REMARK                         _______ _______ _______ _____ _____    ______ ____
ROOT
ATOM      1  C   LIG A   1      -9.915   5.842 130.237  0.00  0.00    +0.040 A 
ATOM      2  C   LIG A   1     -10.636   6.605 129.302  0.00  0.00    +0.146 A 
ATOM      3  C   LIG A   1     -11.776   7.327 129.644  0.00  0.00    +0.018 A 
ATOM      4  C   LIG A   1     -12.223   7.296 130.963  0.00  0.00    +0.015 A 
ATOM      5  C   LIG A   1     -11.526   6.548 131.918  0.00  0.00    +0.046 A 
ATOM      6  C   LIG A   1     -10.384   5.816 131.564  0.00  0.00    +0.127 A 
ATOM      7  C   LIG A   1     -12.481   8.090 128.626  0.00  0.00    +0.018 A 
ATOM      8  C   LIG A   1     -12.027   8.088 127.368  0.00  0.00    +0.092 A 
ATOM      9  C   LIG A   1     -10.829   7.337 126.970  0.00  0.00    +0.337 A 
ATOM     10  O   LIG A   1     -10.440   7.351 125.802  0.00  0.00    -0.245 OA
ATOM     11  O   LIG A   1     -10.166   6.633 127.966  0.00  0.00    -0.422 OA
ENDROOT
BRANCH   6  12
ATOM     12  O   LIG A   1      -9.646   5.095 132.470  0.00  0.00    -0.495 OA
ATOM     13  C   LIG A   1      -8.752   5.851 133.285  0.00  0.00    +0.277 C 
ENDBRANCH   6  12
BRANCH   1  14
ATOM     14  C   LIG A   1      -8.694   5.040 129.806  0.00  0.00    +0.076 C 
BRANCH  14  15
ATOM     15  C   LIG A   1      -8.952   3.530 129.612  0.00  0.00    +0.150 C 
BRANCH  15  16
ATOM     16  C   LIG A   1      -8.106   2.632 130.571  0.00  0.00    +0.086 C 
ATOM     17  C   LIG A   1      -7.803   1.267 129.935  0.00  0.00    +0.043 C 
ATOM     18  C   LIG A   1      -6.793   3.290 130.996  0.00  0.00    +0.043 C 
BRANCH  16  19
ATOM     19  O   LIG A   1      -8.855   2.370 131.768  0.00  0.00    -0.387 OA
ATOM     20  H   LIG A   1      -9.089   3.248 132.129  0.00  0.00    +0.210 HD
ENDBRANCH  16  19
ENDBRANCH  15  16
BRANCH  15  21
ATOM     21  O   LIG A   1     -10.339   3.240 129.873  0.00  0.00    -0.389 OA
ATOM     22  H   LIG A   1     -10.710   2.859 129.059  0.00  0.00    +0.210 HD
ENDBRANCH  15  21
ENDBRANCH  14  15
ENDBRANCH   1  14
TORSDOF 6
ENDMDL
MODEL 6
REMARK VINA RESULT:      -6.5      8.325      9.809
REMARK  Name = NuBBE_1616
REMARK  9 active torsions:
REMARK  status: ('A' for Active; 'I' for Inactive)
REMARK    1  A    between atoms: C_1  and  C_2
REMARK    2  A    between atoms: C_1  and  C_9
REMARK    3  A    between atoms: C_2  and  C_4
REMARK    4  A    between atoms: C_2  and  O_8
REMARK    5  A    between atoms: C_4  and  C_5
REMARK    6  A    between atoms: C_4  and  C_6
REMARK    7  A    between atoms: C_4  and  O_7
REMARK    8  A    between atoms: C_14  and  O_15
REMARK    9  A    between atoms: O_15  and  C_16
REMARK                            x       y       z     vdW  Elec       q    Type
REMARK                         _______ _______ _______ _____ _____    ______ ____
ROOT
ATOM      1  C   LIG A   1      -7.442   0.366 125.681  0.00  0.00    +0.040 A 
ATOM      2  C   LIG A   1      -7.181   1.507 124.903  0.00  0.00    +0.146 A 
ATOM      3  C   LIG A   1      -6.050   2.298 125.090  0.00  0.00    +0.018 A 
ATOM      4  C   LIG A   1      -5.139   1.947 126.084  0.00  0.00    +0.015 A 
ATOM      5  C   LIG A   1      -5.369   0.816 126.872  0.00  0.00    +0.046 A 
ATOM      6  C   LIG A   1      -6.515   0.030 126.686  0.00  0.00    +0.127 A 
ATOM      7  C   LIG A   1      -5.842   3.471 124.255  0.00  0.00    +0.018 A 
ATOM      8  C   LIG A   1      -6.745   3.781 123.318  0.00  0.00    +0.092 A 
ATOM      9  C   LIG A   1      -7.951   2.972 123.094  0.00  0.00    +0.337 A 
ATOM     10  O   LIG A   1      -8.764   3.288 122.226  0.00  0.00    -0.245 OA
ATOM     11  O   LIG A   1      -8.112   1.848 123.892  0.00  0.00    -0.422 OA
ENDROOT
BRANCH   6  12
ATOM     12  O   LIG A   1      -6.769  -1.108 127.410  0.00  0.00    -0.495 OA
ATOM     13  C   LIG A   1      -5.850  -2.184 127.220  0.00  0.00    +0.277 C 
ENDBRANCH   6  12
BRANCH   1  14
ATOM     14  C   LIG A   1      -8.712  -0.446 125.463  0.00  0.00    +0.076 C 
BRANCH  14  15
ATOM     15  C   LIG A   1      -8.673  -1.386 124.238  0.00  0.00    +0.150 C 
BRANCH  15  16
ATOM     16  C   LIG A   1      -9.021  -2.869 124.588  0.00  0.00    +0.086 C 
ATOM     17  C   LIG A   1      -7.800  -3.784 124.412  0.00  0.00    +0.043 C 
ATOM     18  C   LIG A   1      -9.569  -3.030 126.006  0.00  0.00    +0.043 C 
BRANCH  16  19
ATOM     19  O   LIG A   1     -10.029  -3.350 123.687  0.00  0.00    -0.387 OA
ATOM     20  H   LIG A   1     -10.882  -3.060 124.068  0.00  0.00    +0.210 HD
ENDBRANCH  16  19
ENDBRANCH  15  16
BRANCH  15  21
ATOM     21  O   LIG A   1      -9.635  -0.943 123.261  0.00  0.00    -0.389 OA
ATOM     22  H   LIG A   1     -10.417  -0.634 123.751  0.00  0.00    +0.210 HD
ENDBRANCH  15  21
ENDBRANCH  14  15
ENDBRANCH   1  14
TORSDOF 6
ENDMDL
MODEL 7
REMARK VINA RESULT:      -6.4      2.113      5.774
REMARK  Name = NuBBE_1616
REMARK  9 active torsions:
REMARK  status: ('A' for Active; 'I' for Inactive)
REMARK    1  A    between atoms: C_1  and  C_2
REMARK    2  A    between atoms: C_1  and  C_9
REMARK    3  A    between atoms: C_2  and  C_4
REMARK    4  A    between atoms: C_2  and  O_8
REMARK    5  A    between atoms: C_4  and  C_5
REMARK    6  A    between atoms: C_4  and  C_6
REMARK    7  A    between atoms: C_4  and  O_7
REMARK    8  A    between atoms: C_14  and  O_15
REMARK    9  A    between atoms: O_15  and  C_16
REMARK                            x       y       z     vdW  Elec       q    Type
REMARK                         _______ _______ _______ _____ _____    ______ ____
ROOT
ATOM      1  C   LIG A   1      -6.472   6.408 131.956  0.00  0.00    +0.040 A 
ATOM      2  C   LIG A   1      -7.834   6.518 131.623  0.00  0.00    +0.146 A 
ATOM      3  C   LIG A   1      -8.846   6.003 132.428  0.00  0.00    +0.018 A 
ATOM      4  C   LIG A   1      -8.501   5.354 133.612  0.00  0.00    +0.015 A 
ATOM      5  C   LIG A   1      -7.156   5.231 133.973  0.00  0.00    +0.046 A 
ATOM      6  C   LIG A   1      -6.141   5.743 133.152  0.00  0.00    +0.127 A 
ATOM      7  C   LIG A   1     -10.235   6.144 132.022  0.00  0.00    +0.018 A 
ATOM      8  C   LIG A   1     -10.526   6.765 130.873  0.00  0.00    +0.092 A 
ATOM      9  C   LIG A   1      -9.485   7.318 129.997  0.00  0.00    +0.337 A 
ATOM     10  O   LIG A   1      -9.786   7.880 128.944  0.00  0.00    -0.245 OA
ATOM     11  O   LIG A   1      -8.170   7.186 130.421  0.00  0.00    -0.422 OA
ENDROOT
BRANCH   6  12
ATOM     12  O   LIG A   1      -4.809   5.677 133.478  0.00  0.00    -0.495 OA
ATOM     13  C   LIG A   1      -4.430   6.346 134.681  0.00  0.00    +0.277 C 
ENDBRANCH   6  12
BRANCH   1  14
ATOM     14  C   LIG A   1      -5.400   6.955 131.024  0.00  0.00    +0.076 C 
BRANCH  14  15
ATOM     15  C   LIG A   1      -4.845   5.930 130.009  0.00  0.00    +0.150 C 
BRANCH  15  16
ATOM     16  C   LIG A   1      -3.811   6.548 129.014  0.00  0.00    +0.086 C 
ATOM     17  C   LIG A   1      -2.385   6.489 129.583  0.00  0.00    +0.043 C 
ATOM     18  C   LIG A   1      -3.831   5.872 127.642  0.00  0.00    +0.043 C 
BRANCH  16  19
ATOM     19  O   LIG A   1      -4.114   7.936 128.807  0.00  0.00    -0.387 OA
ATOM     20  H   LIG A   1      -3.708   8.168 127.947  0.00  0.00    +0.210 HD
ENDBRANCH  16  19
ENDBRANCH  15  16
BRANCH  15  21
ATOM     21  O   LIG A   1      -4.173   4.869 130.715  0.00  0.00    -0.389 OA
ATOM     22  H   LIG A   1      -3.217   5.031 130.631  0.00  0.00    +0.210 HD
ENDBRANCH  15  21
ENDBRANCH  14  15
ENDBRANCH   1  14
TORSDOF 6
ENDMDL
MODEL 8
REMARK VINA RESULT:      -6.4      9.299     10.784
REMARK  Name = NuBBE_1616
REMARK  9 active torsions:
REMARK  status: ('A' for Active; 'I' for Inactive)
REMARK    1  A    between atoms: C_1  and  C_2
REMARK    2  A    between atoms: C_1  and  C_9
REMARK    3  A    between atoms: C_2  and  C_4
REMARK    4  A    between atoms: C_2  and  O_8
REMARK    5  A    between atoms: C_4  and  C_5
REMARK    6  A    between atoms: C_4  and  C_6
REMARK    7  A    between atoms: C_4  and  O_7
REMARK    8  A    between atoms: C_14  and  O_15
REMARK    9  A    between atoms: O_15  and  C_16
REMARK                            x       y       z     vdW  Elec       q    Type
REMARK                         _______ _______ _______ _____ _____    ______ ____
ROOT
ATOM      1  C   LIG A   1      -6.726  -2.220 127.164  0.00  0.00    +0.040 A 
ATOM      2  C   LIG A   1      -7.422  -2.461 125.967  0.00  0.00    +0.146 A 
ATOM      3  C   LIG A   1      -8.612  -3.183 125.924  0.00  0.00    +0.018 A 
ATOM      4  C   LIG A   1      -9.138  -3.686 127.112  0.00  0.00    +0.015 A 
ATOM      5  C   LIG A   1      -8.472  -3.460 128.320  0.00  0.00    +0.046 A 
ATOM      6  C   LIG A   1      -7.268  -2.741 128.355  0.00  0.00    +0.127 A 
ATOM      7  C   LIG A   1      -9.278  -3.403 124.650  0.00  0.00    +0.018 A 
ATOM      8  C   LIG A   1      -8.736  -2.913 123.530  0.00  0.00    +0.092 A 
ATOM      9  C   LIG A   1      -7.481  -2.149 123.536  0.00  0.00    +0.337 A 
ATOM     10  O   LIG A   1      -7.007  -1.716 122.486  0.00  0.00    -0.245 OA
ATOM     11  O   LIG A   1      -6.879  -1.938 124.768  0.00  0.00    -0.422 OA
ENDROOT
BRANCH   6  12
ATOM     12  O   LIG A   1      -6.594  -2.464 129.518  0.00  0.00    -0.495 OA
ATOM     13  C   LIG A   1      -6.344  -3.580 130.372  0.00  0.00    +0.277 C 
ENDBRANCH   6  12
BRANCH   1  14
ATOM     14  C   LIG A   1      -5.409  -1.456 127.155  0.00  0.00    +0.076 C 
BRANCH  14  15
ATOM     15  C   LIG A   1      -5.554   0.080 127.221  0.00  0.00    +0.150 C 
BRANCH  15  16
ATOM     16  C   LIG A   1      -5.244   0.668 128.635  0.00  0.00    +0.086 C 
ATOM     17  C   LIG A   1      -4.389   1.940 128.535  0.00  0.00    +0.043 C 
ATOM     18  C   LIG A   1      -6.508   0.976 129.439  0.00  0.00    +0.043 C 
BRANCH  16  19
ATOM     19  O   LIG A   1      -4.481  -0.282 129.394  0.00  0.00    -0.387 OA
ATOM     20  H   LIG A   1      -3.597   0.121 129.506  0.00  0.00    +0.210 HD
ENDBRANCH  16  19
ENDBRANCH  15  16
BRANCH  15  21
ATOM     21  O   LIG A   1      -4.633   0.691 126.297  0.00  0.00    -0.389 OA
ATOM     22  H   LIG A   1      -4.688   1.652 126.432  0.00  0.00    +0.210 HD
ENDBRANCH  15  21
ENDBRANCH  14  15
ENDBRANCH   1  14
TORSDOF 6
ENDMDL
MODEL 9
REMARK VINA RESULT:      -6.2      6.284      9.308
REMARK  Name = NuBBE_1616
REMARK  9 active torsions:
REMARK  status: ('A' for Active; 'I' for Inactive)
REMARK    1  A    between atoms: C_1  and  C_2
REMARK    2  A    between atoms: C_1  and  C_9
REMARK    3  A    between atoms: C_2  and  C_4
REMARK    4  A    between atoms: C_2  and  O_8
REMARK    5  A    between atoms: C_4  and  C_5
REMARK    6  A    between atoms: C_4  and  C_6
REMARK    7  A    between atoms: C_4  and  O_7
REMARK    8  A    between atoms: C_14  and  O_15
REMARK    9  A    between atoms: O_15  and  C_16
REMARK                            x       y       z     vdW  Elec       q    Type
REMARK                         _______ _______ _______ _____ _____    ______ ____
ROOT
ATOM      1  C   LIG A   1      -6.614   3.370 123.540  0.00  0.00    +0.040 A 
ATOM      2  C   LIG A   1      -7.748   2.628 123.915  0.00  0.00    +0.146 A 
ATOM      3  C   LIG A   1      -8.793   2.362 123.034  0.00  0.00    +0.018 A 
ATOM      4  C   LIG A   1      -8.716   2.847 121.730  0.00  0.00    +0.015 A 
ATOM      5  C   LIG A   1      -7.599   3.585 121.326  0.00  0.00    +0.046 A 
ATOM      6  C   LIG A   1      -6.555   3.857 122.221  0.00  0.00    +0.127 A 
ATOM      7  C   LIG A   1      -9.943   1.595 123.487  0.00  0.00    +0.018 A 
ATOM      8  C   LIG A   1      -9.985   1.156 124.750  0.00  0.00    +0.092 A 
ATOM      9  C   LIG A   1      -8.903   1.419 125.708  0.00  0.00    +0.337 A 
ATOM     10  O   LIG A   1      -8.975   1.004 126.864  0.00  0.00    -0.245 OA
ATOM     11  O   LIG A   1      -7.810   2.137 125.241  0.00  0.00    -0.422 OA
ENDROOT
BRANCH   6  12
ATOM     12  O   LIG A   1      -5.423   4.548 121.864  0.00  0.00    -0.495 OA
ATOM     13  C   LIG A   1      -5.255   4.786 120.466  0.00  0.00    +0.277 C 
ENDBRANCH   6  12
BRANCH   1  14
ATOM     14  C   LIG A   1      -5.513   3.666 124.550  0.00  0.00    +0.076 C 
BRANCH  14  15
ATOM     15  C   LIG A   1      -5.914   4.653 125.668  0.00  0.00    +0.150 C 
BRANCH  15  16
ATOM     16  C   LIG A   1      -4.873   4.721 126.832  0.00  0.00    +0.086 C 
ATOM     17  C   LIG A   1      -5.439   4.107 128.122  0.00  0.00    +0.043 C 
ATOM     18  C   LIG A   1      -3.552   4.032 126.487  0.00  0.00    +0.043 C 
BRANCH  16  19
ATOM     19  O   LIG A   1      -4.571   6.093 127.127  0.00  0.00    -0.387 OA
ATOM     20  H   LIG A   1      -4.040   6.413 126.370  0.00  0.00    +0.210 HD
ENDBRANCH  16  19
ENDBRANCH  15  16
BRANCH  15  21
ATOM     21  O   LIG A   1      -6.025   5.981 125.121  0.00  0.00    -0.389 OA
ATOM     22  H   LIG A   1      -6.153   5.885 124.162  0.00  0.00    +0.210 HD
ENDBRANCH  15  21
ENDBRANCH  14  15
ENDBRANCH   1  14
TORSDOF 6
ENDMDL
