MODEL 1
REMARK VINA RESULT:      -7.8      0.000      0.000
REMARK  Name = NuBBE_1714
REMARK  0 active torsions:
REMARK  status: ('A' for Active; 'I' for Inactive)
REMARK                            x       y       z     vdW  Elec       q    Type
REMARK                         _______ _______ _______ _____ _____    ______ ____
ROOT
ATOM      1  O   LIG A   1      -7.351   7.130 130.344  0.00  0.00    -0.286 OA
ATOM      2  C   LIG A   1      -8.156   6.678 131.152  0.00  0.00    +0.204 A 
ATOM      3  C   LIG A   1      -9.608   6.756 130.958  0.00  0.00    +0.110 A 
ATOM      4  C   LIG A   1     -10.449   6.248 131.953  0.00  0.00    +0.143 A 
ATOM      5  O   LIG A   1      -9.991   5.607 133.082  0.00  0.00    -0.455 OA
ATOM      6  C   LIG A   1      -8.633   5.551 133.288  0.00  0.00    +0.139 A 
ATOM      7  C   LIG A   1      -8.200   4.953 134.473  0.00  0.00    +0.047 A 
ATOM      8  C   LIG A   1      -6.834   4.880 134.762  0.00  0.00    +0.004 A 
ATOM      9  C   LIG A   1      -5.897   5.408 133.872  0.00  0.00    +0.001 A 
ATOM     10  C   LIG A   1      -6.325   5.998 132.685  0.00  0.00    +0.015 A 
ATOM     11  C   LIG A   1      -7.692   6.060 132.398  0.00  0.00    +0.065 A 
ATOM     12  C   LIG A   1     -11.844   6.394 131.844  0.00  0.00    +0.051 A 
ATOM     13  C   LIG A   1     -12.403   7.062 130.749  0.00  0.00    +0.053 A 
ATOM     14  C   LIG A   1     -11.544   7.543 129.781  0.00  0.00    +0.167 A 
ATOM     15  C   LIG A   1     -10.179   7.381 129.867  0.00  0.00    +0.181 A 
ATOM     16  O   LIG A   1      -9.541   7.922 128.795  0.00  0.00    -0.452 OA
ATOM     17  C   LIG A   1     -10.624   8.582 128.124  0.00  0.00    +0.466 C 
ATOM     18  O   LIG A   1     -11.915   8.239 128.671  0.00  0.00    -0.453 OA
ENDROOT
TORSDOF 0
ENDMDL
MODEL 2
REMARK VINA RESULT:      -7.7      1.230      5.914
REMARK  Name = NuBBE_1714
REMARK  0 active torsions:
REMARK  status: ('A' for Active; 'I' for Inactive)
REMARK                            x       y       z     vdW  Elec       q    Type
REMARK                         _______ _______ _______ _____ _____    ______ ____
ROOT
ATOM      1  O   LIG A   1     -11.600   5.768 132.204  0.00  0.00    -0.286 OA
ATOM      2  C   LIG A   1     -10.803   6.320 131.452  0.00  0.00    +0.204 A 
ATOM      3  C   LIG A   1      -9.351   6.245 131.637  0.00  0.00    +0.110 A 
ATOM      4  C   LIG A   1      -8.521   6.940 130.752  0.00  0.00    +0.143 A 
ATOM      5  O   LIG A   1      -8.988   7.639 129.661  0.00  0.00    -0.455 OA
ATOM      6  C   LIG A   1     -10.349   7.738 129.491  0.00  0.00    +0.139 A 
ATOM      7  C   LIG A   1     -10.794   8.507 128.415  0.00  0.00    +0.047 A 
ATOM      8  C   LIG A   1     -12.165   8.672 128.192  0.00  0.00    +0.004 A 
ATOM      9  C   LIG A   1     -13.094   8.075 129.046  0.00  0.00    +0.001 A 
ATOM     10  C   LIG A   1     -12.653   7.300 130.117  0.00  0.00    +0.015 A 
ATOM     11  C   LIG A   1     -11.281   7.132 130.329  0.00  0.00    +0.065 A 
ATOM     12  C   LIG A   1      -7.129   6.970 130.959  0.00  0.00    +0.051 A 
ATOM     13  C   LIG A   1      -6.563   6.318 132.061  0.00  0.00    +0.053 A 
ATOM     14  C   LIG A   1      -7.411   5.635 132.910  0.00  0.00    +0.167 A 
ATOM     15  C   LIG A   1      -8.770   5.578 132.698  0.00  0.00    +0.181 A 
ATOM     16  O   LIG A   1      -9.396   4.838 133.653  0.00  0.00    -0.452 OA
ATOM     17  C   LIG A   1      -8.318   4.584 134.566  0.00  0.00    +0.466 C 
ATOM     18  O   LIG A   1      -7.033   4.974 134.039  0.00  0.00    -0.453 OA
ENDROOT
TORSDOF 0
ENDMDL
MODEL 3
REMARK VINA RESULT:      -7.3      2.317      5.575
REMARK  Name = NuBBE_1714
REMARK  0 active torsions:
REMARK  status: ('A' for Active; 'I' for Inactive)
REMARK                            x       y       z     vdW  Elec       q    Type
REMARK                         _______ _______ _______ _____ _____    ______ ____
ROOT
ATOM      1  O   LIG A   1      -8.679   7.627 130.034  0.00  0.00    -0.286 OA
ATOM      2  C   LIG A   1      -9.592   6.808 129.987  0.00  0.00    +0.204 A 
ATOM      3  C   LIG A   1      -9.452   5.430 130.467  0.00  0.00    +0.110 A 
ATOM      4  C   LIG A   1     -10.536   4.556 130.335  0.00  0.00    +0.143 A 
ATOM      5  O   LIG A   1     -11.764   4.937 129.843  0.00  0.00    -0.455 OA
ATOM      6  C   LIG A   1     -11.900   6.219 129.366  0.00  0.00    +0.139 A 
ATOM      7  C   LIG A   1     -13.137   6.556 128.813  0.00  0.00    +0.047 A 
ATOM      8  C   LIG A   1     -13.342   7.835 128.286  0.00  0.00    +0.004 A 
ATOM      9  C   LIG A   1     -12.314   8.778 128.305  0.00  0.00    +0.001 A 
ATOM     10  C   LIG A   1     -11.081   8.448 128.863  0.00  0.00    +0.015 A 
ATOM     11  C   LIG A   1     -10.885   7.170 129.396  0.00  0.00    +0.065 A 
ATOM     12  C   LIG A   1     -10.403   3.203 130.696  0.00  0.00    +0.051 A 
ATOM     13  C   LIG A   1      -9.182   2.713 131.174  0.00  0.00    +0.053 A 
ATOM     14  C   LIG A   1      -8.136   3.605 131.299  0.00  0.00    +0.167 A 
ATOM     15  C   LIG A   1      -8.266   4.937 130.974  0.00  0.00    +0.181 A 
ATOM     16  O   LIG A   1      -7.111   5.622 131.194  0.00  0.00    -0.452 OA
ATOM     17  C   LIG A   1      -6.208   4.556 131.523  0.00  0.00    +0.466 C 
ATOM     18  O   LIG A   1      -6.878   3.294 131.718  0.00  0.00    -0.453 OA
ENDROOT
TORSDOF 0
ENDMDL
MODEL 4
REMARK VINA RESULT:      -7.3      8.537     10.593
REMARK  Name = NuBBE_1714
REMARK  0 active torsions:
REMARK  status: ('A' for Active; 'I' for Inactive)
REMARK                            x       y       z     vdW  Elec       q    Type
REMARK                         _______ _______ _______ _____ _____    ______ ____
ROOT
ATOM      1  O   LIG A   1      -5.399   3.778 123.742  0.00  0.00    -0.286 OA
ATOM      2  C   LIG A   1      -6.398   3.571 123.061  0.00  0.00    +0.204 A 
ATOM      3  C   LIG A   1      -7.579   2.868 123.572  0.00  0.00    +0.110 A 
ATOM      4  C   LIG A   1      -8.656   2.644 122.709  0.00  0.00    +0.143 A 
ATOM      5  O   LIG A   1      -8.705   3.112 121.415  0.00  0.00    -0.455 OA
ATOM      6  C   LIG A   1      -7.594   3.750 120.917  0.00  0.00    +0.139 A 
ATOM      7  C   LIG A   1      -7.647   4.155 119.582  0.00  0.00    +0.047 A 
ATOM      8  C   LIG A   1      -6.546   4.789 118.998  0.00  0.00    +0.004 A 
ATOM      9  C   LIG A   1      -5.388   5.015 119.743  0.00  0.00    +0.001 A 
ATOM     10  C   LIG A   1      -5.333   4.619 121.077  0.00  0.00    +0.015 A 
ATOM     11  C   LIG A   1      -6.441   3.994 121.657  0.00  0.00    +0.065 A 
ATOM     12  C   LIG A   1      -9.763   1.889 123.139  0.00  0.00    +0.051 A 
ATOM     13  C   LIG A   1      -9.790   1.341 124.426  0.00  0.00    +0.053 A 
ATOM     14  C   LIG A   1      -8.714   1.589 125.254  0.00  0.00    +0.167 A 
ATOM     15  C   LIG A   1      -7.640   2.351 124.851  0.00  0.00    +0.181 A 
ATOM     16  O   LIG A   1      -6.711   2.471 125.838  0.00  0.00    -0.452 OA
ATOM     17  C   LIG A   1      -7.233   1.573 126.828  0.00  0.00    +0.466 C 
ATOM     18  O   LIG A   1      -8.565   1.111 126.520  0.00  0.00    -0.453 OA
ENDROOT
TORSDOF 0
ENDMDL
MODEL 5
REMARK VINA RESULT:      -7.0      1.480      5.383
REMARK  Name = NuBBE_1714
REMARK  0 active torsions:
REMARK  status: ('A' for Active; 'I' for Inactive)
REMARK                            x       y       z     vdW  Elec       q    Type
REMARK                         _______ _______ _______ _____ _____    ______ ____
ROOT
ATOM      1  O   LIG A   1      -7.287   7.327 130.487  0.00  0.00    -0.286 OA
ATOM      2  C   LIG A   1      -8.138   6.794 131.191  0.00  0.00    +0.204 A 
ATOM      3  C   LIG A   1      -7.806   6.000 132.379  0.00  0.00    +0.110 A 
ATOM      4  C   LIG A   1      -8.842   5.397 133.098  0.00  0.00    +0.143 A 
ATOM      5  O   LIG A   1     -10.175   5.564 132.797  0.00  0.00    -0.455 OA
ATOM      6  C   LIG A   1     -10.498   6.284 131.672  0.00  0.00    +0.139 A 
ATOM      7  C   LIG A   1     -11.854   6.383 131.355  0.00  0.00    +0.047 A 
ATOM      8  C   LIG A   1     -12.257   7.080 130.211  0.00  0.00    +0.004 A 
ATOM      9  C   LIG A   1     -11.309   7.676 129.379  0.00  0.00    +0.001 A 
ATOM     10  C   LIG A   1      -9.955   7.587 129.696  0.00  0.00    +0.015 A 
ATOM     11  C   LIG A   1      -9.559   6.896 130.845  0.00  0.00    +0.065 A 
ATOM     12  C   LIG A   1      -8.552   4.550 134.184  0.00  0.00    +0.051 A 
ATOM     13  C   LIG A   1      -7.225   4.290 134.544  0.00  0.00    +0.053 A 
ATOM     14  C   LIG A   1      -6.227   4.909 133.818  0.00  0.00    +0.167 A 
ATOM     15  C   LIG A   1      -6.504   5.761 132.772  0.00  0.00    +0.181 A 
ATOM     16  O   LIG A   1      -5.366   6.262 132.219  0.00  0.00    -0.452 OA
ATOM     17  C   LIG A   1      -4.360   5.509 132.911  0.00  0.00    +0.466 C 
ATOM     18  O   LIG A   1      -4.890   4.745 134.015  0.00  0.00    -0.453 OA
ENDROOT
TORSDOF 0
ENDMDL
MODEL 6
REMARK VINA RESULT:      -6.9     10.328     11.520
REMARK  Name = NuBBE_1714
REMARK  0 active torsions:
REMARK  status: ('A' for Active; 'I' for Inactive)
REMARK                            x       y       z     vdW  Elec       q    Type
REMARK                         _______ _______ _______ _____ _____    ______ ____
ROOT
ATOM      1  O   LIG A   1      -5.346  -1.307 125.942  0.00  0.00    -0.286 OA
ATOM      2  C   LIG A   1      -6.411  -1.872 126.169  0.00  0.00    +0.204 A 
ATOM      3  C   LIG A   1      -6.825  -2.283 127.514  0.00  0.00    +0.110 A 
ATOM      4  C   LIG A   1      -8.040  -2.957 127.670  0.00  0.00    +0.143 A 
ATOM      5  O   LIG A   1      -8.914  -3.198 126.634  0.00  0.00    -0.455 OA
ATOM      6  C   LIG A   1      -8.527  -2.841 125.365  0.00  0.00    +0.139 A 
ATOM      7  C   LIG A   1      -9.405  -3.156 124.326  0.00  0.00    +0.047 A 
ATOM      8  C   LIG A   1      -9.068  -2.845 123.005  0.00  0.00    +0.004 A 
ATOM      9  C   LIG A   1      -7.853  -2.224 122.717  0.00  0.00    +0.001 A 
ATOM     10  C   LIG A   1      -6.977  -1.900 123.751  0.00  0.00    +0.015 A 
ATOM     11  C   LIG A   1      -7.323  -2.207 125.070  0.00  0.00    +0.065 A 
ATOM     12  C   LIG A   1      -8.420  -3.451 128.932  0.00  0.00    +0.051 A 
ATOM     13  C   LIG A   1      -7.580  -3.286 130.039  0.00  0.00    +0.053 A 
ATOM     14  C   LIG A   1      -6.392  -2.608 129.851  0.00  0.00    +0.167 A 
ATOM     15  C   LIG A   1      -6.026  -2.098 128.626  0.00  0.00    +0.181 A 
ATOM     16  O   LIG A   1      -4.827  -1.459 128.686  0.00  0.00    -0.452 OA
ATOM     17  C   LIG A   1      -4.408  -1.769 130.023  0.00  0.00    +0.466 C 
ATOM     18  O   LIG A   1      -5.450  -2.385 130.808  0.00  0.00    -0.453 OA
ENDROOT
TORSDOF 0
ENDMDL
MODEL 7
REMARK VINA RESULT:      -6.8      2.523      5.325
REMARK  Name = NuBBE_1714
REMARK  0 active torsions:
REMARK  status: ('A' for Active; 'I' for Inactive)
REMARK                            x       y       z     vdW  Elec       q    Type
REMARK                         _______ _______ _______ _____ _____    ______ ____
ROOT
ATOM      1  O   LIG A   1      -9.737   6.711 127.555  0.00  0.00    -0.286 OA
ATOM      2  C   LIG A   1     -10.115   6.566 128.713  0.00  0.00    +0.204 A 
ATOM      3  C   LIG A   1      -9.565   5.545 129.609  0.00  0.00    +0.110 A 
ATOM      4  C   LIG A   1     -10.086   5.429 130.901  0.00  0.00    +0.143 A 
ATOM      5  O   LIG A   1     -11.045   6.274 131.413  0.00  0.00    -0.455 OA
ATOM      6  C   LIG A   1     -11.587   7.219 130.575  0.00  0.00    +0.139 A 
ATOM      7  C   LIG A   1     -12.604   8.018 131.101  0.00  0.00    +0.047 A 
ATOM      8  C   LIG A   1     -13.220   8.985 130.301  0.00  0.00    +0.004 A 
ATOM      9  C   LIG A   1     -12.826   9.154 128.973  0.00  0.00    +0.001 A 
ATOM     10  C   LIG A   1     -11.807   8.364 128.446  0.00  0.00    +0.015 A 
ATOM     11  C   LIG A   1     -11.189   7.405 129.254  0.00  0.00    +0.065 A 
ATOM     12  C   LIG A   1      -9.648   4.397 131.752  0.00  0.00    +0.051 A 
ATOM     13  C   LIG A   1      -8.701   3.467 131.310  0.00  0.00    +0.053 A 
ATOM     14  C   LIG A   1      -8.201   3.617 130.032  0.00  0.00    +0.167 A 
ATOM     15  C   LIG A   1      -8.603   4.640 129.202  0.00  0.00    +0.181 A 
ATOM     16  O   LIG A   1      -7.966   4.593 128.001  0.00  0.00    -0.452 OA
ATOM     17  C   LIG A   1      -7.259   3.348 128.105  0.00  0.00    +0.466 C 
ATOM     18  O   LIG A   1      -7.300   2.789 129.435  0.00  0.00    -0.453 OA
ENDROOT
TORSDOF 0
ENDMDL
MODEL 8
REMARK VINA RESULT:      -6.7      9.846      9.992
REMARK  Name = NuBBE_1714
REMARK  0 active torsions:
REMARK  status: ('A' for Active; 'I' for Inactive)
REMARK                            x       y       z     vdW  Elec       q    Type
REMARK                         _______ _______ _______ _____ _____    ______ ____
ROOT
ATOM      1  O   LIG A   1      -8.258   0.576 126.874  0.00  0.00    -0.286 OA
ATOM      2  C   LIG A   1      -8.243  -0.650 126.840  0.00  0.00    +0.204 A 
ATOM      3  C   LIG A   1      -8.578  -1.418 125.637  0.00  0.00    +0.110 A 
ATOM      4  C   LIG A   1      -8.572  -2.815 125.706  0.00  0.00    +0.143 A 
ATOM      5  O   LIG A   1      -8.197  -3.520 126.827  0.00  0.00    -0.455 OA
ATOM      6  C   LIG A   1      -7.907  -2.812 127.969  0.00  0.00    +0.139 A 
ATOM      7  C   LIG A   1      -7.593  -3.555 129.108  0.00  0.00    +0.047 A 
ATOM      8  C   LIG A   1      -7.309  -2.904 130.313  0.00  0.00    +0.004 A 
ATOM      9  C   LIG A   1      -7.342  -1.511 130.385  0.00  0.00    +0.001 A 
ATOM     10  C   LIG A   1      -7.647  -0.765 129.248  0.00  0.00    +0.015 A 
ATOM     11  C   LIG A   1      -7.921  -1.422 128.045  0.00  0.00    +0.065 A 
ATOM     12  C   LIG A   1      -8.982  -3.580 124.598  0.00  0.00    +0.051 A 
ATOM     13  C   LIG A   1      -9.415  -2.953 123.425  0.00  0.00    +0.053 A 
ATOM     14  C   LIG A   1      -9.399  -1.573 123.389  0.00  0.00    +0.167 A 
ATOM     15  C   LIG A   1      -8.973  -0.818 124.458  0.00  0.00    +0.181 A 
ATOM     16  O   LIG A   1      -9.032   0.514 124.187  0.00  0.00    -0.452 OA
ATOM     17  C   LIG A   1      -9.693   0.514 122.913  0.00  0.00    +0.466 C 
ATOM     18  O   LIG A   1      -9.812  -0.806 122.343  0.00  0.00    -0.453 OA
ENDROOT
TORSDOF 0
ENDMDL
MODEL 9
REMARK VINA RESULT:      -6.7     10.270     11.707
REMARK  Name = NuBBE_1714
REMARK  0 active torsions:
REMARK  status: ('A' for Active; 'I' for Inactive)
REMARK                            x       y       z     vdW  Elec       q    Type
REMARK                         _______ _______ _______ _____ _____    ______ ____
ROOT
ATOM      1  O   LIG A   1      -9.200  -3.839 127.338  0.00  0.00    -0.286 OA
ATOM      2  C   LIG A   1      -8.330  -3.147 126.821  0.00  0.00    +0.204 A 
ATOM      3  C   LIG A   1      -7.236  -2.538 127.585  0.00  0.00    +0.110 A 
ATOM      4  C   LIG A   1      -6.312  -1.732 126.915  0.00  0.00    +0.143 A 
ATOM      5  O   LIG A   1      -6.324  -1.531 125.553  0.00  0.00    -0.455 OA
ATOM      6  C   LIG A   1      -7.358  -2.075 124.829  0.00  0.00    +0.139 A 
ATOM      7  C   LIG A   1      -7.381  -1.801 123.460  0.00  0.00    +0.047 A 
ATOM      8  C   LIG A   1      -8.416  -2.300 122.663  0.00  0.00    +0.004 A 
ATOM      9  C   LIG A   1      -9.432  -3.070 123.230  0.00  0.00    +0.001 A 
ATOM     10  C   LIG A   1      -9.409  -3.353 124.594  0.00  0.00    +0.015 A 
ATOM     11  C   LIG A   1      -8.367  -2.857 125.384  0.00  0.00    +0.065 A 
ATOM     12  C   LIG A   1      -5.309  -1.055 127.634  0.00  0.00    +0.051 A 
ATOM     13  C   LIG A   1      -5.237  -1.169 129.027  0.00  0.00    +0.053 A 
ATOM     14  C   LIG A   1      -6.160  -1.980 129.655  0.00  0.00    +0.167 A 
ATOM     15  C   LIG A   1      -7.127  -2.667 128.956  0.00  0.00    +0.181 A 
ATOM     16  O   LIG A   1      -7.911  -3.411 129.783  0.00  0.00    -0.452 OA
ATOM     17  C   LIG A   1      -7.445  -2.986 131.072  0.00  0.00    +0.466 C 
ATOM     18  O   LIG A   1      -6.251  -2.179 130.999  0.00  0.00    -0.453 OA
ENDROOT
TORSDOF 0
ENDMDL
