MODEL 1
REMARK VINA RESULT:      -9.9      0.000      0.000
REMARK  Name = NuBBE_1052
REMARK  13 active torsions:
REMARK  status: ('A' for Active; 'I' for Inactive)
REMARK    1  A    between atoms: C_1  and  C_2
REMARK    2  A    between atoms: C_8  and  C_9
REMARK    3  A    between atoms: C_8  and  C_10
REMARK    4  A    between atoms: C_11  and  O_13
REMARK    5  A    between atoms: C_16  and  C_17
REMARK    6  A    between atoms: C_22  and  C_23
REMARK    7  A    between atoms: C_24  and  C_26
REMARK    8  A    between atoms: C_26  and  C_28
REMARK    9  A    between atoms: C_26  and  C_29
REMARK   10  A    between atoms: C_33  and  C_34
REMARK   11  A    between atoms: C_33  and  C_35
REMARK   12  A    between atoms: C_39  and  C_40
REMARK   13  A    between atoms: C_39  and  C_41
REMARK                            x       y       z     vdW  Elec       q    Type
REMARK                         _______ _______ _______ _____ _____    ______ ____
ROOT
ATOM      1  C   LIG A   1      -8.065   2.467 124.498  0.00  0.00    +0.016 C 
ATOM      2  C   LIG A   1      -6.867   2.426 125.479  0.00  0.00    -0.005 C 
ATOM      3  C   LIG A   1      -6.613   0.966 125.875  0.00  0.00    -0.063 C 
ATOM      4  C   LIG A   1      -5.467   0.277 125.685  0.00  0.00    -0.026 C 
ATOM      5  C   LIG A   1      -5.317  -1.129 126.154  0.00  0.00    +0.031 C 
ATOM      6  C   LIG A   1      -6.596  -1.951 125.925  0.00  0.00    +0.007 C 
ATOM      7  C   LIG A   1      -6.836  -2.412 124.429  0.00  0.00    -0.005 C 
ATOM      8  C   LIG A   1      -7.041  -1.251 123.428  0.00  0.00    +0.014 C 
ATOM      9  C   LIG A   1      -5.596  -3.189 123.905  0.00  0.00    +0.014 C 
ATOM     10  C   LIG A   1      -8.086  -3.351 124.370  0.00  0.00    +0.120 C 
ATOM     11  C   LIG A   1      -9.192  -3.038 125.382  0.00  0.00    +0.032 C 
ATOM     12  C   LIG A   1      -9.156  -1.614 125.904  0.00  0.00    +0.010 C 
ATOM     13  C   LIG A   1      -7.825  -1.251 126.637  0.00  0.00    -0.022 C 
ATOM     14  C   LIG A   1      -7.927  -1.843 128.069  0.00  0.00    +0.012 C 
ATOM     15  C   LIG A   1      -7.728   0.340 126.692  0.00  0.00    +0.021 C 
ATOM     16  C   LIG A   1      -7.592   1.032 128.063  0.00  0.00    +0.009 C 
ATOM     17  C   LIG A   1      -7.793   2.556 127.939  0.00  0.00    +0.008 C 
ATOM     18  C   LIG A   1      -7.026   3.299 126.795  0.00  0.00    -0.020 C 
ATOM     19  C   LIG A   1      -7.852   4.570 126.498  0.00  0.00    +0.012 C 
ATOM     20  C   LIG A   1      -5.507   3.579 127.189  0.00  0.00    +0.001 C 
ATOM     21  C   LIG A   1      -4.744   3.624 125.847  0.00  0.00    +0.005 C 
ATOM     22  C   LIG A   1      -5.688   3.122 124.765  0.00  0.00    +0.012 C 
ENDROOT
BRANCH  10  23
ATOM     23  O   LIG A   1      -7.707  -4.716 124.586  0.00  0.00    -0.391 OA
ATOM     24  H   LIG A   1      -6.933  -4.712 125.176  0.00  0.00    +0.210 HD
ENDBRANCH  10  23
BRANCH  20  25
ATOM     25  C   LIG A   1      -5.078   4.749 128.154  0.00  0.00    +0.021 C 
ATOM     26  C   LIG A   1      -3.881   5.574 127.632  0.00  0.00    +0.010 C 
BRANCH  25  27
ATOM     27  C   LIG A   1      -4.745   4.258 129.611  0.00  0.00    +0.154 C 
ATOM     28  C   LIG A   1      -5.837   4.280 130.685  0.00  0.00    +0.182 C 
ATOM     29  O   LIG A   1      -7.064   4.908 130.341  0.00  0.00    -0.341 OA
ATOM     30  C   LIG A   1      -7.440   5.684 131.479  0.00  0.00    +0.166 C 
ATOM     31  C   LIG A   1      -8.143   6.939 130.986  0.00  0.00    +0.073 C 
ATOM     32  C   LIG A   1      -8.355   4.891 132.416  0.00  0.00    +0.073 C 
ATOM     33  O   LIG A   1      -6.265   6.040 132.205  0.00  0.00    -0.341 OA
ATOM     34  C   LIG A   1      -5.279   5.072 131.845  0.00  0.00    +0.184 C 
ATOM     35  C   LIG A   1      -3.971   5.686 131.348  0.00  0.00    +0.093 C 
ATOM     36  C   LIG A   1      -4.048   7.178 131.022  0.00  0.00    +0.044 C 
ATOM     37  C   LIG A   1      -2.840   5.453 132.354  0.00  0.00    +0.044 C 
ATOM     38  O   LIG A   1      -3.620   5.000 130.139  0.00  0.00    -0.365 OA
ENDBRANCH  25  27
ENDBRANCH  20  25
TORSDOF 3
ENDMDL
MODEL 2
REMARK VINA RESULT:      -9.3      2.191      8.426
REMARK  Name = NuBBE_1052
REMARK  13 active torsions:
REMARK  status: ('A' for Active; 'I' for Inactive)
REMARK    1  A    between atoms: C_1  and  C_2
REMARK    2  A    between atoms: C_8  and  C_9
REMARK    3  A    between atoms: C_8  and  C_10
REMARK    4  A    between atoms: C_11  and  O_13
REMARK    5  A    between atoms: C_16  and  C_17
REMARK    6  A    between atoms: C_22  and  C_23
REMARK    7  A    between atoms: C_24  and  C_26
REMARK    8  A    between atoms: C_26  and  C_28
REMARK    9  A    between atoms: C_26  and  C_29
REMARK   10  A    between atoms: C_33  and  C_34
REMARK   11  A    between atoms: C_33  and  C_35
REMARK   12  A    between atoms: C_39  and  C_40
REMARK   13  A    between atoms: C_39  and  C_41
REMARK                            x       y       z     vdW  Elec       q    Type
REMARK                         _______ _______ _______ _____ _____    ______ ____
ROOT
ATOM      1  C   LIG A   1      -5.238   4.677 128.138  0.00  0.00    +0.016 C 
ATOM      2  C   LIG A   1      -6.398   3.716 127.779  0.00  0.00    -0.005 C 
ATOM      3  C   LIG A   1      -7.287   3.542 129.017  0.00  0.00    -0.063 C 
ATOM      4  C   LIG A   1      -8.602   3.835 129.101  0.00  0.00    -0.026 C 
ATOM      5  C   LIG A   1      -9.378   3.581 130.347  0.00  0.00    +0.031 C 
ATOM      6  C   LIG A   1      -8.570   3.927 131.609  0.00  0.00    +0.007 C 
ATOM      7  C   LIG A   1      -8.453   5.475 131.926  0.00  0.00    -0.005 C 
ATOM      8  C   LIG A   1      -7.698   6.291 130.851  0.00  0.00    +0.014 C 
ATOM      9  C   LIG A   1      -9.869   6.111 132.002  0.00  0.00    +0.014 C 
ATOM     10  C   LIG A   1      -7.733   5.670 133.300  0.00  0.00    +0.120 C 
ATOM     11  C   LIG A   1      -6.672   4.620 133.642  0.00  0.00    +0.032 C 
ATOM     12  C   LIG A   1      -6.122   3.891 132.431  0.00  0.00    +0.010 C 
ATOM     13  C   LIG A   1      -7.210   3.116 131.621  0.00  0.00    -0.022 C 
ATOM     14  C   LIG A   1      -7.471   1.788 132.382  0.00  0.00    +0.012 C 
ATOM     15  C   LIG A   1      -6.611   2.825 130.172  0.00  0.00    +0.021 C 
ATOM     16  C   LIG A   1      -6.526   1.366 129.679  0.00  0.00    +0.009 C 
ATOM     17  C   LIG A   1      -5.676   1.262 128.396  0.00  0.00    +0.008 C 
ATOM     18  C   LIG A   1      -5.965   2.284 127.247  0.00  0.00    -0.020 C 
ATOM     19  C   LIG A   1      -4.652   2.387 126.441  0.00  0.00    +0.012 C 
ATOM     20  C   LIG A   1      -7.235   1.856 126.384  0.00  0.00    +0.001 C 
ATOM     21  C   LIG A   1      -7.811   3.178 125.831  0.00  0.00    +0.005 C 
ATOM     22  C   LIG A   1      -7.107   4.321 126.548  0.00  0.00    +0.012 C 
ENDROOT
BRANCH  10  23
ATOM     23  O   LIG A   1      -8.680   5.660 134.376  0.00  0.00    -0.391 OA
ATOM     24  H   LIG A   1      -8.270   5.188 135.120  0.00  0.00    +0.210 HD
ENDBRANCH  10  23
BRANCH  20  25
ATOM     25  C   LIG A   1      -7.178   0.729 125.285  0.00  0.00    +0.021 C 
ATOM     26  C   LIG A   1      -7.030   1.274 123.847  0.00  0.00    +0.010 C 
BRANCH  25  27
ATOM     27  C   LIG A   1      -8.420  -0.237 125.323  0.00  0.00    +0.154 C 
ATOM     28  C   LIG A   1      -8.648  -1.127 126.549  0.00  0.00    +0.182 C 
ATOM     29  O   LIG A   1      -7.617  -1.152 127.525  0.00  0.00    -0.341 OA
ATOM     30  C   LIG A   1      -7.468  -2.521 127.905  0.00  0.00    +0.166 C 
ATOM     31  C   LIG A   1      -6.001  -2.771 128.213  0.00  0.00    +0.073 C 
ATOM     32  C   LIG A   1      -8.335  -2.858 129.121  0.00  0.00    +0.073 C 
ATOM     33  O   LIG A   1      -7.885  -3.349 126.821  0.00  0.00    -0.341 OA
ATOM     34  C   LIG A   1      -8.761  -2.543 126.032  0.00  0.00    +0.184 C 
ATOM     35  C   LIG A   1      -8.376  -2.486 124.555  0.00  0.00    +0.093 C 
ATOM     36  C   LIG A   1      -6.978  -3.019 124.236  0.00  0.00    +0.044 C 
ATOM     37  C   LIG A   1      -9.402  -3.230 123.693  0.00  0.00    +0.044 C 
ATOM     38  O   LIG A   1      -8.408  -1.106 124.166  0.00  0.00    -0.365 OA
ENDBRANCH  25  27
ENDBRANCH  20  25
TORSDOF 3
ENDMDL
MODEL 3
REMARK VINA RESULT:      -9.3      5.579      8.573
REMARK  Name = NuBBE_1052
REMARK  13 active torsions:
REMARK  status: ('A' for Active; 'I' for Inactive)
REMARK    1  A    between atoms: C_1  and  C_2
REMARK    2  A    between atoms: C_8  and  C_9
REMARK    3  A    between atoms: C_8  and  C_10
REMARK    4  A    between atoms: C_11  and  O_13
REMARK    5  A    between atoms: C_16  and  C_17
REMARK    6  A    between atoms: C_22  and  C_23
REMARK    7  A    between atoms: C_24  and  C_26
REMARK    8  A    between atoms: C_26  and  C_28
REMARK    9  A    between atoms: C_26  and  C_29
REMARK   10  A    between atoms: C_33  and  C_34
REMARK   11  A    between atoms: C_33  and  C_35
REMARK   12  A    between atoms: C_39  and  C_40
REMARK   13  A    between atoms: C_39  and  C_41
REMARK                            x       y       z     vdW  Elec       q    Type
REMARK                         _______ _______ _______ _____ _____    ______ ____
ROOT
ATOM      1  C   LIG A   1      -3.443   4.171 130.700  0.00  0.00    +0.016 C 
ATOM      2  C   LIG A   1      -3.577   5.296 131.755  0.00  0.00    -0.005 C 
ATOM      3  C   LIG A   1      -5.066   5.504 132.056  0.00  0.00    -0.063 C 
ATOM      4  C   LIG A   1      -5.660   5.381 133.263  0.00  0.00    -0.026 C 
ATOM      5  C   LIG A   1      -7.113   5.654 133.447  0.00  0.00    +0.031 C 
ATOM      6  C   LIG A   1      -7.952   5.126 132.271  0.00  0.00    +0.007 C 
ATOM      7  C   LIG A   1      -8.185   3.559 132.266  0.00  0.00    -0.005 C 
ATOM      8  C   LIG A   1      -6.894   2.721 132.116  0.00  0.00    +0.014 C 
ATOM      9  C   LIG A   1      -8.809   3.109 133.616  0.00  0.00    +0.014 C 
ATOM     10  C   LIG A   1      -9.163   3.185 131.104  0.00  0.00    +0.120 C 
ATOM     11  C   LIG A   1      -9.067   4.064 129.854  0.00  0.00    +0.032 C 
ATOM     12  C   LIG A   1      -7.742   4.790 129.719  0.00  0.00    +0.010 C 
ATOM     13  C   LIG A   1      -7.432   5.751 130.911  0.00  0.00    -0.022 C 
ATOM     14  C   LIG A   1      -8.244   7.051 130.661  0.00  0.00    +0.012 C 
ATOM     15  C   LIG A   1      -5.866   6.053 130.888  0.00  0.00    +0.021 C 
ATOM     16  C   LIG A   1      -5.390   7.516 130.792  0.00  0.00    +0.009 C 
ATOM     17  C   LIG A   1      -3.877   7.591 130.503  0.00  0.00    +0.008 C 
ATOM     18  C   LIG A   1      -2.928   6.690 131.361  0.00  0.00    -0.020 C 
ATOM     19  C   LIG A   1      -1.669   6.468 130.495  0.00  0.00    +0.012 C 
ATOM     20  C   LIG A   1      -2.638   7.333 132.791  0.00  0.00    +0.001 C 
ATOM     21  C   LIG A   1      -2.348   6.135 133.721  0.00  0.00    +0.005 C 
ATOM     22  C   LIG A   1      -2.721   4.868 132.967  0.00  0.00    +0.012 C 
ENDROOT
BRANCH  10  23
ATOM     23  O   LIG A   1     -10.525   3.250 131.546  0.00  0.00    -0.391 OA
ATOM     24  H   LIG A   1     -10.736   2.397 131.962  0.00  0.00    +0.210 HD
ENDBRANCH  10  23
BRANCH  20  25
ATOM     25  C   LIG A   1      -1.614   8.511 133.003  0.00  0.00    +0.021 C 
ATOM     26  C   LIG A   1      -0.154   8.037 133.176  0.00  0.00    +0.010 C 
BRANCH  25  27
ATOM     27  C   LIG A   1      -1.981   9.439 134.220  0.00  0.00    +0.154 C 
ATOM     28  C   LIG A   1      -2.245  10.930 133.981  0.00  0.00    +0.182 C 
ATOM     29  O   LIG A   1      -1.976  11.429 132.679  0.00  0.00    -0.341 OA
ATOM     30  C   LIG A   1      -1.318  12.683 132.868  0.00  0.00    +0.166 C 
ATOM     31  C   LIG A   1      -0.306  12.861 131.748  0.00  0.00    +0.073 C 
ATOM     32  C   LIG A   1      -2.320  13.841 132.874  0.00  0.00    +0.073 C 
ATOM     33  O   LIG A   1      -0.651  12.670 134.128  0.00  0.00    -0.341 OA
ATOM     34  C   LIG A   1      -1.320  11.680 134.911  0.00  0.00    +0.184 C 
ATOM     35  C   LIG A   1      -0.380  10.634 135.508  0.00  0.00    +0.093 C 
ATOM     36  C   LIG A   1       1.033  10.633 134.922  0.00  0.00    +0.044 C 
ATOM     37  C   LIG A   1      -0.287  10.786 137.030  0.00  0.00    +0.044 C 
ATOM     38  O   LIG A   1      -0.957   9.350 135.238  0.00  0.00    -0.365 OA
ENDBRANCH  25  27
ENDBRANCH  20  25
TORSDOF 3
ENDMDL
MODEL 4
REMARK VINA RESULT:      -9.1      3.346      5.426
REMARK  Name = NuBBE_1052
REMARK  13 active torsions:
REMARK  status: ('A' for Active; 'I' for Inactive)
REMARK    1  A    between atoms: C_1  and  C_2
REMARK    2  A    between atoms: C_8  and  C_9
REMARK    3  A    between atoms: C_8  and  C_10
REMARK    4  A    between atoms: C_11  and  O_13
REMARK    5  A    between atoms: C_16  and  C_17
REMARK    6  A    between atoms: C_22  and  C_23
REMARK    7  A    between atoms: C_24  and  C_26
REMARK    8  A    between atoms: C_26  and  C_28
REMARK    9  A    between atoms: C_26  and  C_29
REMARK   10  A    between atoms: C_33  and  C_34
REMARK   11  A    between atoms: C_33  and  C_35
REMARK   12  A    between atoms: C_39  and  C_40
REMARK   13  A    between atoms: C_39  and  C_41
REMARK                            x       y       z     vdW  Elec       q    Type
REMARK                         _______ _______ _______ _____ _____    ______ ____
ROOT
ATOM      1  C   LIG A   1      -9.567   1.374 131.881  0.00  0.00    +0.016 C 
ATOM      2  C   LIG A   1      -8.254   2.141 131.584  0.00  0.00    -0.005 C 
ATOM      3  C   LIG A   1      -7.110   1.124 131.484  0.00  0.00    -0.063 C 
ATOM      4  C   LIG A   1      -6.312   0.927 130.414  0.00  0.00    -0.026 C 
ATOM      5  C   LIG A   1      -5.197  -0.061 130.446  0.00  0.00    +0.031 C 
ATOM      6  C   LIG A   1      -5.590  -1.349 131.190  0.00  0.00    +0.007 C 
ATOM      7  C   LIG A   1      -6.521  -2.336 130.373  0.00  0.00    -0.005 C 
ATOM      8  C   LIG A   1      -7.910  -1.756 130.018  0.00  0.00    +0.014 C 
ATOM      9  C   LIG A   1      -5.862  -2.682 129.009  0.00  0.00    +0.014 C 
ATOM     10  C   LIG A   1      -6.722  -3.654 131.190  0.00  0.00    +0.120 C 
ATOM     11  C   LIG A   1      -6.736  -3.489 132.712  0.00  0.00    +0.032 C 
ATOM     12  C   LIG A   1      -7.075  -2.083 133.171  0.00  0.00    +0.010 C 
ATOM     13  C   LIG A   1      -6.072  -1.000 132.658  0.00  0.00    -0.022 C 
ATOM     14  C   LIG A   1      -4.826  -1.071 133.582  0.00  0.00    +0.012 C 
ATOM     15  C   LIG A   1      -6.790   0.418 132.790  0.00  0.00    +0.021 C 
ATOM     16  C   LIG A   1      -6.116   1.520 133.631  0.00  0.00    +0.009 C 
ATOM     17  C   LIG A   1      -7.076   2.703 133.869  0.00  0.00    +0.008 C 
ATOM     18  C   LIG A   1      -7.860   3.263 132.636  0.00  0.00    -0.020 C 
ATOM     19  C   LIG A   1      -9.131   3.923 133.216  0.00  0.00    +0.012 C 
ATOM     20  C   LIG A   1      -6.956   4.236 131.755  0.00  0.00    +0.001 C 
ATOM     21  C   LIG A   1      -7.526   4.131 130.324  0.00  0.00    +0.005 C 
ATOM     22  C   LIG A   1      -8.506   2.967 130.304  0.00  0.00    +0.012 C 
ENDROOT
BRANCH  10  23
ATOM     23  O   LIG A   1      -5.687  -4.599 130.891  0.00  0.00    -0.391 OA
ATOM     24  H   LIG A   1      -5.544  -5.137 131.689  0.00  0.00    +0.210 HD
ENDBRANCH  10  23
BRANCH  20  25
ATOM     25  C   LIG A   1      -6.658   5.727 132.167  0.00  0.00    +0.021 C 
ATOM     26  C   LIG A   1      -7.308   6.769 131.229  0.00  0.00    +0.010 C 
BRANCH  25  27
ATOM     27  C   LIG A   1      -5.121   6.046 132.272  0.00  0.00    +0.154 C 
ATOM     28  C   LIG A   1      -4.339   6.424 131.010  0.00  0.00    +0.182 C 
ATOM     29  O   LIG A   1      -5.022   6.302 129.770  0.00  0.00    -0.341 OA
ATOM     30  C   LIG A   1      -4.089   5.713 128.864  0.00  0.00    +0.166 C 
ATOM     31  C   LIG A   1      -4.858   4.816 127.908  0.00  0.00    +0.073 C 
ATOM     32  C   LIG A   1      -3.315   6.782 128.089  0.00  0.00    +0.073 C 
ATOM     33  O   LIG A   1      -3.149   4.938 129.607  0.00  0.00    -0.341 OA
ATOM     34  C   LIG A   1      -3.168   5.471 130.932  0.00  0.00    +0.184 C 
ATOM     35  C   LIG A   1      -3.408   4.418 132.012  0.00  0.00    +0.093 C 
ATOM     36  C   LIG A   1      -3.894   3.065 131.491  0.00  0.00    +0.044 C 
ATOM     37  C   LIG A   1      -2.147   4.203 132.856  0.00  0.00    +0.044 C 
ATOM     38  O   LIG A   1      -4.425   4.933 132.882  0.00  0.00    -0.365 OA
ENDBRANCH  25  27
ENDBRANCH  20  25
TORSDOF 3
ENDMDL
MODEL 5
REMARK VINA RESULT:      -8.9      2.122      8.790
REMARK  Name = NuBBE_1052
REMARK  13 active torsions:
REMARK  status: ('A' for Active; 'I' for Inactive)
REMARK    1  A    between atoms: C_1  and  C_2
REMARK    2  A    between atoms: C_8  and  C_9
REMARK    3  A    between atoms: C_8  and  C_10
REMARK    4  A    between atoms: C_11  and  O_13
REMARK    5  A    between atoms: C_16  and  C_17
REMARK    6  A    between atoms: C_22  and  C_23
REMARK    7  A    between atoms: C_24  and  C_26
REMARK    8  A    between atoms: C_26  and  C_28
REMARK    9  A    between atoms: C_26  and  C_29
REMARK   10  A    between atoms: C_33  and  C_34
REMARK   11  A    between atoms: C_33  and  C_35
REMARK   12  A    between atoms: C_39  and  C_40
REMARK   13  A    between atoms: C_39  and  C_41
REMARK                            x       y       z     vdW  Elec       q    Type
REMARK                         _______ _______ _______ _____ _____    ______ ____
ROOT
ATOM      1  C   LIG A   1      -7.622   3.649 131.375  0.00  0.00    +0.016 C 
ATOM      2  C   LIG A   1      -6.802   2.762 130.406  0.00  0.00    -0.005 C 
ATOM      3  C   LIG A   1      -5.439   3.427 130.175  0.00  0.00    -0.063 C 
ATOM      4  C   LIG A   1      -4.233   2.883 130.440  0.00  0.00    -0.026 C 
ATOM      5  C   LIG A   1      -2.967   3.606 130.130  0.00  0.00    +0.031 C 
ATOM      6  C   LIG A   1      -3.070   5.107 130.448  0.00  0.00    +0.007 C 
ATOM      7  C   LIG A   1      -2.973   5.474 131.986  0.00  0.00    -0.005 C 
ATOM      8  C   LIG A   1      -4.121   4.903 132.852  0.00  0.00    +0.014 C 
ATOM      9  C   LIG A   1      -1.671   4.883 132.593  0.00  0.00    +0.014 C 
ATOM     10  C   LIG A   1      -2.950   7.030 132.147  0.00  0.00    +0.120 C 
ATOM     11  C   LIG A   1      -3.755   7.811 131.106  0.00  0.00    +0.032 C 
ATOM     12  C   LIG A   1      -4.837   6.991 130.428  0.00  0.00    +0.010 C 
ATOM     13  C   LIG A   1      -4.287   5.746 129.661  0.00  0.00    -0.022 C 
ATOM     14  C   LIG A   1      -3.739   6.263 128.303  0.00  0.00    +0.012 C 
ATOM     15  C   LIG A   1      -5.510   4.748 129.430  0.00  0.00    +0.021 C 
ATOM     16  C   LIG A   1      -5.865   4.323 127.991  0.00  0.00    +0.009 C 
ATOM     17  C   LIG A   1      -7.224   3.595 127.946  0.00  0.00    +0.008 C 
ATOM     18  C   LIG A   1      -7.481   2.469 129.001  0.00  0.00    -0.020 C 
ATOM     19  C   LIG A   1      -9.015   2.384 129.155  0.00  0.00    +0.012 C 
ATOM     20  C   LIG A   1      -6.786   1.097 128.580  0.00  0.00    +0.001 C 
ATOM     21  C   LIG A   1      -6.498   0.366 129.909  0.00  0.00    +0.005 C 
ATOM     22  C   LIG A   1      -6.742   1.355 131.039  0.00  0.00    +0.012 C 
ENDROOT
BRANCH  10  23
ATOM     23  O   LIG A   1      -1.607   7.526 132.083  0.00  0.00    -0.391 OA
ATOM     24  H   LIG A   1      -1.639   8.477 132.284  0.00  0.00    +0.210 HD
ENDBRANCH  10  23
BRANCH  20  25
ATOM     25  C   LIG A   1      -7.392   0.133 127.492  0.00  0.00    +0.021 C 
ATOM     26  C   LIG A   1      -7.579  -1.318 127.987  0.00  0.00    +0.010 C 
BRANCH  25  27
ATOM     27  C   LIG A   1      -6.556   0.099 126.159  0.00  0.00    +0.154 C 
ATOM     28  C   LIG A   1      -6.975   0.983 124.981  0.00  0.00    +0.182 C 
ATOM     29  O   LIG A   1      -8.212   1.671 125.101  0.00  0.00    -0.341 OA
ATOM     30  C   LIG A   1      -8.859   1.542 123.835  0.00  0.00    +0.166 C 
ATOM     31  C   LIG A   1     -10.357   1.451 124.074  0.00  0.00    +0.073 C 
ATOM     32  C   LIG A   1      -8.533   2.726 122.921  0.00  0.00    +0.073 C 
ATOM     33  O   LIG A   1      -8.396   0.352 123.199  0.00  0.00    -0.341 OA
ATOM     34  C   LIG A   1      -7.129   0.064 123.791  0.00  0.00    +0.184 C 
ATOM     35  C   LIG A   1      -7.019  -1.358 124.339  0.00  0.00    +0.093 C 
ATOM     36  C   LIG A   1      -8.349  -2.107 124.449  0.00  0.00    +0.044 C 
ATOM     37  C   LIG A   1      -6.045  -2.194 123.502  0.00  0.00    +0.044 C 
ATOM     38  O   LIG A   1      -6.473  -1.257 125.661  0.00  0.00    -0.365 OA
ENDBRANCH  25  27
ENDBRANCH  20  25
TORSDOF 3
ENDMDL
MODEL 6
REMARK VINA RESULT:      -8.9      2.417      4.760
REMARK  Name = NuBBE_1052
REMARK  13 active torsions:
REMARK  status: ('A' for Active; 'I' for Inactive)
REMARK    1  A    between atoms: C_1  and  C_2
REMARK    2  A    between atoms: C_8  and  C_9
REMARK    3  A    between atoms: C_8  and  C_10
REMARK    4  A    between atoms: C_11  and  O_13
REMARK    5  A    between atoms: C_16  and  C_17
REMARK    6  A    between atoms: C_22  and  C_23
REMARK    7  A    between atoms: C_24  and  C_26
REMARK    8  A    between atoms: C_26  and  C_28
REMARK    9  A    between atoms: C_26  and  C_29
REMARK   10  A    between atoms: C_33  and  C_34
REMARK   11  A    between atoms: C_33  and  C_35
REMARK   12  A    between atoms: C_39  and  C_40
REMARK   13  A    between atoms: C_39  and  C_41
REMARK                            x       y       z     vdW  Elec       q    Type
REMARK                         _______ _______ _______ _____ _____    ______ ____
ROOT
ATOM      1  C   LIG A   1      -5.028  -3.110 128.130  0.00  0.00    +0.016 C 
ATOM      2  C   LIG A   1      -6.123  -2.165 128.685  0.00  0.00    -0.005 C 
ATOM      3  C   LIG A   1      -6.942  -1.626 127.506  0.00  0.00    -0.063 C 
ATOM      4  C   LIG A   1      -8.272  -1.775 127.325  0.00  0.00    -0.026 C 
ATOM      5  C   LIG A   1      -8.972  -1.166 126.160  0.00  0.00    +0.031 C 
ATOM      6  C   LIG A   1      -8.141  -1.270 124.870  0.00  0.00    +0.007 C 
ATOM      7  C   LIG A   1      -8.133  -2.701 124.192  0.00  0.00    -0.005 C 
ATOM      8  C   LIG A   1      -7.491  -3.813 125.055  0.00  0.00    +0.014 C 
ATOM      9  C   LIG A   1      -9.590  -3.176 123.934  0.00  0.00    +0.014 C 
ATOM     10  C   LIG A   1      -7.373  -2.625 122.827  0.00  0.00    +0.120 C 
ATOM     11  C   LIG A   1      -6.220  -1.620 122.772  0.00  0.00    +0.032 C 
ATOM     12  C   LIG A   1      -5.665  -1.251 124.135  0.00  0.00    +0.010 C 
ATOM     13  C   LIG A   1      -6.722  -0.600 125.083  0.00  0.00    -0.022 C 
ATOM     14  C   LIG A   1      -6.846   0.889 124.659  0.00  0.00    +0.012 C 
ATOM     15  C   LIG A   1      -6.164  -0.715 126.573  0.00  0.00    +0.021 C 
ATOM     16  C   LIG A   1      -5.985   0.571 127.404  0.00  0.00    +0.009 C 
ATOM     17  C   LIG A   1      -5.185   0.293 128.693  0.00  0.00    +0.008 C 
ATOM     18  C   LIG A   1      -5.601  -0.944 129.555  0.00  0.00    -0.020 C 
ATOM     19  C   LIG A   1      -4.335  -1.349 130.342  0.00  0.00    +0.012 C 
ATOM     20  C   LIG A   1      -6.869  -0.627 130.468  0.00  0.00    +0.001 C 
ATOM     21  C   LIG A   1      -7.570  -1.987 130.673  0.00  0.00    +0.005 C 
ATOM     22  C   LIG A   1      -6.929  -2.982 129.718  0.00  0.00    +0.012 C 
ENDROOT
BRANCH  10  23
ATOM     23  O   LIG A   1      -8.271  -2.277 121.766  0.00  0.00    -0.391 OA
ATOM     24  H   LIG A   1      -9.033  -2.880 121.820  0.00  0.00    +0.210 HD
ENDBRANCH  10  23
BRANCH  20  25
ATOM     25  C   LIG A   1      -6.770   0.197 131.807  0.00  0.00    +0.021 C 
ATOM     26  C   LIG A   1      -7.094  -0.633 133.069  0.00  0.00    +0.010 C 
BRANCH  25  27
ATOM     27  C   LIG A   1      -7.678   1.482 131.813  0.00  0.00    +0.154 C 
ATOM     28  C   LIG A   1      -7.182   2.762 131.133  0.00  0.00    +0.182 C 
ATOM     29  O   LIG A   1      -5.838   2.766 130.674  0.00  0.00    -0.341 OA
ATOM     30  C   LIG A   1      -5.302   4.039 131.036  0.00  0.00    +0.166 C 
ATOM     31  C   LIG A   1      -3.832   3.856 131.375  0.00  0.00    +0.073 C 
ATOM     32  C   LIG A   1      -5.468   5.054 129.902  0.00  0.00    +0.073 C 
ATOM     33  O   LIG A   1      -6.006   4.529 132.175  0.00  0.00    -0.341 OA
ATOM     34  C   LIG A   1      -7.266   3.857 132.172  0.00  0.00    +0.184 C 
ATOM     35  C   LIG A   1      -7.592   3.162 133.493  0.00  0.00    +0.093 C 
ATOM     36  C   LIG A   1      -6.411   3.033 134.457  0.00  0.00    +0.044 C 
ATOM     37  C   LIG A   1      -8.747   3.866 134.212  0.00  0.00    +0.044 C 
ATOM     38  O   LIG A   1      -8.030   1.835 133.171  0.00  0.00    -0.365 OA
ENDBRANCH  25  27
ENDBRANCH  20  25
TORSDOF 3
ENDMDL
MODEL 7
REMARK VINA RESULT:      -8.9      2.987      5.189
REMARK  Name = NuBBE_1052
REMARK  13 active torsions:
REMARK  status: ('A' for Active; 'I' for Inactive)
REMARK    1  A    between atoms: C_1  and  C_2
REMARK    2  A    between atoms: C_8  and  C_9
REMARK    3  A    between atoms: C_8  and  C_10
REMARK    4  A    between atoms: C_11  and  O_13
REMARK    5  A    between atoms: C_16  and  C_17
REMARK    6  A    between atoms: C_22  and  C_23
REMARK    7  A    between atoms: C_24  and  C_26
REMARK    8  A    between atoms: C_26  and  C_28
REMARK    9  A    between atoms: C_26  and  C_29
REMARK   10  A    between atoms: C_33  and  C_34
REMARK   11  A    between atoms: C_33  and  C_35
REMARK   12  A    between atoms: C_39  and  C_40
REMARK   13  A    between atoms: C_39  and  C_41
REMARK                            x       y       z     vdW  Elec       q    Type
REMARK                         _______ _______ _______ _____ _____    ______ ____
ROOT
ATOM      1  C   LIG A   1      -5.916  -4.097 130.022  0.00  0.00    +0.016 C 
ATOM      2  C   LIG A   1      -6.224  -2.626 130.398  0.00  0.00    -0.005 C 
ATOM      3  C   LIG A   1      -6.599  -1.865 129.120  0.00  0.00    -0.063 C 
ATOM      4  C   LIG A   1      -7.765  -1.224 128.889  0.00  0.00    -0.026 C 
ATOM      5  C   LIG A   1      -8.003  -0.475 127.623  0.00  0.00    +0.031 C 
ATOM      6  C   LIG A   1      -7.433  -1.215 126.401  0.00  0.00    +0.007 C 
ATOM      7  C   LIG A   1      -8.294  -2.449 125.904  0.00  0.00    -0.005 C 
ATOM      8  C   LIG A   1      -8.408  -3.602 126.929  0.00  0.00    +0.014 C 
ATOM      9  C   LIG A   1      -9.756  -2.001 125.629  0.00  0.00    +0.014 C 
ATOM     10  C   LIG A   1      -7.677  -3.013 124.582  0.00  0.00    +0.120 C 
ATOM     11  C   LIG A   1      -6.154  -2.899 124.466  0.00  0.00    +0.032 C 
ATOM     12  C   LIG A   1      -5.449  -2.755 125.802  0.00  0.00    +0.010 C 
ATOM     13  C   LIG A   1      -5.887  -1.490 126.606  0.00  0.00    -0.022 C 
ATOM     14  C   LIG A   1      -5.119  -0.285 125.998  0.00  0.00    +0.012 C 
ATOM     15  C   LIG A   1      -5.461  -1.719 128.126  0.00  0.00    +0.021 C 
ATOM     16  C   LIG A   1      -4.532  -0.691 128.803  0.00  0.00    +0.009 C 
ATOM     17  C   LIG A   1      -4.013  -1.219 130.157  0.00  0.00    +0.008 C 
ATOM     18  C   LIG A   1      -5.055  -1.848 131.140  0.00  0.00    -0.020 C 
ATOM     19  C   LIG A   1      -4.251  -2.816 132.035  0.00  0.00    +0.012 C 
ATOM     20  C   LIG A   1      -5.862  -0.729 131.939  0.00  0.00    +0.001 C 
ATOM     21  C   LIG A   1      -7.225  -1.373 132.271  0.00  0.00    +0.005 C 
ATOM     22  C   LIG A   1      -7.325  -2.668 131.479  0.00  0.00    +0.012 C 
ENDROOT
BRANCH  10  23
ATOM     23  O   LIG A   1      -8.226  -2.343 123.440  0.00  0.00    -0.391 OA
ATOM     24  H   LIG A   1      -7.559  -2.382 122.733  0.00  0.00    +0.210 HD
ENDBRANCH  10  23
BRANCH  20  25
ATOM     25  C   LIG A   1      -5.255   0.043 133.171  0.00  0.00    +0.021 C 
ATOM     26  C   LIG A   1      -6.004  -0.223 134.496  0.00  0.00    +0.010 C 
BRANCH  25  27
ATOM     27  C   LIG A   1      -5.176   1.599 132.950  0.00  0.00    +0.154 C 
ATOM     28  C   LIG A   1      -6.412   2.464 133.215  0.00  0.00    +0.182 C 
ATOM     29  O   LIG A   1      -7.627   1.782 133.490  0.00  0.00    -0.341 OA
ATOM     30  C   LIG A   1      -8.639   2.469 132.753  0.00  0.00    +0.166 C 
ATOM     31  C   LIG A   1      -9.667   1.448 132.293  0.00  0.00    +0.073 C 
ATOM     32  C   LIG A   1      -9.305   3.555 133.602  0.00  0.00    +0.073 C 
ATOM     33  O   LIG A   1      -8.039   3.097 131.621  0.00  0.00    -0.341 OA
ATOM     34  C   LIG A   1      -6.659   3.253 131.950  0.00  0.00    +0.184 C 
ATOM     35  C   LIG A   1      -5.710   2.677 130.900  0.00  0.00    +0.093 C 
ATOM     36  C   LIG A   1      -6.377   1.771 129.863  0.00  0.00    +0.044 C 
ATOM     37  C   LIG A   1      -4.954   3.794 130.173  0.00  0.00    +0.044 C 
ATOM     38  O   LIG A   1      -4.741   1.886 131.600  0.00  0.00    -0.365 OA
ENDBRANCH  25  27
ENDBRANCH  20  25
TORSDOF 3
ENDMDL
MODEL 8
REMARK VINA RESULT:      -8.8      4.009      8.123
REMARK  Name = NuBBE_1052
REMARK  13 active torsions:
REMARK  status: ('A' for Active; 'I' for Inactive)
REMARK    1  A    between atoms: C_1  and  C_2
REMARK    2  A    between atoms: C_8  and  C_9
REMARK    3  A    between atoms: C_8  and  C_10
REMARK    4  A    between atoms: C_11  and  O_13
REMARK    5  A    between atoms: C_16  and  C_17
REMARK    6  A    between atoms: C_22  and  C_23
REMARK    7  A    between atoms: C_24  and  C_26
REMARK    8  A    between atoms: C_26  and  C_28
REMARK    9  A    between atoms: C_26  and  C_29
REMARK   10  A    between atoms: C_33  and  C_34
REMARK   11  A    between atoms: C_33  and  C_35
REMARK   12  A    between atoms: C_39  and  C_40
REMARK   13  A    between atoms: C_39  and  C_41
REMARK                            x       y       z     vdW  Elec       q    Type
REMARK                         _______ _______ _______ _____ _____    ______ ____
ROOT
ATOM      1  C   LIG A   1      -4.971   0.703 131.412  0.00  0.00    +0.016 C 
ATOM      2  C   LIG A   1      -6.126   0.321 130.454  0.00  0.00    -0.005 C 
ATOM      3  C   LIG A   1      -6.578  -1.107 130.782  0.00  0.00    -0.063 C 
ATOM      4  C   LIG A   1      -7.819  -1.483 131.160  0.00  0.00    -0.026 C 
ATOM      5  C   LIG A   1      -8.157  -2.912 131.409  0.00  0.00    +0.031 C 
ATOM      6  C   LIG A   1      -7.021  -3.654 132.134  0.00  0.00    +0.007 C 
ATOM      7  C   LIG A   1      -6.904  -3.350 133.683  0.00  0.00    -0.005 C 
ATOM      8  C   LIG A   1      -6.567  -1.878 134.021  0.00  0.00    +0.014 C 
ATOM      9  C   LIG A   1      -8.262  -3.628 134.385  0.00  0.00    +0.014 C 
ATOM     10  C   LIG A   1      -5.808  -4.272 134.312  0.00  0.00    +0.120 C 
ATOM     11  C   LIG A   1      -4.634  -4.619 133.393  0.00  0.00    +0.032 C 
ATOM     12  C   LIG A   1      -4.442  -3.638 132.251  0.00  0.00    +0.010 C 
ATOM     13  C   LIG A   1      -5.678  -3.533 131.303  0.00  0.00    -0.022 C 
ATOM     14  C   LIG A   1      -5.614  -4.756 130.348  0.00  0.00    +0.012 C 
ATOM     15  C   LIG A   1      -5.539  -2.173 130.483  0.00  0.00    +0.021 C 
ATOM     16  C   LIG A   1      -5.524  -2.228 128.942  0.00  0.00    +0.009 C 
ATOM     17  C   LIG A   1      -5.106  -0.870 128.341  0.00  0.00    +0.008 C 
ATOM     18  C   LIG A   1      -5.795   0.417 128.904  0.00  0.00    -0.020 C 
ATOM     19  C   LIG A   1      -4.802   1.570 128.639  0.00  0.00    +0.012 C 
ATOM     20  C   LIG A   1      -7.241   0.636 128.271  0.00  0.00    +0.001 C 
ATOM     21  C   LIG A   1      -8.036   1.415 129.342  0.00  0.00    +0.005 C 
ATOM     22  C   LIG A   1      -7.214   1.404 130.622  0.00  0.00    +0.012 C 
ENDROOT
BRANCH  10  23
ATOM     23  O   LIG A   1      -6.376  -5.517 134.738  0.00  0.00    -0.391 OA
ATOM     24  H   LIG A   1      -6.317  -5.546 135.708  0.00  0.00    +0.210 HD
ENDBRANCH  10  23
BRANCH  20  25
ATOM     25  C   LIG A   1      -7.459   1.224 126.826  0.00  0.00    +0.021 C 
ATOM     26  C   LIG A   1      -7.659   2.756 126.806  0.00  0.00    +0.010 C 
BRANCH  25  27
ATOM     27  C   LIG A   1      -8.661   0.558 126.061  0.00  0.00    +0.154 C 
ATOM     28  C   LIG A   1      -8.553  -0.902 125.607  0.00  0.00    +0.182 C 
ATOM     29  O   LIG A   1      -7.288  -1.529 125.758  0.00  0.00    -0.341 OA
ATOM     30  C   LIG A   1      -7.070  -2.270 124.557  0.00  0.00    +0.166 C 
ATOM     31  C   LIG A   1      -5.582  -2.244 124.247  0.00  0.00    +0.073 C 
ATOM     32  C   LIG A   1      -7.564  -3.712 124.696  0.00  0.00    +0.073 C 
ATOM     33  O   LIG A   1      -7.798  -1.653 123.496  0.00  0.00    -0.341 OA
ATOM     34  C   LIG A   1      -8.842  -0.909 124.123  0.00  0.00    +0.184 C 
ATOM     35  C   LIG A   1      -8.892   0.557 123.695  0.00  0.00    +0.093 C 
ATOM     36  C   LIG A   1      -7.655   1.045 122.938  0.00  0.00    +0.044 C 
ATOM     37  C   LIG A   1     -10.137   0.838 122.848  0.00  0.00    +0.044 C 
ATOM     38  O   LIG A   1      -9.000   1.340 124.891  0.00  0.00    -0.365 OA
ENDBRANCH  25  27
ENDBRANCH  20  25
TORSDOF 3
ENDMDL
MODEL 9
REMARK VINA RESULT:      -8.7      4.230      8.770
REMARK  Name = NuBBE_1052
REMARK  13 active torsions:
REMARK  status: ('A' for Active; 'I' for Inactive)
REMARK    1  A    between atoms: C_1  and  C_2
REMARK    2  A    between atoms: C_8  and  C_9
REMARK    3  A    between atoms: C_8  and  C_10
REMARK    4  A    between atoms: C_11  and  O_13
REMARK    5  A    between atoms: C_16  and  C_17
REMARK    6  A    between atoms: C_22  and  C_23
REMARK    7  A    between atoms: C_24  and  C_26
REMARK    8  A    between atoms: C_26  and  C_28
REMARK    9  A    between atoms: C_26  and  C_29
REMARK   10  A    between atoms: C_33  and  C_34
REMARK   11  A    between atoms: C_33  and  C_35
REMARK   12  A    between atoms: C_39  and  C_40
REMARK   13  A    between atoms: C_39  and  C_41
REMARK                            x       y       z     vdW  Elec       q    Type
REMARK                         _______ _______ _______ _____ _____    ______ ____
ROOT
ATOM      1  C   LIG A   1      -6.093  -4.055 131.179  0.00  0.00    +0.016 C 
ATOM      2  C   LIG A   1      -5.939  -2.832 130.242  0.00  0.00    -0.005 C 
ATOM      3  C   LIG A   1      -5.421  -1.648 131.068  0.00  0.00    -0.063 C 
ATOM      4  C   LIG A   1      -4.276  -0.966 130.851  0.00  0.00    -0.026 C 
ATOM      5  C   LIG A   1      -3.894   0.202 131.694  0.00  0.00    +0.031 C 
ATOM      6  C   LIG A   1      -4.224  -0.027 133.178  0.00  0.00    +0.007 C 
ATOM      7  C   LIG A   1      -3.223  -0.984 133.946  0.00  0.00    -0.005 C 
ATOM      8  C   LIG A   1      -3.195  -2.437 133.416  0.00  0.00    +0.014 C 
ATOM      9  C   LIG A   1      -1.767  -0.465 133.793  0.00  0.00    +0.014 C 
ATOM     10  C   LIG A   1      -3.596  -1.013 135.465  0.00  0.00    +0.120 C 
ATOM     11  C   LIG A   1      -5.087  -0.864 135.780  0.00  0.00    +0.032 C 
ATOM     12  C   LIG A   1      -5.995  -1.232 134.621  0.00  0.00    +0.010 C 
ATOM     13  C   LIG A   1      -5.764  -0.360 133.346  0.00  0.00    -0.022 C 
ATOM     14  C   LIG A   1      -6.503   0.985 133.584  0.00  0.00    +0.012 C 
ATOM     15  C   LIG A   1      -6.401  -1.141 132.111  0.00  0.00    +0.021 C 
ATOM     16  C   LIG A   1      -7.485  -0.442 131.265  0.00  0.00    +0.009 C 
ATOM     17  C   LIG A   1      -8.170  -1.437 130.307  0.00  0.00    +0.008 C 
ATOM     18  C   LIG A   1      -7.253  -2.388 129.468  0.00  0.00    -0.020 C 
ATOM     19  C   LIG A   1      -8.122  -3.621 129.138  0.00  0.00    +0.012 C 
ATOM     20  C   LIG A   1      -6.648  -1.649 128.192  0.00  0.00    +0.001 C 
ATOM     21  C   LIG A   1      -5.314  -2.370 127.902  0.00  0.00    +0.005 C 
ATOM     22  C   LIG A   1      -5.014  -3.275 129.087  0.00  0.00    +0.012 C 
ENDROOT
BRANCH  10  23
ATOM     23  O   LIG A   1      -2.922   0.036 136.173  0.00  0.00    -0.391 OA
ATOM     24  H   LIG A   1      -2.387   0.526 135.525  0.00  0.00    +0.210 HD
ENDBRANCH  10  23
BRANCH  20  25
ATOM     25  C   LIG A   1      -7.482  -1.395 126.879  0.00  0.00    +0.021 C 
ATOM     26  C   LIG A   1      -8.315  -2.617 126.430  0.00  0.00    +0.010 C 
BRANCH  25  27
ATOM     27  C   LIG A   1      -6.599  -0.923 125.666  0.00  0.00    +0.154 C 
ATOM     28  C   LIG A   1      -6.916   0.405 124.971  0.00  0.00    +0.182 C 
ATOM     29  O   LIG A   1      -8.111   1.065 125.362  0.00  0.00    -0.341 OA
ATOM     30  C   LIG A   1      -8.715   1.532 124.156  0.00  0.00    +0.166 C 
ATOM     31  C   LIG A   1     -10.225   1.459 124.321  0.00  0.00    +0.073 C 
ATOM     32  C   LIG A   1      -8.281   2.965 123.835  0.00  0.00    +0.073 C 
ATOM     33  O   LIG A   1      -8.303   0.693 123.078  0.00  0.00    -0.341 OA
ATOM     34  C   LIG A   1      -7.081   0.090 123.502  0.00  0.00    +0.184 C 
ATOM     35  C   LIG A   1      -7.082  -1.435 123.395  0.00  0.00    +0.093 C 
ATOM     36  C   LIG A   1      -8.459  -2.060 123.165  0.00  0.00    +0.044 C 
ATOM     37  C   LIG A   1      -6.131  -1.906 122.290  0.00  0.00    +0.044 C 
ATOM     38  O   LIG A   1      -6.582  -1.943 124.639  0.00  0.00    -0.365 OA
ENDBRANCH  25  27
ENDBRANCH  20  25
TORSDOF 3
ENDMDL
