MODEL 1
REMARK VINA RESULT:      -7.6      0.000      0.000
REMARK  Name = NuBBE_98
REMARK  7 active torsions:
REMARK  status: ('A' for Active; 'I' for Inactive)
REMARK    1  A    between atoms: C_4  and  C_6
REMARK    2  A    between atoms: C_6  and  C_7
REMARK    3  A    between atoms: C_7  and  O_8
REMARK    4  A    between atoms: C_9  and  C_10
REMARK    5  A    between atoms: C_24  and  C_25
REMARK    6  A    between atoms: C_25  and  O_26
REMARK    7  A    between atoms: O_26  and  C_27
REMARK                            x       y       z     vdW  Elec       q    Type
REMARK                         _______ _______ _______ _____ _____    ______ ____
ROOT
ATOM      1  C   LIG A   1      -8.688   1.418 125.386  0.00  0.00    +0.121 C 
ATOM      2  C   LIG A   1      -7.925   0.624 126.452  0.00  0.00    +0.041 C 
ATOM      3  C   LIG A   1      -7.202  -0.631 125.912  0.00  0.00    +0.057 C 
ATOM      4  C   LIG A   1      -7.847   2.217 124.429  0.00  0.00    +0.041 A 
ATOM      5  C   LIG A   1      -8.158   2.407 123.093  0.00  0.00    -0.016 A 
ATOM      6  C   LIG A   1      -7.113   3.171 122.511  0.00  0.00    +0.003 A 
ATOM      7  C   LIG A   1      -6.836   3.625 121.207  0.00  0.00    +0.010 A 
ATOM      8  C   LIG A   1      -5.674   4.370 120.972  0.00  0.00    +0.001 A 
ATOM      9  C   LIG A   1      -4.803   4.671 122.016  0.00  0.00    +0.002 A 
ATOM     10  C   LIG A   1      -5.058   4.234 123.320  0.00  0.00    +0.026 A 
ATOM     11  C   LIG A   1      -6.217   3.478 123.539  0.00  0.00    +0.047 A 
ATOM     12  N   LIG A   1      -6.698   2.905 124.699  0.00  0.00    -0.356 N 
ATOM     13  C   LIG A   1      -9.380   1.801 122.471  0.00  0.00    +0.056 C 
ATOM     14  C   LIG A   1     -10.338   1.247 123.559  0.00  0.00    +0.110 C 
ATOM     15  N   LIG A   1      -9.576   0.499 124.604  0.00  0.00    -0.326 N 
ATOM     16  C   LIG A   1      -9.066  -0.755 124.260  0.00  0.00    +0.082 C 
ATOM     17  C   LIG A   1      -7.957  -1.298 124.783  0.00  0.00    +0.057 C 
ATOM     18  H   LIG A   1      -6.243   2.973 125.598  0.00  0.00    +0.166 HD
ENDROOT
BRANCH   3  19
ATOM     19  C   LIG A   1      -6.892  -1.576 127.098  0.00  0.00    -0.041 C 
ATOM     20  C   LIG A   1      -7.870  -2.130 127.850  0.00  0.00    -0.028 C 
ATOM     21  C   LIG A   1      -7.742  -3.065 129.012  0.00  0.00    +0.035 C 
BRANCH  19  22
ATOM     22  C   LIG A   1      -5.425  -1.843 127.311  0.00  0.00    +0.187 C 
BRANCH  22  23
ATOM     23  O   LIG A   1      -4.878  -0.784 128.082  0.00  0.00    -0.391 OA
ATOM     24  H   LIG A   1      -5.638  -0.288 128.431  0.00  0.00    +0.210 HD
ENDBRANCH  22  23
ENDBRANCH  19  22
ENDBRANCH   3  19
BRANCH  17  25
ATOM     25  C   LIG A   1      -7.442  -2.528 124.128  0.00  0.00    +0.337 C 
ATOM     26  O   LIG A   1      -7.921  -3.639 124.276  0.00  0.00    -0.245 OA
BRANCH  25  27
ATOM     27  O   LIG A   1      -6.383  -2.218 123.337  0.00  0.00    -0.465 OA
ATOM     28  C   LIG A   1      -5.180  -2.942 123.594  0.00  0.00    +0.280 C 
ENDBRANCH  25  27
ENDBRANCH  17  25
TORSDOF 5
ENDMDL
MODEL 2
REMARK VINA RESULT:      -7.2      2.645      6.651
REMARK  Name = NuBBE_98
REMARK  7 active torsions:
REMARK  status: ('A' for Active; 'I' for Inactive)
REMARK    1  A    between atoms: C_4  and  C_6
REMARK    2  A    between atoms: C_6  and  C_7
REMARK    3  A    between atoms: C_7  and  O_8
REMARK    4  A    between atoms: C_9  and  C_10
REMARK    5  A    between atoms: C_24  and  C_25
REMARK    6  A    between atoms: C_25  and  O_26
REMARK    7  A    between atoms: O_26  and  C_27
REMARK                            x       y       z     vdW  Elec       q    Type
REMARK                         _______ _______ _______ _____ _____    ______ ____
ROOT
ATOM      1  C   LIG A   1      -6.333  -1.317 124.400  0.00  0.00    +0.121 C 
ATOM      2  C   LIG A   1      -6.054   0.177 124.198  0.00  0.00    +0.041 C 
ATOM      3  C   LIG A   1      -7.320   1.062 124.175  0.00  0.00    +0.057 C 
ATOM      4  C   LIG A   1      -6.744  -1.731 125.786  0.00  0.00    +0.041 A 
ATOM      5  C   LIG A   1      -7.656  -2.737 126.060  0.00  0.00    -0.016 A 
ATOM      6  C   LIG A   1      -7.816  -2.804 127.468  0.00  0.00    +0.003 A 
ATOM      7  C   LIG A   1      -8.628  -3.565 128.330  0.00  0.00    +0.010 A 
ATOM      8  C   LIG A   1      -8.539  -3.365 129.712  0.00  0.00    +0.001 A 
ATOM      9  C   LIG A   1      -7.649  -2.430 130.237  0.00  0.00    +0.002 A 
ATOM     10  C   LIG A   1      -6.829  -1.664 129.401  0.00  0.00    +0.026 A 
ATOM     11  C   LIG A   1      -6.939  -1.864 128.019  0.00  0.00    +0.047 A 
ATOM     12  N   LIG A   1      -6.283  -1.242 126.975  0.00  0.00    -0.356 N 
ATOM     13  C   LIG A   1      -8.340  -3.503 124.967  0.00  0.00    +0.056 C 
ATOM     14  C   LIG A   1      -7.664  -3.233 123.596  0.00  0.00    +0.110 C 
ATOM     15  N   LIG A   1      -7.374  -1.777 123.426  0.00  0.00    -0.326 N 
ATOM     16  C   LIG A   1      -8.454  -0.926 123.184  0.00  0.00    +0.082 C 
ATOM     17  C   LIG A   1      -8.508   0.363 123.551  0.00  0.00    +0.057 C 
ATOM     18  H   LIG A   1      -5.588  -0.518 127.092  0.00  0.00    +0.166 HD
ENDROOT
BRANCH   3  19
ATOM     19  C   LIG A   1      -6.971   2.413 123.507  0.00  0.00    -0.041 C 
ATOM     20  C   LIG A   1      -6.624   2.501 122.202  0.00  0.00    -0.028 C 
ATOM     21  C   LIG A   1      -6.272   3.720 121.406  0.00  0.00    +0.035 C 
BRANCH  19  22
ATOM     22  C   LIG A   1      -7.085   3.605 124.420  0.00  0.00    +0.187 C 
BRANCH  22  23
ATOM     23  O   LIG A   1      -8.431   4.058 124.409  0.00  0.00    -0.391 OA
ATOM     24  H   LIG A   1      -8.732   3.976 123.487  0.00  0.00    +0.210 HD
ENDBRANCH  22  23
ENDBRANCH  19  22
ENDBRANCH   3  19
BRANCH  17  25
ATOM     25  C   LIG A   1      -9.824   1.041 123.419  0.00  0.00    +0.337 C 
ATOM     26  O   LIG A   1     -10.490   1.059 122.399  0.00  0.00    -0.245 OA
BRANCH  25  27
ATOM     27  O   LIG A   1     -10.167   1.611 124.603  0.00  0.00    -0.465 OA
ATOM     28  C   LIG A   1      -9.993   0.795 125.761  0.00  0.00    +0.280 C 
ENDBRANCH  25  27
ENDBRANCH  17  25
TORSDOF 5
ENDMDL
MODEL 3
REMARK VINA RESULT:      -7.1      5.791      7.381
REMARK  Name = NuBBE_98
REMARK  7 active torsions:
REMARK  status: ('A' for Active; 'I' for Inactive)
REMARK    1  A    between atoms: C_4  and  C_6
REMARK    2  A    between atoms: C_6  and  C_7
REMARK    3  A    between atoms: C_7  and  O_8
REMARK    4  A    between atoms: C_9  and  C_10
REMARK    5  A    between atoms: C_24  and  C_25
REMARK    6  A    between atoms: C_25  and  O_26
REMARK    7  A    between atoms: O_26  and  C_27
REMARK                            x       y       z     vdW  Elec       q    Type
REMARK                         _______ _______ _______ _____ _____    ______ ____
ROOT
ATOM      1  C   LIG A   1      -8.330   4.592 130.415  0.00  0.00    +0.121 C 
ATOM      2  C   LIG A   1      -7.014   4.746 129.645  0.00  0.00    +0.041 C 
ATOM      3  C   LIG A   1      -7.048   4.175 128.210  0.00  0.00    +0.057 C 
ATOM      4  C   LIG A   1      -9.451   5.502 129.994  0.00  0.00    +0.041 A 
ATOM      5  C   LIG A   1     -10.788   5.139 129.990  0.00  0.00    -0.016 A 
ATOM      6  C   LIG A   1     -11.533   6.240 129.492  0.00  0.00    +0.003 A 
ATOM      7  C   LIG A   1     -12.895   6.456 129.205  0.00  0.00    +0.010 A 
ATOM      8  C   LIG A   1     -13.301   7.695 128.699  0.00  0.00    +0.001 A 
ATOM      9  C   LIG A   1     -12.373   8.713 128.489  0.00  0.00    +0.002 A 
ATOM     10  C   LIG A   1     -11.016   8.524 128.770  0.00  0.00    +0.026 A 
ATOM     11  C   LIG A   1     -10.621   7.274 129.263  0.00  0.00    +0.047 A 
ATOM     12  N   LIG A   1      -9.365   6.806 129.597  0.00  0.00    -0.356 N 
ATOM     13  C   LIG A   1     -11.237   3.768 130.398  0.00  0.00    +0.056 C 
ATOM     14  C   LIG A   1     -10.083   2.991 131.088  0.00  0.00    +0.110 C 
ATOM     15  N   LIG A   1      -8.802   3.172 130.341  0.00  0.00    -0.326 N 
ATOM     16  C   LIG A   1      -8.665   2.509 129.121  0.00  0.00    +0.082 C 
ATOM     17  C   LIG A   1      -7.922   2.946 128.092  0.00  0.00    +0.057 C 
ATOM     18  H   LIG A   1      -8.518   7.353 129.528  0.00  0.00    +0.166 HD
ENDROOT
BRANCH   3  19
ATOM     19  C   LIG A   1      -5.594   3.953 127.728  0.00  0.00    -0.041 C 
ATOM     20  C   LIG A   1      -4.653   3.386 128.518  0.00  0.00    -0.028 C 
ATOM     21  C   LIG A   1      -3.220   3.091 128.204  0.00  0.00    +0.035 C 
BRANCH  19  22
ATOM     22  C   LIG A   1      -5.337   4.387 126.309  0.00  0.00    +0.187 C 
BRANCH  22  23
ATOM     23  O   LIG A   1      -6.379   5.263 125.907  0.00  0.00    -0.391 OA
ATOM     24  H   LIG A   1      -6.107   6.152 126.195  0.00  0.00    +0.210 HD
ENDBRANCH  22  23
ENDBRANCH  19  22
ENDBRANCH   3  19
BRANCH  17  25
ATOM     25  C   LIG A   1      -8.085   2.232 126.799  0.00  0.00    +0.337 C 
ATOM     26  O   LIG A   1      -7.794   1.062 126.616  0.00  0.00    -0.245 OA
BRANCH  25  27
ATOM     27  O   LIG A   1      -8.619   3.072 125.875  0.00  0.00    -0.465 OA
ATOM     28  C   LIG A   1      -8.677   2.573 124.539  0.00  0.00    +0.280 C 
ENDBRANCH  25  27
ENDBRANCH  17  25
TORSDOF 5
ENDMDL
MODEL 4
REMARK VINA RESULT:      -7.0      8.511     10.353
REMARK  Name = NuBBE_98
REMARK  7 active torsions:
REMARK  status: ('A' for Active; 'I' for Inactive)
REMARK    1  A    between atoms: C_4  and  C_6
REMARK    2  A    between atoms: C_6  and  C_7
REMARK    3  A    between atoms: C_7  and  O_8
REMARK    4  A    between atoms: C_9  and  C_10
REMARK    5  A    between atoms: C_24  and  C_25
REMARK    6  A    between atoms: C_25  and  O_26
REMARK    7  A    between atoms: O_26  and  C_27
REMARK                            x       y       z     vdW  Elec       q    Type
REMARK                         _______ _______ _______ _____ _____    ______ ____
ROOT
ATOM      1  C   LIG A   1      -9.092   3.777 132.652  0.00  0.00    +0.121 C 
ATOM      2  C   LIG A   1      -8.619   4.167 134.058  0.00  0.00    +0.041 C 
ATOM      3  C   LIG A   1      -7.520   5.252 134.079  0.00  0.00    +0.057 C 
ATOM      4  C   LIG A   1      -9.958   4.783 131.945  0.00  0.00    +0.041 A 
ATOM      5  C   LIG A   1      -9.925   5.015 130.580  0.00  0.00    -0.016 A 
ATOM      6  C   LIG A   1     -10.847   6.056 130.296  0.00  0.00    +0.003 A 
ATOM      7  C   LIG A   1     -11.210   6.756 129.129  0.00  0.00    +0.010 A 
ATOM      8  C   LIG A   1     -12.177   7.765 129.208  0.00  0.00    +0.001 A 
ATOM      9  C   LIG A   1     -12.786   8.070 130.423  0.00  0.00    +0.002 A 
ATOM     10  C   LIG A   1     -12.444   7.386 131.595  0.00  0.00    +0.026 A 
ATOM     11  C   LIG A   1     -11.464   6.389 131.505  0.00  0.00    +0.047 A 
ATOM     12  N   LIG A   1     -10.922   5.584 132.488  0.00  0.00    -0.356 N 
ATOM     13  C   LIG A   1      -8.985   4.276 129.675  0.00  0.00    +0.056 C 
ATOM     14  C   LIG A   1      -8.342   3.070 130.410  0.00  0.00    +0.110 C 
ATOM     15  N   LIG A   1      -7.911   3.458 131.787  0.00  0.00    -0.326 N 
ATOM     16  C   LIG A   1      -6.783   4.272 131.907  0.00  0.00    +0.082 C 
ATOM     17  C   LIG A   1      -6.576   5.149 132.901  0.00  0.00    +0.057 C 
ATOM     18  H   LIG A   1     -11.192   5.616 133.461  0.00  0.00    +0.166 HD
ENDROOT
BRANCH   3  19
ATOM     19  C   LIG A   1      -6.807   5.212 135.453  0.00  0.00    -0.041 C 
ATOM     20  C   LIG A   1      -5.989   4.195 135.809  0.00  0.00    -0.028 C 
ATOM     21  C   LIG A   1      -5.221   4.011 137.080  0.00  0.00    +0.035 C 
BRANCH  19  22
ATOM     22  C   LIG A   1      -7.078   6.407 136.328  0.00  0.00    +0.187 C 
BRANCH  22  23
ATOM     23  O   LIG A   1      -8.441   6.380 136.723  0.00  0.00    -0.391 OA
ATOM     24  H   LIG A   1      -8.451   6.020 137.627  0.00  0.00    +0.210 HD
ENDBRANCH  22  23
ENDBRANCH  19  22
ENDBRANCH   3  19
BRANCH  17  25
ATOM     25  C   LIG A   1      -5.438   6.090 132.735  0.00  0.00    +0.337 C 
ATOM     26  O   LIG A   1      -4.445   6.103 133.442  0.00  0.00    -0.245 OA
BRANCH  25  27
ATOM     27  O   LIG A   1      -5.670   6.908 131.676  0.00  0.00    -0.465 OA
ATOM     28  C   LIG A   1      -4.536   7.213 130.864  0.00  0.00    +0.280 C 
ENDBRANCH  25  27
ENDBRANCH  17  25
TORSDOF 5
ENDMDL
MODEL 5
REMARK VINA RESULT:      -6.9     12.364     15.082
REMARK  Name = NuBBE_98
REMARK  7 active torsions:
REMARK  status: ('A' for Active; 'I' for Inactive)
REMARK    1  A    between atoms: C_4  and  C_6
REMARK    2  A    between atoms: C_6  and  C_7
REMARK    3  A    between atoms: C_7  and  O_8
REMARK    4  A    between atoms: C_9  and  C_10
REMARK    5  A    between atoms: C_24  and  C_25
REMARK    6  A    between atoms: C_25  and  O_26
REMARK    7  A    between atoms: O_26  and  C_27
REMARK                            x       y       z     vdW  Elec       q    Type
REMARK                         _______ _______ _______ _____ _____    ______ ____
ROOT
ATOM      1  C   LIG A   1      -1.874   9.174 134.099  0.00  0.00    +0.121 C 
ATOM      2  C   LIG A   1      -2.293  10.647 134.159  0.00  0.00    +0.041 C 
ATOM      3  C   LIG A   1      -1.418  11.591 133.304  0.00  0.00    +0.057 C 
ATOM      4  C   LIG A   1      -2.196   8.447 132.821  0.00  0.00    +0.041 A 
ATOM      5  C   LIG A   1      -1.393   7.468 132.260  0.00  0.00    -0.016 A 
ATOM      6  C   LIG A   1      -2.002   7.053 131.047  0.00  0.00    +0.003 A 
ATOM      7  C   LIG A   1      -1.645   6.152 130.025  0.00  0.00    +0.010 A 
ATOM      8  C   LIG A   1      -2.498   5.985 128.929  0.00  0.00    +0.001 A 
ATOM      9  C   LIG A   1      -3.696   6.692 128.849  0.00  0.00    +0.002 A 
ATOM     10  C   LIG A   1      -4.074   7.590 129.852  0.00  0.00    +0.026 A 
ATOM     11  C   LIG A   1      -3.204   7.759 130.937  0.00  0.00    +0.047 A 
ATOM     12  N   LIG A   1      -3.309   8.583 132.041  0.00  0.00    -0.356 N 
ATOM     13  C   LIG A   1      -0.095   7.055 132.885  0.00  0.00    +0.056 C 
ATOM     14  C   LIG A   1       0.030   7.622 134.325  0.00  0.00    +0.110 C 
ATOM     15  N   LIG A   1      -0.406   9.050 134.372  0.00  0.00    -0.326 N 
ATOM     16  C   LIG A   1       0.440  10.005 133.806  0.00  0.00    +0.082 C 
ATOM     17  C   LIG A   1       0.030  11.157 133.254  0.00  0.00    +0.057 C 
ATOM     18  H   LIG A   1      -4.086   9.204 132.214  0.00  0.00    +0.166 HD
ENDROOT
BRANCH   3  19
ATOM     19  C   LIG A   1      -1.616  13.042 133.804  0.00  0.00    -0.041 C 
ATOM     20  C   LIG A   1      -1.192  13.447 135.024  0.00  0.00    -0.028 C 
ATOM     21  C   LIG A   1      -1.294  14.803 135.648  0.00  0.00    +0.035 C 
BRANCH  19  22
ATOM     22  C   LIG A   1      -2.284  13.956 132.810  0.00  0.00    +0.187 C 
BRANCH  22  23
ATOM     23  O   LIG A   1      -1.715  13.727 131.530  0.00  0.00    -0.391 OA
ATOM     24  H   LIG A   1      -0.768  13.565 131.684  0.00  0.00    +0.210 HD
ENDBRANCH  22  23
ENDBRANCH  19  22
ENDBRANCH   3  19
BRANCH  17  25
ATOM     25  C   LIG A   1       1.046  11.933 132.496  0.00  0.00    +0.337 C 
ATOM     26  O   LIG A   1       0.877  12.378 131.374  0.00  0.00    -0.245 OA
BRANCH  25  27
ATOM     27  O   LIG A   1       2.167  12.079 133.249  0.00  0.00    -0.465 OA
ATOM     28  C   LIG A   1       2.304  13.327 133.926  0.00  0.00    +0.280 C 
ENDBRANCH  25  27
ENDBRANCH  17  25
TORSDOF 5
ENDMDL
MODEL 6
REMARK VINA RESULT:      -6.9      6.924      8.645
REMARK  Name = NuBBE_98
REMARK  7 active torsions:
REMARK  status: ('A' for Active; 'I' for Inactive)
REMARK    1  A    between atoms: C_4  and  C_6
REMARK    2  A    between atoms: C_6  and  C_7
REMARK    3  A    between atoms: C_7  and  O_8
REMARK    4  A    between atoms: C_9  and  C_10
REMARK    5  A    between atoms: C_24  and  C_25
REMARK    6  A    between atoms: C_25  and  O_26
REMARK    7  A    between atoms: O_26  and  C_27
REMARK                            x       y       z     vdW  Elec       q    Type
REMARK                         _______ _______ _______ _____ _____    ______ ____
ROOT
ATOM      1  C   LIG A   1      -8.146   6.785 131.540  0.00  0.00    +0.121 C 
ATOM      2  C   LIG A   1      -6.780   6.645 130.859  0.00  0.00    +0.041 C 
ATOM      3  C   LIG A   1      -6.571   5.302 130.125  0.00  0.00    +0.057 C 
ATOM      4  C   LIG A   1      -9.319   7.010 130.627  0.00  0.00    +0.041 A 
ATOM      5  C   LIG A   1     -10.588   6.500 130.849  0.00  0.00    -0.016 A 
ATOM      6  C   LIG A   1     -11.407   6.886 129.757  0.00  0.00    +0.003 A 
ATOM      7  C   LIG A   1     -12.742   6.630 129.391  0.00  0.00    +0.010 A 
ATOM      8  C   LIG A   1     -13.245   7.175 128.205  0.00  0.00    +0.001 A 
ATOM      9  C   LIG A   1     -12.440   7.974 127.395  0.00  0.00    +0.002 A 
ATOM     10  C   LIG A   1     -11.112   8.246 127.739  0.00  0.00    +0.026 A 
ATOM     11  C   LIG A   1     -10.617   7.682 128.922  0.00  0.00    +0.047 A 
ATOM     12  N   LIG A   1      -9.359   7.760 129.486  0.00  0.00    -0.356 N 
ATOM     13  C   LIG A   1     -10.897   5.643 132.040  0.00  0.00    +0.056 C 
ATOM     14  C   LIG A   1      -9.741   5.694 133.074  0.00  0.00    +0.110 C 
ATOM     15  N   LIG A   1      -8.416   5.583 132.392  0.00  0.00    -0.326 N 
ATOM     16  C   LIG A   1      -8.052   4.335 131.884  0.00  0.00    +0.082 C 
ATOM     17  C   LIG A   1      -7.258   4.146 130.819  0.00  0.00    +0.057 C 
ATOM     18  H   LIG A   1      -8.588   8.277 129.086  0.00  0.00    +0.166 HD
ENDROOT
BRANCH   3  19
ATOM     19  C   LIG A   1      -5.055   5.084 129.906  0.00  0.00    -0.041 C 
ATOM     20  C   LIG A   1      -4.186   4.987 130.939  0.00  0.00    -0.028 C 
ATOM     21  C   LIG A   1      -2.706   4.766 130.900  0.00  0.00    +0.035 C 
BRANCH  19  22
ATOM     22  C   LIG A   1      -4.648   4.957 128.461  0.00  0.00    +0.187 C 
BRANCH  22  23
ATOM     23  O   LIG A   1      -5.819   4.847 127.668  0.00  0.00    -0.391 OA
ATOM     24  H   LIG A   1      -5.755   5.548 126.997  0.00  0.00    +0.210 HD
ENDBRANCH  22  23
ENDBRANCH  19  22
ENDBRANCH   3  19
BRANCH  17  25
ATOM     25  C   LIG A   1      -7.175   2.761 130.285  0.00  0.00    +0.337 C 
ATOM     26  O   LIG A   1      -6.865   1.785 130.946  0.00  0.00    -0.245 OA
BRANCH  25  27
ATOM     27  O   LIG A   1      -7.511   2.756 128.969  0.00  0.00    -0.465 OA
ATOM     28  C   LIG A   1      -8.481   1.785 128.578  0.00  0.00    +0.280 C 
ENDBRANCH  25  27
ENDBRANCH  17  25
TORSDOF 5
ENDMDL
MODEL 7
REMARK VINA RESULT:      -6.9      2.910      6.631
REMARK  Name = NuBBE_98
REMARK  7 active torsions:
REMARK  status: ('A' for Active; 'I' for Inactive)
REMARK    1  A    between atoms: C_4  and  C_6
REMARK    2  A    between atoms: C_6  and  C_7
REMARK    3  A    between atoms: C_7  and  O_8
REMARK    4  A    between atoms: C_9  and  C_10
REMARK    5  A    between atoms: C_24  and  C_25
REMARK    6  A    between atoms: C_25  and  O_26
REMARK    7  A    between atoms: O_26  and  C_27
REMARK                            x       y       z     vdW  Elec       q    Type
REMARK                         _______ _______ _______ _____ _____    ______ ____
ROOT
ATOM      1  C   LIG A   1      -5.627  -0.658 125.029  0.00  0.00    +0.121 C 
ATOM      2  C   LIG A   1      -5.208   0.735 125.511  0.00  0.00    +0.041 C 
ATOM      3  C   LIG A   1      -6.356   1.770 125.536  0.00  0.00    +0.057 C 
ATOM      4  C   LIG A   1      -6.448  -1.472 125.992  0.00  0.00    +0.041 A 
ATOM      5  C   LIG A   1      -7.461  -2.337 125.613  0.00  0.00    -0.016 A 
ATOM      6  C   LIG A   1      -8.026  -2.884 126.794  0.00  0.00    +0.003 A 
ATOM      7  C   LIG A   1      -9.100  -3.757 127.058  0.00  0.00    +0.010 A 
ATOM      8  C   LIG A   1      -9.402  -4.092 128.382  0.00  0.00    +0.001 A 
ATOM      9  C   LIG A   1      -8.645  -3.579 129.433  0.00  0.00    +0.002 A 
ATOM     10  C   LIG A   1      -7.572  -2.713 129.197  0.00  0.00    +0.026 A 
ATOM     11  C   LIG A   1      -7.289  -2.375 127.867  0.00  0.00    +0.047 A 
ATOM     12  N   LIG A   1      -6.321  -1.536 127.350  0.00  0.00    -0.356 N 
ATOM     13  C   LIG A   1      -7.846  -2.524 124.176  0.00  0.00    +0.056 C 
ATOM     14  C   LIG A   1      -6.786  -1.893 123.233  0.00  0.00    +0.110 C 
ATOM     15  N   LIG A   1      -6.369  -0.547 123.731  0.00  0.00    -0.326 N 
ATOM     16  C   LIG A   1      -7.276   0.504 123.594  0.00  0.00    +0.082 C 
ATOM     17  C   LIG A   1      -7.354   1.560 124.418  0.00  0.00    +0.057 C 
ATOM     18  H   LIG A   1      -5.646  -1.034 127.910  0.00  0.00    +0.166 HD
ENDROOT
BRANCH   3  19
ATOM     19  C   LIG A   1      -5.744   3.191 125.566  0.00  0.00    -0.041 C 
ATOM     20  C   LIG A   1      -5.375   3.791 126.721  0.00  0.00    -0.028 C 
ATOM     21  C   LIG A   1      -4.763   5.142 126.921  0.00  0.00    +0.035 C 
BRANCH  19  22
ATOM     22  C   LIG A   1      -5.570   3.820 124.209  0.00  0.00    +0.187 C 
BRANCH  22  23
ATOM     23  O   LIG A   1      -6.405   4.965 124.128  0.00  0.00    -0.391 OA
ATOM     24  H   LIG A   1      -7.106   4.830 124.790  0.00  0.00    +0.210 HD
ENDBRANCH  22  23
ENDBRANCH  19  22
ENDBRANCH   3  19
BRANCH  17  25
ATOM     25  C   LIG A   1      -8.530   2.453 124.252  0.00  0.00    +0.337 C 
ATOM     26  O   LIG A   1      -8.933   3.228 125.102  0.00  0.00    -0.245 OA
BRANCH  25  27
ATOM     27  O   LIG A   1      -9.063   2.283 123.014  0.00  0.00    -0.465 OA
ATOM     28  C   LIG A   1      -8.601   3.183 122.008  0.00  0.00    +0.280 C 
ENDBRANCH  25  27
ENDBRANCH  17  25
TORSDOF 5
ENDMDL
MODEL 8
REMARK VINA RESULT:      -6.8      3.277      7.506
REMARK  Name = NuBBE_98
REMARK  7 active torsions:
REMARK  status: ('A' for Active; 'I' for Inactive)
REMARK    1  A    between atoms: C_4  and  C_6
REMARK    2  A    between atoms: C_6  and  C_7
REMARK    3  A    between atoms: C_7  and  O_8
REMARK    4  A    between atoms: C_9  and  C_10
REMARK    5  A    between atoms: C_24  and  C_25
REMARK    6  A    between atoms: C_25  and  O_26
REMARK    7  A    between atoms: O_26  and  C_27
REMARK                            x       y       z     vdW  Elec       q    Type
REMARK                         _______ _______ _______ _____ _____    ______ ____
ROOT
ATOM      1  C   LIG A   1      -6.053  -1.476 126.365  0.00  0.00    +0.121 C 
ATOM      2  C   LIG A   1      -5.270  -0.189 126.079  0.00  0.00    +0.041 C 
ATOM      3  C   LIG A   1      -5.704   1.021 126.936  0.00  0.00    +0.057 C 
ATOM      4  C   LIG A   1      -5.729  -2.172 127.658  0.00  0.00    +0.041 A 
ATOM      5  C   LIG A   1      -6.660  -2.842 128.435  0.00  0.00    -0.016 A 
ATOM      6  C   LIG A   1      -5.990  -3.327 129.589  0.00  0.00    +0.003 A 
ATOM      7  C   LIG A   1      -6.400  -4.016 130.747  0.00  0.00    +0.010 A 
ATOM      8  C   LIG A   1      -5.452  -4.341 131.724  0.00  0.00    +0.001 A 
ATOM      9  C   LIG A   1      -4.113  -3.998 131.553  0.00  0.00    +0.002 A 
ATOM     10  C   LIG A   1      -3.681  -3.316 130.410  0.00  0.00    +0.026 A 
ATOM     11  C   LIG A   1      -4.642  -2.985 129.447  0.00  0.00    +0.047 A 
ATOM     12  N   LIG A   1      -4.507  -2.303 128.254  0.00  0.00    -0.356 N 
ATOM     13  C   LIG A   1      -8.107  -2.913 128.051  0.00  0.00    +0.056 C 
ATOM     14  C   LIG A   1      -8.315  -2.437 126.588  0.00  0.00    +0.110 C 
ATOM     15  N   LIG A   1      -7.525  -1.198 126.317  0.00  0.00    -0.326 N 
ATOM     16  C   LIG A   1      -7.976  -0.005 126.885  0.00  0.00    +0.082 C 
ATOM     17  C   LIG A   1      -7.186   1.020 127.239  0.00  0.00    +0.057 C 
ATOM     18  H   LIG A   1      -3.632  -1.941 127.902  0.00  0.00    +0.166 HD
ENDROOT
BRANCH   3  19
ATOM     19  C   LIG A   1      -5.210   2.318 126.251  0.00  0.00    -0.041 C 
ATOM     20  C   LIG A   1      -5.789   2.805 125.129  0.00  0.00    -0.028 C 
ATOM     21  C   LIG A   1      -5.445   4.040 124.357  0.00  0.00    +0.035 C 
BRANCH  19  22
ATOM     22  C   LIG A   1      -4.065   2.996 126.957  0.00  0.00    +0.187 C 
BRANCH  22  23
ATOM     23  O   LIG A   1      -2.859   2.338 126.601  0.00  0.00    -0.391 OA
ATOM     24  H   LIG A   1      -2.615   2.683 125.725  0.00  0.00    +0.210 HD
ENDBRANCH  22  23
ENDBRANCH  19  22
ENDBRANCH   3  19
BRANCH  17  25
ATOM     25  C   LIG A   1      -7.815   2.102 128.040  0.00  0.00    +0.337 C 
ATOM     26  O   LIG A   1      -8.637   2.891 127.608  0.00  0.00    -0.245 OA
BRANCH  25  27
ATOM     27  O   LIG A   1      -7.346   2.061 129.314  0.00  0.00    -0.465 OA
ATOM     28  C   LIG A   1      -8.282   1.647 130.309  0.00  0.00    +0.280 C 
ENDBRANCH  25  27
ENDBRANCH  17  25
TORSDOF 5
ENDMDL
MODEL 9
REMARK VINA RESULT:      -6.8      3.087      5.841
REMARK  Name = NuBBE_98
REMARK  7 active torsions:
REMARK  status: ('A' for Active; 'I' for Inactive)
REMARK    1  A    between atoms: C_4  and  C_6
REMARK    2  A    between atoms: C_6  and  C_7
REMARK    3  A    between atoms: C_7  and  O_8
REMARK    4  A    between atoms: C_9  and  C_10
REMARK    5  A    between atoms: C_24  and  C_25
REMARK    6  A    between atoms: C_25  and  O_26
REMARK    7  A    between atoms: O_26  and  C_27
REMARK                            x       y       z     vdW  Elec       q    Type
REMARK                         _______ _______ _______ _____ _____    ______ ____
ROOT
ATOM      1  C   LIG A   1      -6.524   2.232 123.878  0.00  0.00    +0.121 C 
ATOM      2  C   LIG A   1      -5.518   2.607 124.972  0.00  0.00    +0.041 C 
ATOM      3  C   LIG A   1      -6.140   2.770 126.377  0.00  0.00    +0.057 C 
ATOM      4  C   LIG A   1      -7.032   0.816 123.905  0.00  0.00    +0.041 A 
ATOM      5  C   LIG A   1      -8.321   0.445 123.561  0.00  0.00    -0.016 A 
ATOM      6  C   LIG A   1      -8.434  -0.956 123.753  0.00  0.00    +0.003 A 
ATOM      7  C   LIG A   1      -9.487  -1.884 123.633  0.00  0.00    +0.010 A 
ATOM      8  C   LIG A   1      -9.248  -3.233 123.918  0.00  0.00    +0.001 A 
ATOM      9  C   LIG A   1      -7.981  -3.662 124.307  0.00  0.00    +0.002 A 
ATOM     10  C   LIG A   1      -6.918  -2.760 124.430  0.00  0.00    +0.026 A 
ATOM     11  C   LIG A   1      -7.174  -1.411 124.156  0.00  0.00    +0.047 A 
ATOM     12  N   LIG A   1      -6.335  -0.316 124.218  0.00  0.00    -0.356 N 
ATOM     13  C   LIG A   1      -9.349   1.453 123.141  0.00  0.00    +0.056 C 
ATOM     14  C   LIG A   1      -8.689   2.829 122.856  0.00  0.00    +0.110 C 
ATOM     15  N   LIG A   1      -7.693   3.169 123.917  0.00  0.00    -0.326 N 
ATOM     16  C   LIG A   1      -8.182   3.540 125.170  0.00  0.00    +0.082 C 
ATOM     17  C   LIG A   1      -7.544   3.334 126.332  0.00  0.00    +0.057 C 
ATOM     18  H   LIG A   1      -5.361  -0.361 124.483  0.00  0.00    +0.166 HD
ENDROOT
BRANCH   3  19
ATOM     19  C   LIG A   1      -5.168   3.589 127.260  0.00  0.00    -0.041 C 
ATOM     20  C   LIG A   1      -4.796   4.850 126.940  0.00  0.00    -0.028 C 
ATOM     21  C   LIG A   1      -3.884   5.774 127.684  0.00  0.00    +0.035 C 
BRANCH  19  22
ATOM     22  C   LIG A   1      -4.711   2.876 128.506  0.00  0.00    +0.187 C 
BRANCH  22  23
ATOM     23  O   LIG A   1      -3.517   2.167 128.210  0.00  0.00    -0.391 OA
ATOM     24  H   LIG A   1      -3.450   2.150 127.239  0.00  0.00    +0.210 HD
ENDBRANCH  22  23
ENDBRANCH  19  22
ENDBRANCH   3  19
BRANCH  17  25
ATOM     25  C   LIG A   1      -8.320   3.581 127.574  0.00  0.00    +0.337 C 
ATOM     26  O   LIG A   1      -8.461   4.676 128.092  0.00  0.00    -0.245 OA
BRANCH  25  27
ATOM     27  O   LIG A   1      -8.853   2.415 128.022  0.00  0.00    -0.465 OA
ATOM     28  C   LIG A   1      -8.411   1.982 129.308  0.00  0.00    +0.280 C 
ENDBRANCH  25  27
ENDBRANCH  17  25
TORSDOF 5
ENDMDL
