MODEL 1
REMARK VINA RESULT:      -8.0      0.000      0.000
REMARK  Name = NuBBE_575
REMARK  7 active torsions:
REMARK  status: ('A' for Active; 'I' for Inactive)
REMARK    1  A    between atoms: C_3  and  O_9
REMARK    2  A    between atoms: C_5  and  C_6
REMARK    3  A    between atoms: C_12  and  C_13
REMARK    4  A    between atoms: C_12  and  O_14
REMARK    5  A    between atoms: C_21  and  C_22
REMARK    6  A    between atoms: C_21  and  C_23
REMARK    7  A    between atoms: C_25  and  C_27
REMARK                            x       y       z     vdW  Elec       q    Type
REMARK                         _______ _______ _______ _____ _____    ______ ____
ROOT
ATOM      1  O   LIG A   1      -5.263  -2.718 125.777  0.00  0.00    -0.293 OA
ATOM      2  C   LIG A   1      -6.304  -2.163 126.144  0.00  0.00    +0.176 C 
ATOM      3  C   LIG A   1      -7.210  -1.359 125.148  0.00  0.00    +0.171 C 
ATOM      4  C   LIG A   1      -8.473  -1.867 125.767  0.00  0.00    +0.027 C 
ATOM      5  C   LIG A   1      -8.957  -2.902 125.044  0.00  0.00    -0.004 C 
ATOM      6  C   LIG A   1      -8.222  -4.215 124.818  0.00  0.00    +0.047 C 
ATOM      7  C   LIG A   1      -8.973  -2.132 123.779  0.00  0.00    +0.188 C 
ATOM      8  O   LIG A   1      -9.913  -2.169 122.986  0.00  0.00    -0.287 OA
ATOM      9  C   LIG A   1      -7.811  -1.176 123.759  0.00  0.00    +0.041 C 
ATOM     10  C   LIG A   1      -8.042   0.076 123.254  0.00  0.00    +0.018 C 
ATOM     11  C   LIG A   1      -9.298   0.971 123.501  0.00  0.00    +0.082 C 
ATOM     12  C   LIG A   1      -9.112   2.315 122.772  0.00  0.00    +0.046 C 
ATOM     13  C   LIG A   1      -9.673   1.268 124.999  0.00  0.00    +0.039 C 
ATOM     14  C   LIG A   1      -8.561   1.828 125.924  0.00  0.00    +0.007 C 
ATOM     15  C   LIG A   1      -8.648   1.377 127.374  0.00  0.00    -0.001 C 
ATOM     16  C   LIG A   1      -7.899   0.259 128.188  0.00  0.00    -0.001 C 
ATOM     17  C   LIG A   1      -7.582   1.749 128.391  0.00  0.00    -0.029 C 
ATOM     18  C   LIG A   1      -7.937   2.280 129.757  0.00  0.00    +0.011 C 
ATOM     19  C   LIG A   1      -6.273   2.329 127.881  0.00  0.00    +0.011 C 
ATOM     20  C   LIG A   1      -6.631  -0.585 128.181  0.00  0.00    +0.015 C 
ATOM     21  C   LIG A   1      -6.672  -2.053 127.706  0.00  0.00    +0.056 C 
ATOM     22  C   LIG A   1      -7.890  -2.833 128.256  0.00  0.00    +0.015 C 
ENDROOT
BRANCH   3  23
ATOM     23  O   LIG A   1      -6.597  -0.123 125.460  0.00  0.00    -0.373 OA
ATOM     24  H   LIG A   1      -6.775   0.030 126.413  0.00  0.00    +0.211 HD
ENDBRANCH   3  23
BRANCH  11  25
ATOM     25  O   LIG A   1     -10.460   0.420 122.877  0.00  0.00    -0.385 OA
ATOM     26  H   LIG A   1     -11.234   0.499 123.467  0.00  0.00    +0.211 HD
ENDBRANCH  11  25
TORSDOF 2
ENDMDL
MODEL 2
REMARK VINA RESULT:      -7.8      2.540      5.196
REMARK  Name = NuBBE_575
REMARK  7 active torsions:
REMARK  status: ('A' for Active; 'I' for Inactive)
REMARK    1  A    between atoms: C_3  and  O_9
REMARK    2  A    between atoms: C_5  and  C_6
REMARK    3  A    between atoms: C_12  and  C_13
REMARK    4  A    between atoms: C_12  and  O_14
REMARK    5  A    between atoms: C_21  and  C_22
REMARK    6  A    between atoms: C_21  and  C_23
REMARK    7  A    between atoms: C_25  and  C_27
REMARK                            x       y       z     vdW  Elec       q    Type
REMARK                         _______ _______ _______ _____ _____    ______ ____
ROOT
ATOM      1  O   LIG A   1      -8.783   4.662 125.387  0.00  0.00    -0.293 OA
ATOM      2  C   LIG A   1      -7.808   3.928 125.198  0.00  0.00    +0.176 C 
ATOM      3  C   LIG A   1      -7.843   2.398 125.542  0.00  0.00    +0.171 C 
ATOM      4  C   LIG A   1      -7.068   2.027 124.318  0.00  0.00    +0.027 C 
ATOM      5  C   LIG A   1      -7.912   1.614 123.345  0.00  0.00    -0.004 C 
ATOM      6  C   LIG A   1      -9.000   2.478 122.722  0.00  0.00    +0.047 C 
ATOM      7  C   LIG A   1      -8.542   0.584 124.201  0.00  0.00    +0.188 C 
ATOM      8  O   LIG A   1      -8.793  -0.554 123.803  0.00  0.00    -0.287 OA
ATOM      9  C   LIG A   1      -8.599   1.077 125.621  0.00  0.00    +0.041 C 
ATOM     10  C   LIG A   1      -8.322   0.169 126.609  0.00  0.00    +0.018 C 
ATOM     11  C   LIG A   1      -7.195  -0.912 126.601  0.00  0.00    +0.082 C 
ATOM     12  C   LIG A   1      -7.224  -1.683 127.935  0.00  0.00    +0.046 C 
ATOM     13  C   LIG A   1      -5.728  -0.404 126.355  0.00  0.00    +0.039 C 
ATOM     14  C   LIG A   1      -5.205   0.751 127.248  0.00  0.00    +0.007 C 
ATOM     15  C   LIG A   1      -4.240   1.704 126.560  0.00  0.00    -0.001 C 
ATOM     16  C   LIG A   1      -4.427   3.123 125.908  0.00  0.00    -0.001 C 
ATOM     17  C   LIG A   1      -3.712   2.947 127.258  0.00  0.00    -0.029 C 
ATOM     18  C   LIG A   1      -2.248   3.309 127.238  0.00  0.00    +0.011 C 
ATOM     19  C   LIG A   1      -4.387   3.391 128.545  0.00  0.00    +0.011 C 
ATOM     20  C   LIG A   1      -5.347   4.336 125.919  0.00  0.00    +0.015 C 
ATOM     21  C   LIG A   1      -6.380   4.545 124.791  0.00  0.00    +0.056 C 
ATOM     22  C   LIG A   1      -5.803   4.262 123.384  0.00  0.00    +0.015 C 
ENDROOT
BRANCH   3  23
ATOM     23  O   LIG A   1      -7.282   2.591 126.826  0.00  0.00    -0.373 OA
ATOM     24  H   LIG A   1      -7.089   3.551 126.892  0.00  0.00    +0.211 HD
ENDBRANCH   3  23
BRANCH  11  25
ATOM     25  O   LIG A   1      -7.458  -1.930 125.631  0.00  0.00    -0.385 OA
ATOM     26  H   LIG A   1      -7.551  -2.799 126.066  0.00  0.00    +0.211 HD
ENDBRANCH  11  25
TORSDOF 2
ENDMDL
MODEL 3
REMARK VINA RESULT:      -7.5      1.871      4.572
REMARK  Name = NuBBE_575
REMARK  7 active torsions:
REMARK  status: ('A' for Active; 'I' for Inactive)
REMARK    1  A    between atoms: C_3  and  O_9
REMARK    2  A    between atoms: C_5  and  C_6
REMARK    3  A    between atoms: C_12  and  C_13
REMARK    4  A    between atoms: C_12  and  O_14
REMARK    5  A    between atoms: C_21  and  C_22
REMARK    6  A    between atoms: C_21  and  C_23
REMARK    7  A    between atoms: C_25  and  C_27
REMARK                            x       y       z     vdW  Elec       q    Type
REMARK                         _______ _______ _______ _____ _____    ______ ____
ROOT
ATOM      1  O   LIG A   1      -8.254  -1.219 129.015  0.00  0.00    -0.293 OA
ATOM      2  C   LIG A   1      -7.573  -0.898 128.035  0.00  0.00    +0.176 C 
ATOM      3  C   LIG A   1      -8.179  -0.093 126.833  0.00  0.00    +0.171 C 
ATOM      4  C   LIG A   1      -6.950   0.745 126.675  0.00  0.00    +0.027 C 
ATOM      5  C   LIG A   1      -7.123   1.937 127.289  0.00  0.00    -0.004 C 
ATOM      6  C   LIG A   1      -7.378   2.112 128.779  0.00  0.00    +0.047 C 
ATOM      7  C   LIG A   1      -8.367   2.244 126.545  0.00  0.00    +0.188 C 
ATOM      8  O   LIG A   1      -8.602   3.352 126.065  0.00  0.00    -0.287 OA
ATOM      9  C   LIG A   1      -9.130   0.971 126.298  0.00  0.00    +0.041 C 
ATOM     10  C   LIG A   1      -9.725   0.828 125.073  0.00  0.00    +0.018 C 
ATOM     11  C   LIG A   1      -9.120   1.213 123.685  0.00  0.00    +0.082 C 
ATOM     12  C   LIG A   1     -10.121   0.839 122.576  0.00  0.00    +0.046 C 
ATOM     13  C   LIG A   1      -7.724   0.589 123.323  0.00  0.00    +0.039 C 
ATOM     14  C   LIG A   1      -7.568  -0.950 123.445  0.00  0.00    +0.007 C 
ATOM     15  C   LIG A   1      -6.186  -1.421 123.872  0.00  0.00    -0.001 C 
ATOM     16  C   LIG A   1      -5.596  -1.875 125.256  0.00  0.00    -0.001 C 
ATOM     17  C   LIG A   1      -5.889  -2.887 124.137  0.00  0.00    -0.029 C 
ATOM     18  C   LIG A   1      -4.664  -3.566 123.576  0.00  0.00    +0.011 C 
ATOM     19  C   LIG A   1      -7.061  -3.847 124.263  0.00  0.00    +0.011 C 
ATOM     20  C   LIG A   1      -6.011  -2.414 126.619  0.00  0.00    +0.015 C 
ATOM     21  C   LIG A   1      -6.085  -1.475 127.842  0.00  0.00    +0.056 C 
ATOM     22  C   LIG A   1      -4.878  -0.512 127.938  0.00  0.00    +0.015 C 
ENDROOT
BRANCH   3  23
ATOM     23  O   LIG A   1      -8.461  -1.261 126.088  0.00  0.00    -0.373 OA
ATOM     24  H   LIG A   1      -7.608  -1.537 125.689  0.00  0.00    +0.211 HD
ENDBRANCH   3  23
BRANCH  11  25
ATOM     25  O   LIG A   1      -8.997   2.631 123.547  0.00  0.00    -0.385 OA
ATOM     26  H   LIG A   1      -8.149   2.859 123.120  0.00  0.00    +0.211 HD
ENDBRANCH  11  25
TORSDOF 2
ENDMDL
MODEL 4
REMARK VINA RESULT:      -7.5      2.126      6.039
REMARK  Name = NuBBE_575
REMARK  7 active torsions:
REMARK  status: ('A' for Active; 'I' for Inactive)
REMARK    1  A    between atoms: C_3  and  O_9
REMARK    2  A    between atoms: C_5  and  C_6
REMARK    3  A    between atoms: C_12  and  C_13
REMARK    4  A    between atoms: C_12  and  O_14
REMARK    5  A    between atoms: C_21  and  C_22
REMARK    6  A    between atoms: C_21  and  C_23
REMARK    7  A    between atoms: C_25  and  C_27
REMARK                            x       y       z     vdW  Elec       q    Type
REMARK                         _______ _______ _______ _____ _____    ______ ____
ROOT
ATOM      1  O   LIG A   1      -5.362   1.561 125.956  0.00  0.00    -0.293 OA
ATOM      2  C   LIG A   1      -6.395   0.923 126.186  0.00  0.00    +0.176 C 
ATOM      3  C   LIG A   1      -6.524  -0.026 127.428  0.00  0.00    +0.171 C 
ATOM      4  C   LIG A   1      -7.938   0.384 127.691  0.00  0.00    +0.027 C 
ATOM      5  C   LIG A   1      -7.973   1.320 128.666  0.00  0.00    -0.004 C 
ATOM      6  C   LIG A   1      -7.310   2.687 128.575  0.00  0.00    +0.047 C 
ATOM      7  C   LIG A   1      -7.221   0.480 129.627  0.00  0.00    +0.188 C 
ATOM      8  O   LIG A   1      -7.537   0.374 130.812  0.00  0.00    -0.287 OA
ATOM      9  C   LIG A   1      -6.211  -0.350 128.884  0.00  0.00    +0.041 C 
ATOM     10  C   LIG A   1      -6.045  -1.647 129.294  0.00  0.00    +0.018 C 
ATOM     11  C   LIG A   1      -7.168  -2.651 129.707  0.00  0.00    +0.082 C 
ATOM     12  C   LIG A   1      -6.528  -4.009 130.055  0.00  0.00    +0.046 C 
ATOM     13  C   LIG A   1      -8.317  -2.897 128.664  0.00  0.00    +0.039 C 
ATOM     14  C   LIG A   1      -7.909  -3.285 127.219  0.00  0.00    +0.007 C 
ATOM     15  C   LIG A   1      -8.834  -2.762 126.130  0.00  0.00    -0.001 C 
ATOM     16  C   LIG A   1      -8.746  -1.527 125.161  0.00  0.00    -0.001 C 
ATOM     17  C   LIG A   1      -8.526  -2.963 124.656  0.00  0.00    -0.029 C 
ATOM     18  C   LIG A   1      -9.572  -3.447 123.683  0.00  0.00    +0.011 C 
ATOM     19  C   LIG A   1      -7.133  -3.432 124.270  0.00  0.00    +0.011 C 
ATOM     20  C   LIG A   1      -7.749  -0.559 124.539  0.00  0.00    +0.015 C 
ATOM     21  C   LIG A   1      -7.586   0.867 125.106  0.00  0.00    +0.056 C 
ATOM     22  C   LIG A   1      -8.937   1.547 125.429  0.00  0.00    +0.015 C 
ENDROOT
BRANCH   3  23
ATOM     23  O   LIG A   1      -6.138  -1.171 126.694  0.00  0.00    -0.373 OA
ATOM     24  H   LIG A   1      -6.224  -1.928 127.313  0.00  0.00    +0.211 HD
ENDBRANCH   3  23
BRANCH  11  25
ATOM     25  O   LIG A   1      -7.789  -2.259 130.935  0.00  0.00    -0.385 OA
ATOM     26  H   LIG A   1      -8.402  -2.954 131.243  0.00  0.00    +0.211 HD
ENDBRANCH  11  25
TORSDOF 2
ENDMDL
MODEL 5
REMARK VINA RESULT:      -7.4      1.744      4.568
REMARK  Name = NuBBE_575
REMARK  7 active torsions:
REMARK  status: ('A' for Active; 'I' for Inactive)
REMARK    1  A    between atoms: C_3  and  O_9
REMARK    2  A    between atoms: C_5  and  C_6
REMARK    3  A    between atoms: C_12  and  C_13
REMARK    4  A    between atoms: C_12  and  O_14
REMARK    5  A    between atoms: C_21  and  C_22
REMARK    6  A    between atoms: C_21  and  C_23
REMARK    7  A    between atoms: C_25  and  C_27
REMARK                            x       y       z     vdW  Elec       q    Type
REMARK                         _______ _______ _______ _____ _____    ______ ____
ROOT
ATOM      1  O   LIG A   1     -10.882   1.172 124.960  0.00  0.00    -0.293 OA
ATOM      2  C   LIG A   1      -9.673   1.244 124.720  0.00  0.00    +0.176 C 
ATOM      3  C   LIG A   1      -8.671   0.125 125.171  0.00  0.00    +0.171 C 
ATOM      4  C   LIG A   1      -7.887   0.208 123.899  0.00  0.00    +0.027 C 
ATOM      5  C   LIG A   1      -8.276  -0.773 123.054  0.00  0.00    -0.004 C 
ATOM      6  C   LIG A   1      -9.682  -0.922 122.492  0.00  0.00    +0.047 C 
ATOM      7  C   LIG A   1      -8.032  -1.849 124.042  0.00  0.00    +0.188 C 
ATOM      8  O   LIG A   1      -7.476  -2.909 123.753  0.00  0.00    -0.287 OA
ATOM      9  C   LIG A   1      -8.354  -1.345 125.422  0.00  0.00    +0.041 C 
ATOM     10  C   LIG A   1      -7.510  -1.717 126.435  0.00  0.00    +0.018 C 
ATOM     11  C   LIG A   1      -5.950  -1.781 126.382  0.00  0.00    +0.082 C 
ATOM     12  C   LIG A   1      -5.415  -2.210 127.761  0.00  0.00    +0.046 C 
ATOM     13  C   LIG A   1      -5.201  -0.470 125.945  0.00  0.00    +0.039 C 
ATOM     14  C   LIG A   1      -5.549   0.843 126.695  0.00  0.00    +0.007 C 
ATOM     15  C   LIG A   1      -5.486   2.102 125.843  0.00  0.00    -0.001 C 
ATOM     16  C   LIG A   1      -6.590   2.954 125.119  0.00  0.00    -0.001 C 
ATOM     17  C   LIG A   1      -5.894   3.458 126.393  0.00  0.00    -0.029 C 
ATOM     18  C   LIG A   1      -5.043   4.687 126.191  0.00  0.00    +0.011 C 
ATOM     19  C   LIG A   1      -6.649   3.503 127.711  0.00  0.00    +0.011 C 
ATOM     20  C   LIG A   1      -8.083   3.253 125.144  0.00  0.00    +0.015 C 
ATOM     21  C   LIG A   1      -9.031   2.591 124.120  0.00  0.00    +0.056 C 
ATOM     22  C   LIG A   1      -8.460   2.587 122.683  0.00  0.00    +0.015 C 
ENDROOT
BRANCH   3  23
ATOM     23  O   LIG A   1      -8.337   0.795 126.370  0.00  0.00    -0.373 OA
ATOM     24  H   LIG A   1      -8.909   0.402 127.065  0.00  0.00    +0.211 HD
ENDBRANCH   3  23
BRANCH  11  25
ATOM     25  O   LIG A   1      -5.503  -2.830 125.518  0.00  0.00    -0.385 OA
ATOM     26  H   LIG A   1      -4.529  -2.826 125.454  0.00  0.00    +0.211 HD
ENDBRANCH  11  25
TORSDOF 2
ENDMDL
MODEL 6
REMARK VINA RESULT:      -7.2      1.898      3.411
REMARK  Name = NuBBE_575
REMARK  7 active torsions:
REMARK  status: ('A' for Active; 'I' for Inactive)
REMARK    1  A    between atoms: C_3  and  O_9
REMARK    2  A    between atoms: C_5  and  C_6
REMARK    3  A    between atoms: C_12  and  C_13
REMARK    4  A    between atoms: C_12  and  O_14
REMARK    5  A    between atoms: C_21  and  C_22
REMARK    6  A    between atoms: C_21  and  C_23
REMARK    7  A    between atoms: C_25  and  C_27
REMARK                            x       y       z     vdW  Elec       q    Type
REMARK                         _______ _______ _______ _____ _____    ______ ____
ROOT
ATOM      1  O   LIG A   1      -4.425  -1.803 128.964  0.00  0.00    -0.293 OA
ATOM      2  C   LIG A   1      -5.500  -1.223 128.775  0.00  0.00    +0.176 C 
ATOM      3  C   LIG A   1      -6.550  -1.745 127.734  0.00  0.00    +0.171 C 
ATOM      4  C   LIG A   1      -7.707  -1.424 128.626  0.00  0.00    +0.027 C 
ATOM      5  C   LIG A   1      -8.110  -2.539 129.276  0.00  0.00    -0.004 C 
ATOM      6  C   LIG A   1      -7.243  -3.338 130.239  0.00  0.00    +0.047 C 
ATOM      7  C   LIG A   1      -8.290  -3.315 128.028  0.00  0.00    +0.188 C 
ATOM      8  O   LIG A   1      -9.265  -4.039 127.826  0.00  0.00    -0.287 OA
ATOM      9  C   LIG A   1      -7.250  -2.898 127.024  0.00  0.00    +0.041 C 
ATOM     10  C   LIG A   1      -7.654  -2.778 125.721  0.00  0.00    +0.018 C 
ATOM     11  C   LIG A   1      -8.988  -2.151 125.205  0.00  0.00    +0.082 C 
ATOM     12  C   LIG A   1      -9.003  -2.189 123.665  0.00  0.00    +0.046 C 
ATOM     13  C   LIG A   1      -9.305  -0.682 125.667  0.00  0.00    +0.039 C 
ATOM     14  C   LIG A   1      -8.213   0.396 125.445  0.00  0.00    +0.007 C 
ATOM     15  C   LIG A   1      -8.160   1.482 126.509  0.00  0.00    -0.001 C 
ATOM     16  C   LIG A   1      -7.241   1.698 127.765  0.00  0.00    -0.001 C 
ATOM     17  C   LIG A   1      -7.086   2.557 126.500  0.00  0.00    -0.029 C 
ATOM     18  C   LIG A   1      -7.419   4.015 126.694  0.00  0.00    +0.011 C 
ATOM     19  C   LIG A   1      -5.886   2.366 125.588  0.00  0.00    +0.011 C 
ATOM     20  C   LIG A   1      -5.886   1.308 128.343  0.00  0.00    +0.015 C 
ATOM     21  C   LIG A   1      -5.785   0.217 129.430  0.00  0.00    +0.056 C 
ATOM     22  C   LIG A   1      -6.869   0.353 130.525  0.00  0.00    +0.015 C 
ENDROOT
BRANCH   3  23
ATOM     23  O   LIG A   1      -6.067  -0.905 126.704  0.00  0.00    -0.373 OA
ATOM     24  H   LIG A   1      -5.913  -1.490 125.931  0.00  0.00    +0.211 HD
ENDBRANCH   3  23
BRANCH  11  25
ATOM     25  O   LIG A   1     -10.114  -2.958 125.562  0.00  0.00    -0.385 OA
ATOM     26  H   LIG A   1     -10.242  -3.672 124.907  0.00  0.00    +0.211 HD
ENDBRANCH  11  25
TORSDOF 2
ENDMDL
MODEL 7
REMARK VINA RESULT:      -7.1      6.198      9.135
REMARK  Name = NuBBE_575
REMARK  7 active torsions:
REMARK  status: ('A' for Active; 'I' for Inactive)
REMARK    1  A    between atoms: C_3  and  O_9
REMARK    2  A    between atoms: C_5  and  C_6
REMARK    3  A    between atoms: C_12  and  C_13
REMARK    4  A    between atoms: C_12  and  O_14
REMARK    5  A    between atoms: C_21  and  C_22
REMARK    6  A    between atoms: C_21  and  C_23
REMARK    7  A    between atoms: C_25  and  C_27
REMARK                            x       y       z     vdW  Elec       q    Type
REMARK                         _______ _______ _______ _____ _____    ______ ____
ROOT
ATOM      1  O   LIG A   1      -7.417   2.962 130.498  0.00  0.00    -0.293 OA
ATOM      2  C   LIG A   1      -6.203   3.184 130.444  0.00  0.00    +0.176 C 
ATOM      3  C   LIG A   1      -5.614   4.620 130.669  0.00  0.00    +0.171 C 
ATOM      4  C   LIG A   1      -4.446   4.102 131.447  0.00  0.00    +0.027 C 
ATOM      5  C   LIG A   1      -4.687   4.222 132.772  0.00  0.00    -0.004 C 
ATOM      6  C   LIG A   1      -5.827   3.533 133.509  0.00  0.00    +0.047 C 
ATOM      7  C   LIG A   1      -4.973   5.672 132.684  0.00  0.00    +0.188 C 
ATOM      8  O   LIG A   1      -4.538   6.490 133.494  0.00  0.00    -0.287 OA
ATOM      9  C   LIG A   1      -5.650   5.970 131.374  0.00  0.00    +0.041 C 
ATOM     10  C   LIG A   1      -5.271   7.113 130.721  0.00  0.00    +0.018 C 
ATOM     11  C   LIG A   1      -3.818   7.664 130.560  0.00  0.00    +0.082 C 
ATOM     12  C   LIG A   1      -3.857   8.953 129.716  0.00  0.00    +0.046 C 
ATOM     13  C   LIG A   1      -2.758   6.691 129.928  0.00  0.00    +0.039 C 
ATOM     14  C   LIG A   1      -3.111   6.017 128.577  0.00  0.00    +0.007 C 
ATOM     15  C   LIG A   1      -2.556   4.612 128.398  0.00  0.00    -0.001 C 
ATOM     16  C   LIG A   1      -3.193   3.185 128.567  0.00  0.00    -0.001 C 
ATOM     17  C   LIG A   1      -2.891   3.770 127.178  0.00  0.00    -0.029 C 
ATOM     18  C   LIG A   1      -1.829   3.027 126.407  0.00  0.00    +0.011 C 
ATOM     19  C   LIG A   1      -4.027   4.229 126.278  0.00  0.00    +0.011 C 
ATOM     20  C   LIG A   1      -4.536   2.465 128.588  0.00  0.00    +0.015 C 
ATOM     21  C   LIG A   1      -5.181   2.055 129.929  0.00  0.00    +0.056 C 
ATOM     22  C   LIG A   1      -4.170   1.435 130.922  0.00  0.00    +0.015 C 
ENDROOT
BRANCH   3  23
ATOM     23  O   LIG A   1      -5.595   4.916 129.286  0.00  0.00    -0.373 OA
ATOM     24  H   LIG A   1      -4.691   5.248 129.095  0.00  0.00    +0.211 HD
ENDBRANCH   3  23
BRANCH  11  25
ATOM     25  O   LIG A   1      -3.289   8.110 131.812  0.00  0.00    -0.385 OA
ATOM     26  H   LIG A   1      -2.715   8.888 131.681  0.00  0.00    +0.211 HD
ENDBRANCH  11  25
TORSDOF 2
ENDMDL
MODEL 8
REMARK VINA RESULT:      -7.1      1.870      4.393
REMARK  Name = NuBBE_575
REMARK  7 active torsions:
REMARK  status: ('A' for Active; 'I' for Inactive)
REMARK    1  A    between atoms: C_3  and  O_9
REMARK    2  A    between atoms: C_5  and  C_6
REMARK    3  A    between atoms: C_12  and  C_13
REMARK    4  A    between atoms: C_12  and  O_14
REMARK    5  A    between atoms: C_21  and  C_22
REMARK    6  A    between atoms: C_21  and  C_23
REMARK    7  A    between atoms: C_25  and  C_27
REMARK                            x       y       z     vdW  Elec       q    Type
REMARK                         _______ _______ _______ _____ _____    ______ ____
ROOT
ATOM      1  O   LIG A   1      -8.745   2.454 127.811  0.00  0.00    -0.293 OA
ATOM      2  C   LIG A   1      -7.911   1.582 127.545  0.00  0.00    +0.176 C 
ATOM      3  C   LIG A   1      -8.020   0.698 126.254  0.00  0.00    +0.171 C 
ATOM      4  C   LIG A   1      -6.545   0.739 126.009  0.00  0.00    +0.027 C 
ATOM      5  C   LIG A   1      -6.258   1.682 125.085  0.00  0.00    -0.004 C 
ATOM      6  C   LIG A   1      -6.543   3.168 125.250  0.00  0.00    +0.047 C 
ATOM      7  C   LIG A   1      -7.191   1.118 124.083  0.00  0.00    +0.188 C 
ATOM      8  O   LIG A   1      -6.900   0.995 122.893  0.00  0.00    -0.287 OA
ATOM      9  C   LIG A   1      -8.391   0.542 124.784  0.00  0.00    +0.041 C 
ATOM     10  C   LIG A   1      -8.883  -0.644 124.306  0.00  0.00    +0.018 C 
ATOM     11  C   LIG A   1      -8.055  -1.883 123.837  0.00  0.00    +0.082 C 
ATOM     12  C   LIG A   1      -9.022  -3.008 123.420  0.00  0.00    +0.046 C 
ATOM     13  C   LIG A   1      -7.021  -2.474 124.863  0.00  0.00    +0.039 C 
ATOM     14  C   LIG A   1      -7.532  -2.816 126.287  0.00  0.00    +0.007 C 
ATOM     15  C   LIG A   1      -6.515  -2.608 127.399  0.00  0.00    -0.001 C 
ATOM     16  C   LIG A   1      -6.290  -1.446 128.432  0.00  0.00    -0.001 C 
ATOM     17  C   LIG A   1      -6.881  -2.799 128.861  0.00  0.00    -0.029 C 
ATOM     18  C   LIG A   1      -6.007  -3.588 129.804  0.00  0.00    +0.011 C 
ATOM     19  C   LIG A   1      -8.352  -2.909 129.225  0.00  0.00    +0.011 C 
ATOM     20  C   LIG A   1      -7.008  -0.285 129.108  0.00  0.00    +0.015 C 
ATOM     21  C   LIG A   1      -6.788   1.162 128.617  0.00  0.00    +0.056 C 
ATOM     22  C   LIG A   1      -5.303   1.483 128.327  0.00  0.00    +0.015 C 
ENDROOT
BRANCH   3  23
ATOM     23  O   LIG A   1      -8.698  -0.344 126.928  0.00  0.00    -0.373 OA
ATOM     24  H   LIG A   1      -8.825  -0.030 127.849  0.00  0.00    +0.211 HD
ENDBRANCH   3  23
BRANCH  11  25
ATOM     25  O   LIG A   1      -7.341  -1.603 122.630  0.00  0.00    -0.385 OA
ATOM     26  H   LIG A   1      -7.583  -0.721 122.288  0.00  0.00    +0.211 HD
ENDBRANCH  11  25
TORSDOF 2
ENDMDL
MODEL 9
REMARK VINA RESULT:      -7.0      2.811      5.593
REMARK  Name = NuBBE_575
REMARK  7 active torsions:
REMARK  status: ('A' for Active; 'I' for Inactive)
REMARK    1  A    between atoms: C_3  and  O_9
REMARK    2  A    between atoms: C_5  and  C_6
REMARK    3  A    between atoms: C_12  and  C_13
REMARK    4  A    between atoms: C_12  and  O_14
REMARK    5  A    between atoms: C_21  and  C_22
REMARK    6  A    between atoms: C_21  and  C_23
REMARK    7  A    between atoms: C_25  and  C_27
REMARK                            x       y       z     vdW  Elec       q    Type
REMARK                         _______ _______ _______ _____ _____    ______ ____
ROOT
ATOM      1  O   LIG A   1      -8.554  -0.764 130.938  0.00  0.00    -0.293 OA
ATOM      2  C   LIG A   1      -7.786  -1.159 130.056  0.00  0.00    +0.176 C 
ATOM      3  C   LIG A   1      -6.942  -0.165 129.185  0.00  0.00    +0.171 C 
ATOM      4  C   LIG A   1      -5.737  -1.051 129.204  0.00  0.00    +0.027 C 
ATOM      5  C   LIG A   1      -4.869  -0.628 130.151  0.00  0.00    -0.004 C 
ATOM      6  C   LIG A   1      -5.180  -0.565 131.640  0.00  0.00    +0.047 C 
ATOM      7  C   LIG A   1      -4.806   0.749 129.611  0.00  0.00    +0.188 C 
ATOM      8  O   LIG A   1      -3.752   1.374 129.494  0.00  0.00    -0.287 OA
ATOM      9  C   LIG A   1      -6.149   1.130 129.048  0.00  0.00    +0.041 C 
ATOM     10  C   LIG A   1      -6.156   1.836 127.875  0.00  0.00    +0.018 C 
ATOM     11  C   LIG A   1      -5.249   1.594 126.627  0.00  0.00    +0.082 C 
ATOM     12  C   LIG A   1      -5.631   2.597 125.522  0.00  0.00    +0.046 C 
ATOM     13  C   LIG A   1      -5.264   0.148 126.010  0.00  0.00    +0.039 C 
ATOM     14  C   LIG A   1      -6.642  -0.474 125.663  0.00  0.00    +0.007 C 
ATOM     15  C   LIG A   1      -6.727  -1.982 125.845  0.00  0.00    -0.001 C 
ATOM     16  C   LIG A   1      -7.304  -2.886 126.994  0.00  0.00    -0.001 C 
ATOM     17  C   LIG A   1      -8.031  -2.738 125.647  0.00  0.00    -0.029 C 
ATOM     18  C   LIG A   1      -8.100  -4.007 124.835  0.00  0.00    +0.011 C 
ATOM     19  C   LIG A   1      -9.319  -1.937 125.558  0.00  0.00    +0.011 C 
ATOM     20  C   LIG A   1      -8.283  -2.864 128.161  0.00  0.00    +0.015 C 
ATOM     21  C   LIG A   1      -7.771  -2.704 129.608  0.00  0.00    +0.056 C 
ATOM     22  C   LIG A   1      -6.525  -3.570 129.907  0.00  0.00    +0.015 C 
ENDROOT
BRANCH   3  23
ATOM     23  O   LIG A   1      -7.903  -0.131 128.148  0.00  0.00    -0.373 OA
ATOM     24  H   LIG A   1      -7.396  -0.003 127.317  0.00  0.00    +0.211 HD
ENDBRANCH   3  23
BRANCH  11  25
ATOM     25  O   LIG A   1      -3.885   1.919 126.906  0.00  0.00    -0.385 OA
ATOM     26  H   LIG A   1      -3.806   2.855 127.177  0.00  0.00    +0.211 HD
ENDBRANCH  11  25
TORSDOF 2
ENDMDL
