MODEL 1
REMARK VINA RESULT:      -9.4      0.000      0.000
REMARK  Name = NuBBE_1028
REMARK  15 active torsions:
REMARK  status: ('A' for Active; 'I' for Inactive)
REMARK    1  A    between atoms: O_1  and  C_2
REMARK    2  A    between atoms: C_6  and  C_7
REMARK    3  A    between atoms: C_11  and  C_12
REMARK    4  A    between atoms: C_15  and  O_16
REMARK    5  A    between atoms: O_16  and  C_17
REMARK    6  A    between atoms: C_17  and  C_18
REMARK    7  A    between atoms: C_19  and  C_20
REMARK    8  A    between atoms: C_19  and  C_21
REMARK    9  A    between atoms: C_22  and  O_23
REMARK   10  A    between atoms: C_26  and  C_27
REMARK   11  A    between atoms: C_30  and  C_31
REMARK   12  A    between atoms: C_34  and  C_36
REMARK   13  A    between atoms: C_36  and  C_37
REMARK   14  A    between atoms: C_42  and  C_43
REMARK   15  A    between atoms: C_42  and  C_44
REMARK                            x       y       z     vdW  Elec       q    Type
REMARK                         _______ _______ _______ _____ _____    ______ ____
ROOT
ATOM      1  C   LIG A   1      -8.134  -0.858 124.239  0.00  0.00    +0.120 C 
ATOM      2  C   LIG A   1      -7.403   0.464 124.041  0.00  0.00    +0.032 C 
ATOM      3  C   LIG A   1      -7.341   1.329 125.308  0.00  0.00    +0.010 C 
ATOM      4  C   LIG A   1      -6.758   0.618 126.574  0.00  0.00    -0.023 C 
ATOM      5  C   LIG A   1      -5.238   0.457 126.341  0.00  0.00    +0.012 C 
ATOM      6  C   LIG A   1      -7.536  -0.753 126.723  0.00  0.00    +0.003 C 
ATOM      7  C   LIG A   1      -7.127  -1.495 128.004  0.00  0.00    +0.005 C 
ATOM      8  C   LIG A   1      -7.509  -0.675 129.232  0.00  0.00    +0.008 C 
ATOM      9  C   LIG A   1      -6.857   0.734 129.297  0.00  0.00    -0.021 C 
ATOM     10  C   LIG A   1      -5.345   0.499 129.600  0.00  0.00    +0.012 C 
ATOM     11  C   LIG A   1      -7.059   1.494 127.902  0.00  0.00    +0.033 C 
ATOM     12  C   LIG A   1      -6.436   2.934 127.986  0.00  0.00    +0.151 C 
ATOM     13  C   LIG A   1      -7.041   3.726 129.174  0.00  0.00    +0.147 C 
ATOM     14  C   LIG A   1      -6.924   3.034 130.534  0.00  0.00    +0.031 C 
ATOM     15  C   LIG A   1      -7.532   1.597 130.510  0.00  0.00    -0.021 C 
ATOM     16  C   LIG A   1      -9.081   1.649 130.356  0.00  0.00    +0.012 C 
ATOM     17  C   LIG A   1      -7.214   0.974 131.900  0.00  0.00    +0.008 C 
ATOM     18  C   LIG A   1      -7.928   1.683 133.040  0.00  0.00    +0.007 C 
ATOM     19  C   LIG A   1      -7.646   3.195 133.115  0.00  0.00    -0.028 C 
ATOM     20  C   LIG A   1      -6.504   3.417 134.138  0.00  0.00    +0.011 C 
ATOM     21  C   LIG A   1      -7.269   3.934 131.777  0.00  0.00    +0.008 C 
ATOM     22  C   LIG A   1      -8.289   5.117 131.629  0.00  0.00    +0.018 C 
ATOM     23  C   LIG A   1      -8.806   5.323 133.061  0.00  0.00    +0.009 C 
ATOM     24  C   LIG A   1      -8.912   3.920 133.616  0.00  0.00    +0.007 C 
ATOM     25  C   LIG A   1      -7.615  -1.680 125.452  0.00  0.00    -0.006 C 
ATOM     26  C   LIG A   1      -8.617  -2.843 125.704  0.00  0.00    +0.014 C 
ATOM     27  C   LIG A   1      -6.270  -2.346 125.095  0.00  0.00    +0.014 C 
ENDROOT
BRANCH  22  28
ATOM     28  C   LIG A   1      -7.818   6.470 131.072  0.00  0.00    -0.076 C 
ATOM     29  C   LIG A   1      -8.894   7.290 130.396  0.00  0.00    +0.038 C 
ATOM     30  C   LIG A   1      -6.579   6.974 131.152  0.00  0.00    +0.007 C 
ENDBRANCH  22  28
BRANCH   1  31
ATOM     31  O   LIG A   1      -9.535  -0.590 124.353  0.00  0.00    -0.391 OA
ATOM     32  H   LIG A   1      -9.676   0.028 125.088  0.00  0.00    +0.210 HD
ENDBRANCH   1  31
BRANCH  13  33
ATOM     33  O   LIG A   1      -8.398   4.045 128.857  0.00  0.00    -0.389 OA
ATOM     34  H   LIG A   1      -8.669   3.408 128.166  0.00  0.00    +0.210 HD
ENDBRANCH  13  33
BRANCH  12  35
ATOM     35  O   LIG A   1      -6.716   3.683 126.787  0.00  0.00    -0.370 OA
BRANCH  35  36
ATOM     36  C   LIG A   1      -5.700   4.617 126.413  0.00  0.00    +0.187 C 
BRANCH  36  37
ATOM     37  C   LIG A   1      -4.437   3.847 126.186  0.00  0.00    -0.001 C 
ATOM     38  C   LIG A   1      -3.300   3.929 126.905  0.00  0.00    -0.077 C 
ATOM     39  C   LIG A   1      -3.080   4.862 128.069  0.00  0.00    +0.038 C 
ATOM     40  C   LIG A   1      -2.104   3.084 126.557  0.00  0.00    +0.038 C 
ENDBRANCH  36  37
ENDBRANCH  35  36
ENDBRANCH  12  35
TORSDOF 6
ENDMDL
MODEL 2
REMARK VINA RESULT:      -9.2      1.084      1.533
REMARK  Name = NuBBE_1028
REMARK  15 active torsions:
REMARK  status: ('A' for Active; 'I' for Inactive)
REMARK    1  A    between atoms: O_1  and  C_2
REMARK    2  A    between atoms: C_6  and  C_7
REMARK    3  A    between atoms: C_11  and  C_12
REMARK    4  A    between atoms: C_15  and  O_16
REMARK    5  A    between atoms: O_16  and  C_17
REMARK    6  A    between atoms: C_17  and  C_18
REMARK    7  A    between atoms: C_19  and  C_20
REMARK    8  A    between atoms: C_19  and  C_21
REMARK    9  A    between atoms: C_22  and  O_23
REMARK   10  A    between atoms: C_26  and  C_27
REMARK   11  A    between atoms: C_30  and  C_31
REMARK   12  A    between atoms: C_34  and  C_36
REMARK   13  A    between atoms: C_36  and  C_37
REMARK   14  A    between atoms: C_42  and  C_43
REMARK   15  A    between atoms: C_42  and  C_44
REMARK                            x       y       z     vdW  Elec       q    Type
REMARK                         _______ _______ _______ _____ _____    ______ ____
ROOT
ATOM      1  C   LIG A   1      -8.766  -1.829 125.240  0.00  0.00    +0.120 C 
ATOM      2  C   LIG A   1      -8.542  -0.400 124.760  0.00  0.00    +0.032 C 
ATOM      3  C   LIG A   1      -8.471   0.629 125.897  0.00  0.00    +0.010 C 
ATOM      4  C   LIG A   1      -7.432   0.309 127.022  0.00  0.00    -0.023 C 
ATOM      5  C   LIG A   1      -6.028   0.548 126.421  0.00  0.00    +0.012 C 
ATOM      6  C   LIG A   1      -7.695  -1.186 127.472  0.00  0.00    +0.003 C 
ATOM      7  C   LIG A   1      -6.804  -1.582 128.659  0.00  0.00    +0.005 C 
ATOM      8  C   LIG A   1      -7.139  -0.726 129.876  0.00  0.00    +0.008 C 
ATOM      9  C   LIG A   1      -6.956   0.802 129.663  0.00  0.00    -0.021 C 
ATOM     10  C   LIG A   1      -5.419   1.049 129.585  0.00  0.00    +0.012 C 
ATOM     11  C   LIG A   1      -7.687   1.256 128.311  0.00  0.00    +0.033 C 
ATOM     12  C   LIG A   1      -7.537   2.808 128.120  0.00  0.00    +0.151 C 
ATOM     13  C   LIG A   1      -8.078   3.569 129.359  0.00  0.00    +0.147 C 
ATOM     14  C   LIG A   1      -7.455   3.150 130.693  0.00  0.00    +0.031 C 
ATOM     15  C   LIG A   1      -7.579   1.615 130.937  0.00  0.00    -0.021 C 
ATOM     16  C   LIG A   1      -9.063   1.207 131.182  0.00  0.00    +0.012 C 
ATOM     17  C   LIG A   1      -6.785   1.323 132.243  0.00  0.00    +0.008 C 
ATOM     18  C   LIG A   1      -7.412   1.967 133.470  0.00  0.00    +0.007 C 
ATOM     19  C   LIG A   1      -7.601   3.491 133.352  0.00  0.00    -0.028 C 
ATOM     20  C   LIG A   1      -6.387   4.176 134.028  0.00  0.00    +0.011 C 
ATOM     21  C   LIG A   1      -7.777   4.095 131.909  0.00  0.00    +0.008 C 
ATOM     22  C   LIG A   1      -9.118   4.908 131.936  0.00  0.00    +0.018 C 
ATOM     23  C   LIG A   1      -9.344   5.175 133.432  0.00  0.00    +0.009 C 
ATOM     24  C   LIG A   1      -8.886   3.899 134.103  0.00  0.00    +0.007 C 
ATOM     25  C   LIG A   1      -7.763  -2.278 126.340  0.00  0.00    -0.006 C 
ATOM     26  C   LIG A   1      -8.275  -3.624 126.929  0.00  0.00    +0.014 C 
ATOM     27  C   LIG A   1      -6.393  -2.587 125.703  0.00  0.00    +0.014 C 
ENDROOT
BRANCH  22  28
ATOM     28  C   LIG A   1      -9.224   6.239 131.174  0.00  0.00    -0.076 C 
ATOM     29  C   LIG A   1      -7.912   6.970 130.984  0.00  0.00    +0.038 C 
ATOM     30  C   LIG A   1     -10.340   6.777 130.665  0.00  0.00    +0.007 C 
ENDBRANCH  22  28
BRANCH   1  31
ATOM     31  O   LIG A   1     -10.119  -1.950 125.689  0.00  0.00    -0.391 OA
ATOM     32  H   LIG A   1     -10.303  -2.885 125.874  0.00  0.00    +0.210 HD
ENDBRANCH   1  31
BRANCH  13  33
ATOM     33  O   LIG A   1      -9.502   3.443 129.377  0.00  0.00    -0.389 OA
ATOM     34  H   LIG A   1      -9.743   3.258 130.306  0.00  0.00    +0.210 HD
ENDBRANCH  13  33
BRANCH  12  35
ATOM     35  O   LIG A   1      -8.293   3.258 126.979  0.00  0.00    -0.370 OA
BRANCH  35  36
ATOM     36  C   LIG A   1      -7.650   4.268 126.196  0.00  0.00    +0.187 C 
BRANCH  36  37
ATOM     37  C   LIG A   1      -6.175   4.135 126.406  0.00  0.00    -0.001 C 
ATOM     38  C   LIG A   1      -5.229   4.020 125.453  0.00  0.00    -0.077 C 
ATOM     39  C   LIG A   1      -5.500   3.965 123.971  0.00  0.00    +0.038 C 
ATOM     40  C   LIG A   1      -3.775   3.897 125.820  0.00  0.00    +0.038 C 
ENDBRANCH  36  37
ENDBRANCH  35  36
ENDBRANCH  12  35
TORSDOF 6
ENDMDL
MODEL 3
REMARK VINA RESULT:      -8.6      2.706      7.572
REMARK  Name = NuBBE_1028
REMARK  15 active torsions:
REMARK  status: ('A' for Active; 'I' for Inactive)
REMARK    1  A    between atoms: O_1  and  C_2
REMARK    2  A    between atoms: C_6  and  C_7
REMARK    3  A    between atoms: C_11  and  C_12
REMARK    4  A    between atoms: C_15  and  O_16
REMARK    5  A    between atoms: O_16  and  C_17
REMARK    6  A    between atoms: C_17  and  C_18
REMARK    7  A    between atoms: C_19  and  C_20
REMARK    8  A    between atoms: C_19  and  C_21
REMARK    9  A    between atoms: C_22  and  O_23
REMARK   10  A    between atoms: C_26  and  C_27
REMARK   11  A    between atoms: C_30  and  C_31
REMARK   12  A    between atoms: C_34  and  C_36
REMARK   13  A    between atoms: C_36  and  C_37
REMARK   14  A    between atoms: C_42  and  C_43
REMARK   15  A    between atoms: C_42  and  C_44
REMARK                            x       y       z     vdW  Elec       q    Type
REMARK                         _______ _______ _______ _____ _____    ______ ____
ROOT
ATOM      1  C   LIG A   1      -4.236  -1.364 133.203  0.00  0.00    +0.120 C 
ATOM      2  C   LIG A   1      -5.101  -0.125 133.009  0.00  0.00    +0.032 C 
ATOM      3  C   LIG A   1      -5.666   0.016 131.588  0.00  0.00    +0.010 C 
ATOM      4  C   LIG A   1      -6.447  -1.229 131.053  0.00  0.00    -0.023 C 
ATOM      5  C   LIG A   1      -7.789  -1.283 131.820  0.00  0.00    +0.012 C 
ATOM      6  C   LIG A   1      -5.515  -2.487 131.294  0.00  0.00    +0.003 C 
ATOM      7  C   LIG A   1      -6.131  -3.764 130.703  0.00  0.00    +0.005 C 
ATOM      8  C   LIG A   1      -6.258  -3.635 129.189  0.00  0.00    +0.008 C 
ATOM      9  C   LIG A   1      -7.137  -2.447 128.712  0.00  0.00    -0.021 C 
ATOM     10  C   LIG A   1      -8.608  -2.825 129.066  0.00  0.00    +0.012 C 
ATOM     11  C   LIG A   1      -6.687  -1.101 129.457  0.00  0.00    +0.033 C 
ATOM     12  C   LIG A   1      -7.550   0.106 128.941  0.00  0.00    +0.151 C 
ATOM     13  C   LIG A   1      -7.450   0.233 127.398  0.00  0.00    +0.147 C 
ATOM     14  C   LIG A   1      -7.821  -1.034 126.624  0.00  0.00    +0.031 C 
ATOM     15  C   LIG A   1      -6.990  -2.268 127.094  0.00  0.00    -0.021 C 
ATOM     16  C   LIG A   1      -5.493  -2.120 126.687  0.00  0.00    +0.012 C 
ATOM     17  C   LIG A   1      -7.571  -3.492 126.329  0.00  0.00    +0.008 C 
ATOM     18  C   LIG A   1      -7.340  -3.412 124.828  0.00  0.00    +0.007 C 
ATOM     19  C   LIG A   1      -7.891  -2.131 124.174  0.00  0.00    -0.028 C 
ATOM     20  C   LIG A   1      -9.294  -2.452 123.602  0.00  0.00    +0.011 C 
ATOM     21  C   LIG A   1      -8.001  -0.843 125.072  0.00  0.00    +0.008 C 
ATOM     22  C   LIG A   1      -7.202   0.281 124.324  0.00  0.00    +0.018 C 
ATOM     23  C   LIG A   1      -7.151  -0.224 122.873  0.00  0.00    +0.009 C 
ATOM     24  C   LIG A   1      -6.962  -1.718 123.014  0.00  0.00    +0.007 C 
ATOM     25  C   LIG A   1      -4.924  -2.680 132.740  0.00  0.00    -0.006 C 
ATOM     26  C   LIG A   1      -3.845  -3.801 132.728  0.00  0.00    +0.014 C 
ATOM     27  C   LIG A   1      -5.976  -3.113 133.781  0.00  0.00    +0.014 C 
ENDROOT
BRANCH  22  28
ATOM     28  C   LIG A   1      -7.727   1.726 124.328  0.00  0.00    -0.076 C 
ATOM     29  C   LIG A   1      -9.234   1.857 124.374  0.00  0.00    +0.038 C 
ATOM     30  C   LIG A   1      -6.984   2.841 124.313  0.00  0.00    +0.007 C 
ENDBRANCH  22  28
BRANCH   1  31
ATOM     31  O   LIG A   1      -2.992  -1.161 132.525  0.00  0.00    -0.391 OA
ATOM     32  H   LIG A   1      -2.359  -0.766 133.147  0.00  0.00    +0.210 HD
ENDBRANCH   1  31
BRANCH  13  33
ATOM     33  O   LIG A   1      -6.135   0.689 127.070  0.00  0.00    -0.389 OA
ATOM     34  H   LIG A   1      -5.572   0.459 127.835  0.00  0.00    +0.210 HD
ENDBRANCH  13  33
BRANCH  12  35
ATOM     35  O   LIG A   1      -7.080   1.347 129.503  0.00  0.00    -0.370 OA
BRANCH  35  36
ATOM     36  C   LIG A   1      -8.087   2.348 129.669  0.00  0.00    +0.187 C 
BRANCH  36  37
ATOM     37  C   LIG A   1      -7.998   2.853 131.075  0.00  0.00    -0.001 C 
ATOM     38  C   LIG A   1      -8.790   2.510 132.109  0.00  0.00    -0.077 C 
ATOM     39  C   LIG A   1      -9.959   1.561 132.024  0.00  0.00    +0.038 C 
ATOM     40  C   LIG A   1      -8.575   3.103 133.476  0.00  0.00    +0.038 C 
ENDBRANCH  36  37
ENDBRANCH  35  36
ENDBRANCH  12  35
TORSDOF 6
ENDMDL
MODEL 4
REMARK VINA RESULT:      -8.5      2.195      5.267
REMARK  Name = NuBBE_1028
REMARK  15 active torsions:
REMARK  status: ('A' for Active; 'I' for Inactive)
REMARK    1  A    between atoms: O_1  and  C_2
REMARK    2  A    between atoms: C_6  and  C_7
REMARK    3  A    between atoms: C_11  and  C_12
REMARK    4  A    between atoms: C_15  and  O_16
REMARK    5  A    between atoms: O_16  and  C_17
REMARK    6  A    between atoms: C_17  and  C_18
REMARK    7  A    between atoms: C_19  and  C_20
REMARK    8  A    between atoms: C_19  and  C_21
REMARK    9  A    between atoms: C_22  and  O_23
REMARK   10  A    between atoms: C_26  and  C_27
REMARK   11  A    between atoms: C_30  and  C_31
REMARK   12  A    between atoms: C_34  and  C_36
REMARK   13  A    between atoms: C_36  and  C_37
REMARK   14  A    between atoms: C_42  and  C_43
REMARK   15  A    between atoms: C_42  and  C_44
REMARK                            x       y       z     vdW  Elec       q    Type
REMARK                         _______ _______ _______ _____ _____    ______ ____
ROOT
ATOM      1  C   LIG A   1      -7.089  -2.065 125.724  0.00  0.00    +0.120 C 
ATOM      2  C   LIG A   1      -7.601  -1.964 127.156  0.00  0.00    +0.032 C 
ATOM      3  C   LIG A   1      -7.008  -0.785 127.940  0.00  0.00    +0.010 C 
ATOM      4  C   LIG A   1      -7.156   0.613 127.256  0.00  0.00    -0.023 C 
ATOM      5  C   LIG A   1      -8.647   1.009 127.355  0.00  0.00    +0.012 C 
ATOM      6  C   LIG A   1      -6.630   0.450 125.771  0.00  0.00    +0.003 C 
ATOM      7  C   LIG A   1      -6.619   1.794 125.028  0.00  0.00    +0.005 C 
ATOM      8  C   LIG A   1      -5.649   2.760 125.700  0.00  0.00    +0.008 C 
ATOM      9  C   LIG A   1      -5.971   3.069 127.188  0.00  0.00    -0.021 C 
ATOM     10  C   LIG A   1      -7.255   3.953 127.180  0.00  0.00    +0.012 C 
ATOM     11  C   LIG A   1      -6.209   1.703 127.990  0.00  0.00    +0.033 C 
ATOM     12  C   LIG A   1      -6.492   2.017 129.503  0.00  0.00    +0.151 C 
ATOM     13  C   LIG A   1      -5.341   2.858 130.115  0.00  0.00    +0.147 C 
ATOM     14  C   LIG A   1      -5.027   4.157 129.368  0.00  0.00    +0.031 C 
ATOM     15  C   LIG A   1      -4.734   3.904 127.857  0.00  0.00    -0.021 C 
ATOM     16  C   LIG A   1      -3.388   3.143 127.670  0.00  0.00    +0.012 C 
ATOM     17  C   LIG A   1      -4.578   5.310 127.209  0.00  0.00    +0.008 C 
ATOM     18  C   LIG A   1      -3.362   6.064 127.724  0.00  0.00    +0.007 C 
ATOM     19  C   LIG A   1      -3.328   6.233 129.254  0.00  0.00    -0.028 C 
ATOM     20  C   LIG A   1      -3.917   7.625 129.593  0.00  0.00    +0.011 C 
ATOM     21  C   LIG A   1      -4.071   5.151 130.124  0.00  0.00    +0.008 C 
ATOM     22  C   LIG A   1      -3.007   4.597 131.135  0.00  0.00    +0.018 C 
ATOM     23  C   LIG A   1      -1.938   5.702 131.168  0.00  0.00    +0.009 C 
ATOM     24  C   LIG A   1      -1.864   6.180 129.735  0.00  0.00    +0.007 C 
ATOM     25  C   LIG A   1      -7.219  -0.738 124.924  0.00  0.00    -0.006 C 
ATOM     26  C   LIG A   1      -6.414  -0.899 123.602  0.00  0.00    +0.014 C 
ATOM     27  C   LIG A   1      -8.687  -0.523 124.504  0.00  0.00    +0.014 C 
ENDROOT
BRANCH  22  28
ATOM     28  C   LIG A   1      -3.420   4.265 132.578  0.00  0.00    -0.076 C 
ATOM     29  C   LIG A   1      -4.477   5.176 133.164  0.00  0.00    +0.038 C 
ATOM     30  C   LIG A   1      -2.952   3.257 133.326  0.00  0.00    +0.007 C 
ENDBRANCH  22  28
BRANCH   1  31
ATOM     31  O   LIG A   1      -5.734  -2.523 125.756  0.00  0.00    -0.391 OA
ATOM     32  H   LIG A   1      -5.145  -1.766 125.602  0.00  0.00    +0.210 HD
ENDBRANCH   1  31
BRANCH  13  33
ATOM     33  O   LIG A   1      -4.187   2.022 130.230  0.00  0.00    -0.389 OA
ATOM     34  H   LIG A   1      -4.190   1.686 131.148  0.00  0.00    +0.210 HD
ENDBRANCH  13  33
BRANCH  12  35
ATOM     35  O   LIG A   1      -6.585   0.800 130.269  0.00  0.00    -0.370 OA
BRANCH  35  36
ATOM     36  C   LIG A   1      -7.649   0.774 131.224  0.00  0.00    +0.187 C 
BRANCH  36  37
ATOM     37  C   LIG A   1      -8.741   1.658 130.712  0.00  0.00    -0.001 C 
ATOM     38  C   LIG A   1      -9.488   2.520 131.430  0.00  0.00    -0.077 C 
ATOM     39  C   LIG A   1      -9.379   2.722 132.920  0.00  0.00    +0.038 C 
ATOM     40  C   LIG A   1     -10.556   3.351 130.771  0.00  0.00    +0.038 C 
ENDBRANCH  36  37
ENDBRANCH  35  36
ENDBRANCH  12  35
TORSDOF 6
ENDMDL
MODEL 5
REMARK VINA RESULT:      -8.3      2.855      4.679
REMARK  Name = NuBBE_1028
REMARK  15 active torsions:
REMARK  status: ('A' for Active; 'I' for Inactive)
REMARK    1  A    between atoms: O_1  and  C_2
REMARK    2  A    between atoms: C_6  and  C_7
REMARK    3  A    between atoms: C_11  and  C_12
REMARK    4  A    between atoms: C_15  and  O_16
REMARK    5  A    between atoms: O_16  and  C_17
REMARK    6  A    between atoms: C_17  and  C_18
REMARK    7  A    between atoms: C_19  and  C_20
REMARK    8  A    between atoms: C_19  and  C_21
REMARK    9  A    between atoms: C_22  and  O_23
REMARK   10  A    between atoms: C_26  and  C_27
REMARK   11  A    between atoms: C_30  and  C_31
REMARK   12  A    between atoms: C_34  and  C_36
REMARK   13  A    between atoms: C_36  and  C_37
REMARK   14  A    between atoms: C_42  and  C_43
REMARK   15  A    between atoms: C_42  and  C_44
REMARK                            x       y       z     vdW  Elec       q    Type
REMARK                         _______ _______ _______ _____ _____    ______ ____
ROOT
ATOM      1  C   LIG A   1      -7.808   3.958 124.866  0.00  0.00    +0.120 C 
ATOM      2  C   LIG A   1      -6.586   4.375 125.675  0.00  0.00    +0.032 C 
ATOM      3  C   LIG A   1      -6.326   3.488 126.901  0.00  0.00    +0.010 C 
ATOM      4  C   LIG A   1      -6.234   1.955 126.607  0.00  0.00    -0.023 C 
ATOM      5  C   LIG A   1      -4.894   1.715 125.874  0.00  0.00    +0.012 C 
ATOM      6  C   LIG A   1      -7.513   1.578 125.753  0.00  0.00    +0.003 C 
ATOM      7  C   LIG A   1      -7.593   0.066 125.497  0.00  0.00    +0.005 C 
ATOM      8  C   LIG A   1      -7.750  -0.684 126.816  0.00  0.00    +0.008 C 
ATOM      9  C   LIG A   1      -6.595  -0.457 127.830  0.00  0.00    -0.021 C 
ATOM     10  C   LIG A   1      -5.355  -1.205 127.250  0.00  0.00    +0.012 C 
ATOM     11  C   LIG A   1      -6.307   1.111 127.987  0.00  0.00    +0.033 C 
ATOM     12  C   LIG A   1      -5.167   1.338 129.045  0.00  0.00    +0.151 C 
ATOM     13  C   LIG A   1      -5.533   0.674 130.399  0.00  0.00    +0.147 C 
ATOM     14  C   LIG A   1      -5.867  -0.817 130.313  0.00  0.00    +0.031 C 
ATOM     15  C   LIG A   1      -6.998  -1.102 129.277  0.00  0.00    -0.021 C 
ATOM     16  C   LIG A   1      -8.363  -0.539 129.773  0.00  0.00    +0.012 C 
ATOM     17  C   LIG A   1      -7.125  -2.650 129.196  0.00  0.00    +0.008 C 
ATOM     18  C   LIG A   1      -7.617  -3.270 130.495  0.00  0.00    +0.007 C 
ATOM     19  C   LIG A   1      -6.756  -2.921 131.724  0.00  0.00    -0.028 C 
ATOM     20  C   LIG A   1      -5.751  -4.078 131.945  0.00  0.00    +0.011 C 
ATOM     21  C   LIG A   1      -5.959  -1.564 131.694  0.00  0.00    +0.008 C 
ATOM     22  C   LIG A   1      -6.386  -0.778 132.983  0.00  0.00    +0.018 C 
ATOM     23  C   LIG A   1      -6.939  -1.877 133.904  0.00  0.00    +0.009 C 
ATOM     24  C   LIG A   1      -7.668  -2.809 132.963  0.00  0.00    +0.007 C 
ATOM     25  C   LIG A   1      -7.812   2.453 124.478  0.00  0.00    -0.006 C 
ATOM     26  C   LIG A   1      -9.222   2.109 123.917  0.00  0.00    +0.014 C 
ATOM     27  C   LIG A   1      -6.823   2.208 123.321  0.00  0.00    +0.014 C 
ENDROOT
BRANCH  22  28
ATOM     28  C   LIG A   1      -5.345   0.043 133.760  0.00  0.00    -0.076 C 
ATOM     29  C   LIG A   1      -3.919  -0.445 133.626  0.00  0.00    +0.038 C 
ATOM     30  C   LIG A   1      -5.586   1.130 134.505  0.00  0.00    +0.007 C 
ENDBRANCH  22  28
BRANCH   1  31
ATOM     31  O   LIG A   1      -8.983   4.309 125.604  0.00  0.00    -0.391 OA
ATOM     32  H   LIG A   1      -9.763   4.115 125.060  0.00  0.00    +0.210 HD
ENDBRANCH   1  31
BRANCH  13  33
ATOM     33  O   LIG A   1      -6.597   1.422 130.993  0.00  0.00    -0.389 OA
ATOM     34  H   LIG A   1      -6.902   2.046 130.305  0.00  0.00    +0.210 HD
ENDBRANCH  13  33
BRANCH  12  35
ATOM     35  O   LIG A   1      -4.977   2.744 129.297  0.00  0.00    -0.370 OA
BRANCH  35  36
ATOM     36  C   LIG A   1      -3.717   3.083 129.882  0.00  0.00    +0.187 C 
BRANCH  36  37
ATOM     37  C   LIG A   1      -3.382   4.479 129.462  0.00  0.00    -0.001 C 
ATOM     38  C   LIG A   1      -2.809   4.860 128.303  0.00  0.00    -0.077 C 
ATOM     39  C   LIG A   1      -2.359   3.920 127.214  0.00  0.00    +0.038 C 
ATOM     40  C   LIG A   1      -2.534   6.312 128.019  0.00  0.00    +0.038 C 
ENDBRANCH  36  37
ENDBRANCH  35  36
ENDBRANCH  12  35
TORSDOF 6
ENDMDL
MODEL 6
REMARK VINA RESULT:      -8.2      2.421      5.370
REMARK  Name = NuBBE_1028
REMARK  15 active torsions:
REMARK  status: ('A' for Active; 'I' for Inactive)
REMARK    1  A    between atoms: O_1  and  C_2
REMARK    2  A    between atoms: C_6  and  C_7
REMARK    3  A    between atoms: C_11  and  C_12
REMARK    4  A    between atoms: C_15  and  O_16
REMARK    5  A    between atoms: O_16  and  C_17
REMARK    6  A    between atoms: C_17  and  C_18
REMARK    7  A    between atoms: C_19  and  C_20
REMARK    8  A    between atoms: C_19  and  C_21
REMARK    9  A    between atoms: C_22  and  O_23
REMARK   10  A    between atoms: C_26  and  C_27
REMARK   11  A    between atoms: C_30  and  C_31
REMARK   12  A    between atoms: C_34  and  C_36
REMARK   13  A    between atoms: C_36  and  C_37
REMARK   14  A    between atoms: C_42  and  C_43
REMARK   15  A    between atoms: C_42  and  C_44
REMARK                            x       y       z     vdW  Elec       q    Type
REMARK                         _______ _______ _______ _____ _____    ______ ____
ROOT
ATOM      1  C   LIG A   1      -7.038  -2.353 124.893  0.00  0.00    +0.120 C 
ATOM      2  C   LIG A   1      -7.548  -2.402 126.328  0.00  0.00    +0.032 C 
ATOM      3  C   LIG A   1      -7.017  -1.263 127.210  0.00  0.00    +0.010 C 
ATOM      4  C   LIG A   1      -7.241   0.178 126.647  0.00  0.00    -0.023 C 
ATOM      5  C   LIG A   1      -8.751   0.484 126.778  0.00  0.00    +0.012 C 
ATOM      6  C   LIG A   1      -6.713   0.170 125.154  0.00  0.00    +0.003 C 
ATOM      7  C   LIG A   1      -6.777   1.570 124.526  0.00  0.00    +0.005 C 
ATOM      8  C   LIG A   1      -5.857   2.527 125.279  0.00  0.00    +0.008 C 
ATOM      9  C   LIG A   1      -6.189   2.691 126.788  0.00  0.00    -0.021 C 
ATOM     10  C   LIG A   1      -7.520   3.502 126.854  0.00  0.00    +0.012 C 
ATOM     11  C   LIG A   1      -6.352   1.251 127.471  0.00  0.00    +0.033 C 
ATOM     12  C   LIG A   1      -6.645   1.421 129.005  0.00  0.00    +0.151 C 
ATOM     13  C   LIG A   1      -5.538   2.267 129.686  0.00  0.00    +0.147 C 
ATOM     14  C   LIG A   1      -5.297   3.640 129.052  0.00  0.00    +0.031 C 
ATOM     15  C   LIG A   1      -4.997   3.531 127.525  0.00  0.00    -0.021 C 
ATOM     16  C   LIG A   1      -3.612   2.862 127.275  0.00  0.00    +0.012 C 
ATOM     17  C   LIG A   1      -4.918   4.993 126.999  0.00  0.00    +0.008 C 
ATOM     18  C   LIG A   1      -3.742   5.765 127.577  0.00  0.00    +0.007 C 
ATOM     19  C   LIG A   1      -3.712   5.806 129.116  0.00  0.00    -0.028 C 
ATOM     20  C   LIG A   1      -4.372   7.131 129.571  0.00  0.00    +0.011 C 
ATOM     21  C   LIG A   1      -4.392   4.616 129.891  0.00  0.00    +0.008 C 
ATOM     22  C   LIG A   1      -3.296   4.037 130.852  0.00  0.00    +0.018 C 
ATOM     23  C   LIG A   1      -2.288   5.190 130.979  0.00  0.00    +0.009 C 
ATOM     24  C   LIG A   1      -2.244   5.790 129.591  0.00  0.00    +0.007 C 
ATOM     25  C   LIG A   1      -7.241  -0.973 124.208  0.00  0.00    -0.006 C 
ATOM     26  C   LIG A   1      -6.434  -0.978 122.878  0.00  0.00    +0.014 C 
ATOM     27  C   LIG A   1      -8.721  -0.801 123.808  0.00  0.00    +0.014 C 
ENDROOT
BRANCH  22  28
ATOM     28  C   LIG A   1      -3.686   3.562 132.261  0.00  0.00    -0.076 C 
ATOM     29  C   LIG A   1      -4.935   4.202 132.827  0.00  0.00    +0.038 C 
ATOM     30  C   LIG A   1      -3.043   2.645 132.996  0.00  0.00    +0.007 C 
ENDBRANCH  22  28
BRANCH   1  31
ATOM     31  O   LIG A   1      -5.660  -2.739 124.888  0.00  0.00    -0.391 OA
ATOM     32  H   LIG A   1      -5.414  -3.032 125.780  0.00  0.00    +0.210 HD
ENDBRANCH   1  31
BRANCH  13  33
ATOM     33  O   LIG A   1      -4.340   1.488 129.732  0.00  0.00    -0.389 OA
ATOM     34  H   LIG A   1      -4.599   0.583 129.466  0.00  0.00    +0.210 HD
ENDBRANCH  13  33
BRANCH  12  35
ATOM     35  O   LIG A   1      -6.670   0.140 129.665  0.00  0.00    -0.370 OA
BRANCH  35  36
ATOM     36  C   LIG A   1      -7.808  -0.080 130.502  0.00  0.00    +0.187 C 
BRANCH  36  37
ATOM     37  C   LIG A   1      -7.415  -1.072 131.552  0.00  0.00    -0.001 C 
ATOM     38  C   LIG A   1      -7.355  -2.411 131.417  0.00  0.00    -0.077 C 
ATOM     39  C   LIG A   1      -7.719  -3.170 130.166  0.00  0.00    +0.038 C 
ATOM     40  C   LIG A   1      -6.936  -3.284 132.570  0.00  0.00    +0.038 C 
ENDBRANCH  36  37
ENDBRANCH  35  36
ENDBRANCH  12  35
TORSDOF 6
ENDMDL
MODEL 7
REMARK VINA RESULT:      -8.2      2.192      7.235
REMARK  Name = NuBBE_1028
REMARK  15 active torsions:
REMARK  status: ('A' for Active; 'I' for Inactive)
REMARK    1  A    between atoms: O_1  and  C_2
REMARK    2  A    between atoms: C_6  and  C_7
REMARK    3  A    between atoms: C_11  and  C_12
REMARK    4  A    between atoms: C_15  and  O_16
REMARK    5  A    between atoms: O_16  and  C_17
REMARK    6  A    between atoms: C_17  and  C_18
REMARK    7  A    between atoms: C_19  and  C_20
REMARK    8  A    between atoms: C_19  and  C_21
REMARK    9  A    between atoms: C_22  and  O_23
REMARK   10  A    between atoms: C_26  and  C_27
REMARK   11  A    between atoms: C_30  and  C_31
REMARK   12  A    between atoms: C_34  and  C_36
REMARK   13  A    between atoms: C_36  and  C_37
REMARK   14  A    between atoms: C_42  and  C_43
REMARK   15  A    between atoms: C_42  and  C_44
REMARK                            x       y       z     vdW  Elec       q    Type
REMARK                         _______ _______ _______ _____ _____    ______ ____
ROOT
ATOM      1  C   LIG A   1      -4.082   3.123 133.435  0.00  0.00    +0.120 C 
ATOM      2  C   LIG A   1      -5.159   4.046 132.879  0.00  0.00    +0.032 C 
ATOM      3  C   LIG A   1      -5.826   3.515 131.602  0.00  0.00    +0.010 C 
ATOM      4  C   LIG A   1      -6.411   2.068 131.707  0.00  0.00    -0.023 C 
ATOM      5  C   LIG A   1      -7.673   2.154 132.596  0.00  0.00    +0.012 C 
ATOM      6  C   LIG A   1      -5.262   1.156 132.304  0.00  0.00    +0.003 C 
ATOM      7  C   LIG A   1      -5.682  -0.320 132.349  0.00  0.00    +0.005 C 
ATOM      8  C   LIG A   1      -5.923  -0.842 130.937  0.00  0.00    +0.008 C 
ATOM      9  C   LIG A   1      -7.023  -0.083 130.145  0.00  0.00    -0.021 C 
ATOM     10  C   LIG A   1      -8.381  -0.475 130.803  0.00  0.00    +0.012 C 
ATOM     11  C   LIG A   1      -6.769   1.496 130.235  0.00  0.00    +0.033 C 
ATOM     12  C   LIG A   1      -7.859   2.259 129.398  0.00  0.00    +0.151 C 
ATOM     13  C   LIG A   1      -7.878   1.754 127.931  0.00  0.00    +0.147 C 
ATOM     14  C   LIG A   1      -8.070   0.244 127.774  0.00  0.00    +0.031 C 
ATOM     15  C   LIG A   1      -7.010  -0.566 128.583  0.00  0.00    -0.021 C 
ATOM     16  C   LIG A   1      -5.590  -0.400 127.964  0.00  0.00    +0.012 C 
ATOM     17  C   LIG A   1      -7.416  -2.061 128.445  0.00  0.00    +0.008 C 
ATOM     18  C   LIG A   1      -7.296  -2.574 127.018  0.00  0.00    +0.007 C 
ATOM     19  C   LIG A   1      -8.101  -1.760 125.987  0.00  0.00    -0.028 C 
ATOM     20  C   LIG A   1      -9.460  -2.472 125.773  0.00  0.00    +0.011 C 
ATOM     21  C   LIG A   1      -8.377  -0.244 126.310  0.00  0.00    +0.008 C 
ATOM     22  C   LIG A   1      -7.833   0.570 125.084  0.00  0.00    +0.018 C 
ATOM     23  C   LIG A   1      -7.785  -0.474 123.957  0.00  0.00    +0.009 C 
ATOM     24  C   LIG A   1      -7.332  -1.739 124.650  0.00  0.00    +0.007 C 
ATOM     25  C   LIG A   1      -4.557   1.655 133.621  0.00  0.00    -0.006 C 
ATOM     26  C   LIG A   1      -3.304   0.782 133.916  0.00  0.00    +0.014 C 
ATOM     27  C   LIG A   1      -5.452   1.550 134.873  0.00  0.00    +0.014 C 
ENDROOT
BRANCH  22  28
ATOM     28  C   LIG A   1      -8.600   1.805 124.583  0.00  0.00    -0.076 C 
ATOM     29  C   LIG A   1     -10.060   1.564 124.268  0.00  0.00    +0.038 C 
ATOM     30  C   LIG A   1      -8.102   3.038 124.427  0.00  0.00    +0.007 C 
ENDBRANCH  22  28
BRANCH   1  31
ATOM     31  O   LIG A   1      -2.936   3.194 132.580  0.00  0.00    -0.391 OA
ATOM     32  H   LIG A   1      -2.135   3.165 133.128  0.00  0.00    +0.210 HD
ENDBRANCH   1  31
BRANCH  13  33
ATOM     33  O   LIG A   1      -6.685   2.206 127.285  0.00  0.00    -0.389 OA
ATOM     34  H   LIG A   1      -6.879   2.196 126.327  0.00  0.00    +0.210 HD
ENDBRANCH  13  33
BRANCH  12  35
ATOM     35  O   LIG A   1      -7.577   3.672 129.360  0.00  0.00    -0.370 OA
BRANCH  35  36
ATOM     36  C   LIG A   1      -8.732   4.510 129.269  0.00  0.00    +0.187 C 
BRANCH  36  37
ATOM     37  C   LIG A   1      -9.209   4.779 130.661  0.00  0.00    -0.001 C 
ATOM     38  C   LIG A   1      -8.784   5.754 131.488  0.00  0.00    -0.077 C 
ATOM     39  C   LIG A   1      -7.699   6.749 131.162  0.00  0.00    +0.038 C 
ATOM     40  C   LIG A   1      -9.364   5.903 132.868  0.00  0.00    +0.038 C 
ENDBRANCH  36  37
ENDBRANCH  35  36
ENDBRANCH  12  35
TORSDOF 6
ENDMDL
MODEL 8
REMARK VINA RESULT:      -8.1      2.279      3.739
REMARK  Name = NuBBE_1028
REMARK  15 active torsions:
REMARK  status: ('A' for Active; 'I' for Inactive)
REMARK    1  A    between atoms: O_1  and  C_2
REMARK    2  A    between atoms: C_6  and  C_7
REMARK    3  A    between atoms: C_11  and  C_12
REMARK    4  A    between atoms: C_15  and  O_16
REMARK    5  A    between atoms: O_16  and  C_17
REMARK    6  A    between atoms: C_17  and  C_18
REMARK    7  A    between atoms: C_19  and  C_20
REMARK    8  A    between atoms: C_19  and  C_21
REMARK    9  A    between atoms: C_22  and  O_23
REMARK   10  A    between atoms: C_26  and  C_27
REMARK   11  A    between atoms: C_30  and  C_31
REMARK   12  A    between atoms: C_34  and  C_36
REMARK   13  A    between atoms: C_36  and  C_37
REMARK   14  A    between atoms: C_42  and  C_43
REMARK   15  A    between atoms: C_42  and  C_44
REMARK                            x       y       z     vdW  Elec       q    Type
REMARK                         _______ _______ _______ _____ _____    ______ ____
ROOT
ATOM      1  C   LIG A   1      -7.111  -3.202 128.912  0.00  0.00    +0.120 C 
ATOM      2  C   LIG A   1      -7.518  -2.047 128.006  0.00  0.00    +0.032 C 
ATOM      3  C   LIG A   1      -7.556  -0.688 128.719  0.00  0.00    +0.010 C 
ATOM      4  C   LIG A   1      -6.244  -0.294 129.474  0.00  0.00    -0.023 C 
ATOM      5  C   LIG A   1      -5.189   0.051 128.397  0.00  0.00    +0.012 C 
ATOM      6  C   LIG A   1      -5.855  -1.530 130.384  0.00  0.00    +0.003 C 
ATOM      7  C   LIG A   1      -4.636  -1.218 131.266  0.00  0.00    +0.005 C 
ATOM      8  C   LIG A   1      -4.963  -0.087 132.234  0.00  0.00    +0.008 C 
ATOM      9  C   LIG A   1      -5.383   1.246 131.555  0.00  0.00    -0.021 C 
ATOM     10  C   LIG A   1      -4.091   1.826 130.902  0.00  0.00    +0.012 C 
ATOM     11  C   LIG A   1      -6.514   0.966 130.455  0.00  0.00    +0.033 C 
ATOM     12  C   LIG A   1      -6.966   2.321 129.800  0.00  0.00    +0.151 C 
ATOM     13  C   LIG A   1      -7.442   3.323 130.884  0.00  0.00    +0.147 C 
ATOM     14  C   LIG A   1      -6.425   3.601 131.993  0.00  0.00    +0.031 C 
ATOM     15  C   LIG A   1      -5.943   2.287 132.683  0.00  0.00    -0.021 C 
ATOM     16  C   LIG A   1      -7.091   1.639 133.513  0.00  0.00    +0.012 C 
ATOM     17  C   LIG A   1      -4.822   2.711 133.675  0.00  0.00    +0.008 C 
ATOM     18  C   LIG A   1      -5.338   3.584 134.809  0.00  0.00    +0.007 C 
ATOM     19  C   LIG A   1      -6.071   4.854 134.341  0.00  0.00    -0.028 C 
ATOM     20  C   LIG A   1      -5.056   6.024 134.353  0.00  0.00    +0.011 C 
ATOM     21  C   LIG A   1      -6.772   4.815 132.932  0.00  0.00    +0.008 C 
ATOM     22  C   LIG A   1      -8.270   5.212 133.177  0.00  0.00    +0.018 C 
ATOM     23  C   LIG A   1      -8.227   5.949 134.525  0.00  0.00    +0.009 C 
ATOM     24  C   LIG A   1      -7.210   5.173 135.332  0.00  0.00    +0.007 C 
ATOM     25  C   LIG A   1      -5.791  -2.943 129.692  0.00  0.00    -0.006 C 
ATOM     26  C   LIG A   1      -5.649  -4.056 130.770  0.00  0.00    +0.014 C 
ATOM     27  C   LIG A   1      -4.584  -3.109 128.747  0.00  0.00    +0.014 C 
ENDROOT
BRANCH  22  28
ATOM     28  C   LIG A   1      -9.006   6.093 132.155  0.00  0.00    -0.076 C 
ATOM     29  C   LIG A   1      -8.108   6.843 131.195  0.00  0.00    +0.038 C 
ATOM     30  C   LIG A   1     -10.333   6.230 132.036  0.00  0.00    +0.007 C 
ENDBRANCH  22  28
BRANCH   1  31
ATOM     31  O   LIG A   1      -8.195  -3.486 129.802  0.00  0.00    -0.391 OA
ATOM     32  H   LIG A   1      -8.265  -2.765 130.448  0.00  0.00    +0.210 HD
ENDBRANCH   1  31
BRANCH  13  33
ATOM     33  O   LIG A   1      -8.687   2.857 131.410  0.00  0.00    -0.389 OA
ATOM     34  H   LIG A   1      -8.578   1.895 131.544  0.00  0.00    +0.210 HD
ENDBRANCH  13  33
BRANCH  12  35
ATOM     35  O   LIG A   1      -8.071   2.108 128.899  0.00  0.00    -0.370 OA
BRANCH  35  36
ATOM     36  C   LIG A   1      -8.110   2.998 127.780  0.00  0.00    +0.187 C 
BRANCH  36  37
ATOM     37  C   LIG A   1      -7.389   2.336 126.648  0.00  0.00    -0.001 C 
ATOM     38  C   LIG A   1      -7.895   1.432 125.787  0.00  0.00    -0.077 C 
ATOM     39  C   LIG A   1      -9.299   0.885 125.835  0.00  0.00    +0.038 C 
ATOM     40  C   LIG A   1      -7.043   0.852 124.689  0.00  0.00    +0.038 C 
ENDBRANCH  36  37
ENDBRANCH  35  36
ENDBRANCH  12  35
TORSDOF 6
ENDMDL
MODEL 9
REMARK VINA RESULT:      -8.1      2.491      6.912
REMARK  Name = NuBBE_1028
REMARK  15 active torsions:
REMARK  status: ('A' for Active; 'I' for Inactive)
REMARK    1  A    between atoms: O_1  and  C_2
REMARK    2  A    between atoms: C_6  and  C_7
REMARK    3  A    between atoms: C_11  and  C_12
REMARK    4  A    between atoms: C_15  and  O_16
REMARK    5  A    between atoms: O_16  and  C_17
REMARK    6  A    between atoms: C_17  and  C_18
REMARK    7  A    between atoms: C_19  and  C_20
REMARK    8  A    between atoms: C_19  and  C_21
REMARK    9  A    between atoms: C_22  and  O_23
REMARK   10  A    between atoms: C_26  and  C_27
REMARK   11  A    between atoms: C_30  and  C_31
REMARK   12  A    between atoms: C_34  and  C_36
REMARK   13  A    between atoms: C_36  and  C_37
REMARK   14  A    between atoms: C_42  and  C_43
REMARK   15  A    between atoms: C_42  and  C_44
REMARK                            x       y       z     vdW  Elec       q    Type
REMARK                         _______ _______ _______ _____ _____    ______ ____
ROOT
ATOM      1  C   LIG A   1      -3.181   6.001 128.224  0.00  0.00    +0.120 C 
ATOM      2  C   LIG A   1      -4.439   5.665 127.433  0.00  0.00    +0.032 C 
ATOM      3  C   LIG A   1      -5.016   4.279 127.753  0.00  0.00    +0.010 C 
ATOM      4  C   LIG A   1      -5.288   4.002 129.268  0.00  0.00    -0.023 C 
ATOM      5  C   LIG A   1      -6.516   4.851 129.669  0.00  0.00    +0.012 C 
ATOM      6  C   LIG A   1      -3.961   4.383 130.044  0.00  0.00    +0.003 C 
ATOM      7  C   LIG A   1      -4.066   4.045 131.538  0.00  0.00    +0.005 C 
ATOM      8  C   LIG A   1      -4.232   2.541 131.728  0.00  0.00    +0.008 C 
ATOM      9  C   LIG A   1      -5.485   1.935 131.037  0.00  0.00    -0.021 C 
ATOM     10  C   LIG A   1      -6.715   2.438 131.853  0.00  0.00    +0.012 C 
ATOM     11  C   LIG A   1      -5.558   2.425 129.513  0.00  0.00    +0.033 C 
ATOM     12  C   LIG A   1      -6.803   1.777 128.806  0.00  0.00    +0.151 C 
ATOM     13  C   LIG A   1      -6.757   0.231 128.920  0.00  0.00    +0.147 C 
ATOM     14  C   LIG A   1      -6.638  -0.305 130.349  0.00  0.00    +0.031 C 
ATOM     15  C   LIG A   1      -5.414   0.303 131.100  0.00  0.00    -0.021 C 
ATOM     16  C   LIG A   1      -4.075  -0.216 130.495  0.00  0.00    +0.012 C 
ATOM     17  C   LIG A   1      -5.507  -0.216 132.563  0.00  0.00    +0.008 C 
ATOM     18  C   LIG A   1      -5.321  -1.723 132.666  0.00  0.00    +0.007 C 
ATOM     19  C   LIG A   1      -6.303  -2.537 131.803  0.00  0.00    -0.028 C 
ATOM     20  C   LIG A   1      -7.491  -2.960 132.702  0.00  0.00    +0.011 C 
ATOM     21  C   LIG A   1      -6.876  -1.853 130.507  0.00  0.00    +0.008 C 
ATOM     22  C   LIG A   1      -6.544  -2.821 129.318  0.00  0.00    +0.018 C 
ATOM     23  C   LIG A   1      -6.312  -4.172 130.013  0.00  0.00    +0.009 C 
ATOM     24  C   LIG A   1      -5.590  -3.805 131.290  0.00  0.00    +0.007 C 
ATOM     25  C   LIG A   1      -3.339   5.800 129.757  0.00  0.00    -0.006 C 
ATOM     26  C   LIG A   1      -1.925   5.901 130.399  0.00  0.00    +0.014 C 
ATOM     27  C   LIG A   1      -4.160   6.962 130.354  0.00  0.00    +0.014 C 
ENDROOT
BRANCH  22  28
ATOM     28  C   LIG A   1      -7.561  -3.016 128.182  0.00  0.00    -0.076 C 
ATOM     29  C   LIG A   1      -8.849  -3.698 128.590  0.00  0.00    +0.038 C 
ATOM     30  C   LIG A   1      -7.413  -2.628 126.908  0.00  0.00    +0.007 C 
ENDBRANCH  22  28
BRANCH   1  31
ATOM     31  O   LIG A   1      -2.097   5.222 127.706  0.00  0.00    -0.391 OA
ATOM     32  H   LIG A   1      -1.503   4.989 128.438  0.00  0.00    +0.210 HD
ENDBRANCH   1  31
BRANCH  13  33
ATOM     33  O   LIG A   1      -5.700  -0.250 128.085  0.00  0.00    -0.389 OA
ATOM     34  H   LIG A   1      -5.318   0.540 127.655  0.00  0.00    +0.210 HD
ENDBRANCH  13  33
BRANCH  12  35
ATOM     35  O   LIG A   1      -6.819   2.102 127.403  0.00  0.00    -0.370 OA
BRANCH  35  36
ATOM     36  C   LIG A   1      -8.108   2.439 126.881  0.00  0.00    +0.187 C 
BRANCH  36  37
ATOM     37  C   LIG A   1      -7.930   2.827 125.447  0.00  0.00    -0.001 C 
ATOM     38  C   LIG A   1      -8.700   2.454 124.407  0.00  0.00    -0.077 C 
ATOM     39  C   LIG A   1      -9.885   1.526 124.499  0.00  0.00    +0.038 C 
ATOM     40  C   LIG A   1      -8.396   2.931 123.012  0.00  0.00    +0.038 C 
ENDBRANCH  36  37
ENDBRANCH  35  36
ENDBRANCH  12  35
TORSDOF 6
ENDMDL
