MODEL 1
REMARK VINA RESULT:      -5.9      0.000      0.000
REMARK  Name = NuBBE_1920
REMARK  3 active torsions:
REMARK  status: ('A' for Active; 'I' for Inactive)
REMARK    1  A    between atoms: C_1  and  C_2
REMARK    2  A    between atoms: C_2  and  C_3
REMARK    3  A    between atoms: C_9  and  C_10
REMARK                            x       y       z     vdW  Elec       q    Type
REMARK                         _______ _______ _______ _____ _____    ______ ____
ROOT
ATOM      1  C   LIG A   1     -10.266   6.941 130.521  0.00  0.00    +0.012 C 
ATOM      2  C   LIG A   1     -11.202   7.658 129.526  0.00  0.00    -0.025 C 
ATOM      3  C   LIG A   1     -10.306   8.370 128.505  0.00  0.00    +0.012 C 
ATOM      4  C   LIG A   1     -12.424   6.752 129.024  0.00  0.00    +0.002 C 
ATOM      5  C   LIG A   1     -13.123   7.168 130.371  0.00  0.00    +0.012 C 
ATOM      6  C   LIG A   1     -12.372   8.529 130.168  0.00  0.00    +0.018 C 
ATOM      7  C   LIG A   1     -13.112   9.379 129.169  0.00  0.00    -0.027 C 
ATOM      8  C   LIG A   1     -13.542   8.757 128.057  0.00  0.00    -0.027 C 
ATOM      9  C   LIG A   1     -13.284   7.275 127.844  0.00  0.00    +0.012 C 
ATOM     10  C   LIG A   1     -12.625   6.968 126.503  0.00  0.00    +0.012 C 
ENDROOT
TORSDOF 0
ENDMDL
MODEL 2
REMARK VINA RESULT:      -5.8      1.074      2.604
REMARK  Name = NuBBE_1920
REMARK  3 active torsions:
REMARK  status: ('A' for Active; 'I' for Inactive)
REMARK    1  A    between atoms: C_1  and  C_2
REMARK    2  A    between atoms: C_2  and  C_3
REMARK    3  A    between atoms: C_9  and  C_10
REMARK                            x       y       z     vdW  Elec       q    Type
REMARK                         _______ _______ _______ _____ _____    ______ ____
ROOT
ATOM      1  C   LIG A   1     -10.563   6.723 131.055  0.00  0.00    +0.012 C 
ATOM      2  C   LIG A   1     -11.796   7.217 130.268  0.00  0.00    -0.025 C 
ATOM      3  C   LIG A   1     -12.933   7.389 131.282  0.00  0.00    +0.012 C 
ATOM      4  C   LIG A   1     -11.467   8.388 129.226  0.00  0.00    +0.002 C 
ATOM      5  C   LIG A   1     -11.001   7.233 128.265  0.00  0.00    +0.012 C 
ATOM      6  C   LIG A   1     -12.150   6.407 128.941  0.00  0.00    +0.018 C 
ATOM      7  C   LIG A   1     -13.476   6.785 128.338  0.00  0.00    -0.027 C 
ATOM      8  C   LIG A   1     -13.702   8.099 128.163  0.00  0.00    -0.027 C 
ATOM      9  C   LIG A   1     -12.656   9.128 128.561  0.00  0.00    +0.012 C 
ATOM     10  C   LIG A   1     -13.208  10.219 129.475  0.00  0.00    +0.012 C 
ENDROOT
TORSDOF 0
ENDMDL
MODEL 3
REMARK VINA RESULT:      -5.6      1.026      2.837
REMARK  Name = NuBBE_1920
REMARK  3 active torsions:
REMARK  status: ('A' for Active; 'I' for Inactive)
REMARK    1  A    between atoms: C_1  and  C_2
REMARK    2  A    between atoms: C_2  and  C_3
REMARK    3  A    between atoms: C_9  and  C_10
REMARK                            x       y       z     vdW  Elec       q    Type
REMARK                         _______ _______ _______ _____ _____    ______ ____
ROOT
ATOM      1  C   LIG A   1     -11.365   7.564 126.432  0.00  0.00    +0.012 C 
ATOM      2  C   LIG A   1     -11.619   7.846 127.928  0.00  0.00    -0.025 C 
ATOM      3  C   LIG A   1     -10.414   8.643 128.443  0.00  0.00    +0.012 C 
ATOM      4  C   LIG A   1     -13.107   8.350 128.244  0.00  0.00    +0.002 C 
ATOM      5  C   LIG A   1     -13.497   6.827 128.205  0.00  0.00    +0.012 C 
ATOM      6  C   LIG A   1     -12.069   6.597 128.810  0.00  0.00    +0.018 C 
ATOM      7  C   LIG A   1     -12.088   6.876 130.289  0.00  0.00    -0.027 C 
ATOM      8  C   LIG A   1     -12.735   7.987 130.681  0.00  0.00    -0.027 C 
ATOM      9  C   LIG A   1     -13.406   8.896 129.664  0.00  0.00    +0.012 C 
ATOM     10  C   LIG A   1     -12.981  10.356 129.795  0.00  0.00    +0.012 C 
ENDROOT
TORSDOF 0
ENDMDL
MODEL 4
REMARK VINA RESULT:      -5.5      1.037      3.140
REMARK  Name = NuBBE_1920
REMARK  3 active torsions:
REMARK  status: ('A' for Active; 'I' for Inactive)
REMARK    1  A    between atoms: C_1  and  C_2
REMARK    2  A    between atoms: C_2  and  C_3
REMARK    3  A    between atoms: C_9  and  C_10
REMARK                            x       y       z     vdW  Elec       q    Type
REMARK                         _______ _______ _______ _____ _____    ______ ____
ROOT
ATOM      1  C   LIG A   1     -12.268   7.201 126.192  0.00  0.00    +0.012 C 
ATOM      2  C   LIG A   1     -12.458   7.339 127.717  0.00  0.00    -0.025 C 
ATOM      3  C   LIG A   1     -13.757   6.606 128.073  0.00  0.00    +0.012 C 
ATOM      4  C   LIG A   1     -11.124   7.062 128.559  0.00  0.00    +0.002 C 
ATOM      5  C   LIG A   1     -10.746   8.550 128.216  0.00  0.00    +0.012 C 
ATOM      6  C   LIG A   1     -12.290   8.808 128.313  0.00  0.00    +0.018 C 
ATOM      7  C   LIG A   1     -12.700   8.926 129.756  0.00  0.00    -0.027 C 
ATOM      8  C   LIG A   1     -12.189   8.014 130.601  0.00  0.00    -0.027 C 
ATOM      9  C   LIG A   1     -11.248   6.930 130.099  0.00  0.00    +0.012 C 
ATOM     10  C   LIG A   1     -11.685   5.525 130.500  0.00  0.00    +0.012 C 
ENDROOT
TORSDOF 0
ENDMDL
MODEL 5
REMARK VINA RESULT:      -5.4     11.373     12.827
REMARK  Name = NuBBE_1920
REMARK  3 active torsions:
REMARK  status: ('A' for Active; 'I' for Inactive)
REMARK    1  A    between atoms: C_1  and  C_2
REMARK    2  A    between atoms: C_2  and  C_3
REMARK    3  A    between atoms: C_9  and  C_10
REMARK                            x       y       z     vdW  Elec       q    Type
REMARK                         _______ _______ _______ _____ _____    ______ ____
ROOT
ATOM      1  C   LIG A   1      -9.352  -2.944 123.183  0.00  0.00    +0.012 C 
ATOM      2  C   LIG A   1      -8.055  -2.824 124.011  0.00  0.00    -0.025 C 
ATOM      3  C   LIG A   1      -8.007  -4.041 124.943  0.00  0.00    +0.012 C 
ATOM      4  C   LIG A   1      -6.770  -2.428 123.142  0.00  0.00    +0.002 C 
ATOM      5  C   LIG A   1      -7.291  -0.950 123.271  0.00  0.00    +0.012 C 
ATOM      6  C   LIG A   1      -7.786  -1.405 124.688  0.00  0.00    +0.018 C 
ATOM      7  C   LIG A   1      -6.635  -1.406 125.657  0.00  0.00    -0.027 C 
ATOM      8  C   LIG A   1      -5.484  -1.946 125.220  0.00  0.00    -0.027 C 
ATOM      9  C   LIG A   1      -5.377  -2.518 123.816  0.00  0.00    +0.012 C 
ATOM     10  C   LIG A   1      -4.842  -3.947 123.791  0.00  0.00    +0.012 C 
ENDROOT
TORSDOF 0
ENDMDL
MODEL 6
REMARK VINA RESULT:      -5.2     10.692     12.060
REMARK  Name = NuBBE_1920
REMARK  3 active torsions:
REMARK  status: ('A' for Active; 'I' for Inactive)
REMARK    1  A    between atoms: C_1  and  C_2
REMARK    2  A    between atoms: C_2  and  C_3
REMARK    3  A    between atoms: C_9  and  C_10
REMARK                            x       y       z     vdW  Elec       q    Type
REMARK                         _______ _______ _______ _____ _____    ______ ____
ROOT
ATOM      1  C   LIG A   1      -8.134  -2.775 127.078  0.00  0.00    +0.012 C 
ATOM      2  C   LIG A   1      -8.383  -2.346 125.616  0.00  0.00    -0.025 C 
ATOM      3  C   LIG A   1      -9.138  -1.011 125.666  0.00  0.00    +0.012 C 
ATOM      4  C   LIG A   1      -7.101  -2.506 124.670  0.00  0.00    +0.002 C 
ATOM      5  C   LIG A   1      -7.523  -4.018 124.565  0.00  0.00    +0.012 C 
ATOM      6  C   LIG A   1      -8.987  -3.462 124.652  0.00  0.00    +0.018 C 
ATOM      7  C   LIG A   1      -9.415  -2.934 123.309  0.00  0.00    -0.027 C 
ATOM      8  C   LIG A   1      -8.522  -2.175 122.651  0.00  0.00    -0.027 C 
ATOM      9  C   LIG A   1      -7.157  -1.881 123.253  0.00  0.00    +0.012 C 
ATOM     10  C   LIG A   1      -6.829  -0.392 123.292  0.00  0.00    +0.012 C 
ENDROOT
TORSDOF 0
ENDMDL
MODEL 7
REMARK VINA RESULT:      -5.2     11.078     12.309
REMARK  Name = NuBBE_1920
REMARK  3 active torsions:
REMARK  status: ('A' for Active; 'I' for Inactive)
REMARK    1  A    between atoms: C_1  and  C_2
REMARK    2  A    between atoms: C_2  and  C_3
REMARK    3  A    between atoms: C_9  and  C_10
REMARK                            x       y       z     vdW  Elec       q    Type
REMARK                         _______ _______ _______ _____ _____    ______ ____
ROOT
ATOM      1  C   LIG A   1      -8.968  -3.646 126.982  0.00  0.00    +0.012 C 
ATOM      2  C   LIG A   1      -8.097  -2.856 125.982  0.00  0.00    -0.025 C 
ATOM      3  C   LIG A   1      -7.009  -2.150 126.800  0.00  0.00    +0.012 C 
ATOM      4  C   LIG A   1      -7.701  -3.691 124.674  0.00  0.00    +0.002 C 
ATOM      5  C   LIG A   1      -9.124  -3.290 124.138  0.00  0.00    +0.012 C 
ATOM      6  C   LIG A   1      -8.883  -1.956 124.927  0.00  0.00    +0.018 C 
ATOM      7  C   LIG A   1      -7.992  -1.043 124.128  0.00  0.00    -0.027 C 
ATOM      8  C   LIG A   1      -6.913  -1.608 123.556  0.00  0.00    -0.027 C 
ATOM      9  C   LIG A   1      -6.633  -3.092 123.722  0.00  0.00    +0.012 C 
ATOM     10  C   LIG A   1      -5.222  -3.382 124.224  0.00  0.00    +0.012 C 
ENDROOT
TORSDOF 0
ENDMDL
MODEL 8
REMARK VINA RESULT:      -5.0     10.761     12.127
REMARK  Name = NuBBE_1920
REMARK  3 active torsions:
REMARK  status: ('A' for Active; 'I' for Inactive)
REMARK    1  A    between atoms: C_1  and  C_2
REMARK    2  A    between atoms: C_2  and  C_3
REMARK    3  A    between atoms: C_9  and  C_10
REMARK                            x       y       z     vdW  Elec       q    Type
REMARK                         _______ _______ _______ _____ _____    ______ ____
ROOT
ATOM      1  C   LIG A   1      -5.632  -0.826 125.497  0.00  0.00    +0.012 C 
ATOM      2  C   LIG A   1      -6.926  -1.514 125.014  0.00  0.00    -0.025 C 
ATOM      3  C   LIG A   1      -8.077  -0.930 125.842  0.00  0.00    +0.012 C 
ATOM      4  C   LIG A   1      -7.051  -1.604 123.420  0.00  0.00    +0.002 C 
ATOM      5  C   LIG A   1      -6.124  -2.869 123.543  0.00  0.00    +0.012 C 
ATOM      6  C   LIG A   1      -6.873  -3.103 124.900  0.00  0.00    +0.018 C 
ATOM      7  C   LIG A   1      -8.215  -3.735 124.642  0.00  0.00    -0.027 C 
ATOM      8  C   LIG A   1      -8.940  -3.214 123.637  0.00  0.00    -0.027 C 
ATOM      9  C   LIG A   1      -8.409  -2.048 122.818  0.00  0.00    +0.012 C 
ATOM     10  C   LIG A   1      -9.386  -0.879 122.738  0.00  0.00    +0.012 C 
ENDROOT
TORSDOF 0
ENDMDL
MODEL 9
REMARK VINA RESULT:      -4.8     10.333     11.650
REMARK  Name = NuBBE_1920
REMARK  3 active torsions:
REMARK  status: ('A' for Active; 'I' for Inactive)
REMARK    1  A    between atoms: C_1  and  C_2
REMARK    2  A    between atoms: C_2  and  C_3
REMARK    3  A    between atoms: C_9  and  C_10
REMARK                            x       y       z     vdW  Elec       q    Type
REMARK                         _______ _______ _______ _____ _____    ______ ____
ROOT
ATOM      1  C   LIG A   1      -6.156  -0.187 125.143  0.00  0.00    +0.012 C 
ATOM      2  C   LIG A   1      -7.041  -1.428 124.896  0.00  0.00    -0.025 C 
ATOM      3  C   LIG A   1      -6.133  -2.656 125.027  0.00  0.00    +0.012 C 
ATOM      4  C   LIG A   1      -8.444  -1.382 125.668  0.00  0.00    +0.002 C 
ATOM      5  C   LIG A   1      -8.931  -0.483 124.473  0.00  0.00    +0.012 C 
ATOM      6  C   LIG A   1      -7.976  -1.375 123.606  0.00  0.00    +0.018 C 
ATOM      7  C   LIG A   1      -8.646  -2.686 123.291  0.00  0.00    -0.027 C 
ATOM      8  C   LIG A   1      -9.279  -3.295 124.308  0.00  0.00    -0.027 C 
ATOM      9  C   LIG A   1      -9.304  -2.671 125.694  0.00  0.00    +0.012 C 
ATOM     10  C   LIG A   1      -8.836  -3.626 126.789  0.00  0.00    +0.012 C 
ENDROOT
TORSDOF 0
ENDMDL
