MODEL 1
REMARK VINA RESULT:      -7.0      0.000      0.000
REMARK  Name = NuBBE_667
REMARK  9 active torsions:
REMARK  status: ('A' for Active; 'I' for Inactive)
REMARK    1  A    between atoms: C_5  and  C_6
REMARK    2  A    between atoms: C_6  and  O_7
REMARK    3  A    between atoms: C_9  and  O_11
REMARK    4  A    between atoms: C_14  and  O_16
REMARK    5  A    between atoms: O_16  and  C_17
REMARK    6  A    between atoms: C_17  and  C_18
REMARK    7  A    between atoms: C_18  and  C_19
REMARK    8  A    between atoms: C_20  and  C_21
REMARK    9  A    between atoms: C_24  and  C_25
REMARK                            x       y       z     vdW  Elec       q    Type
REMARK                         _______ _______ _______ _____ _____    ______ ____
ROOT
ATOM      1  O   LIG A   1      -5.357   0.688 126.175  0.00  0.00    -0.294 OA
ATOM      2  C   LIG A   1      -6.413   0.128 125.914  0.00  0.00    +0.168 C 
ATOM      3  C   LIG A   1      -6.612  -0.783 124.742  0.00  0.00    +0.117 C 
ATOM      4  C   LIG A   1      -8.110  -1.056 124.897  0.00  0.00    +0.109 C 
ATOM      5  C   LIG A   1      -8.548  -2.320 124.218  0.00  0.00    -0.014 C 
ATOM      6  C   LIG A   1      -9.161  -2.022 123.056  0.00  0.00    +0.009 C 
ATOM      7  C   LIG A   1      -9.265  -0.535 122.848  0.00  0.00    +0.147 C 
ATOM      8  C   LIG A   1      -9.111  -0.066 124.286  0.00  0.00    +0.099 C 
ATOM      9  C   LIG A   1      -8.795   1.384 124.628  0.00  0.00    +0.189 C 
ATOM     10  C   LIG A   1      -8.503   1.475 126.152  0.00  0.00    +0.087 C 
ATOM     11  C   LIG A   1      -7.705   0.267 126.693  0.00  0.00    +0.129 C 
ATOM     12  C   LIG A   1      -7.520   0.277 128.196  0.00  0.00    +0.050 C 
ATOM     13  O   LIG A   1      -8.343  -0.992 126.305  0.00  0.00    -0.354 OA
ENDROOT
BRANCH   7  14
ATOM     14  O   LIG A   1     -10.535  -0.195 122.331  0.00  0.00    -0.387 OA
ATOM     15  H   LIG A   1     -11.140  -0.942 122.484  0.00  0.00    +0.210 HD
ENDBRANCH   7  14
BRANCH   5  16
ATOM     16  C   LIG A   1      -8.225  -3.670 124.747  0.00  0.00    +0.189 C 
BRANCH  16  17
ATOM     17  O   LIG A   1      -8.542  -3.722 126.127  0.00  0.00    -0.391 OA
ATOM     18  H   LIG A   1      -7.698  -3.726 126.613  0.00  0.00    +0.210 HD
ENDBRANCH  16  17
ENDBRANCH   5  16
BRANCH   9  19
ATOM     19  O   LIG A   1      -7.646   1.876 123.911  0.00  0.00    -0.458 OA
BRANCH  19  20
ATOM     20  C   LIG A   1      -7.897   2.802 122.942  0.00  0.00    +0.335 C 
ATOM     21  O   LIG A   1      -9.012   3.086 122.525  0.00  0.00    -0.245 OA
BRANCH  20  22
ATOM     22  C   LIG A   1      -6.665   3.509 122.478  0.00  0.00    +0.029 C 
ATOM     23  C   LIG A   1      -5.716   3.915 123.574  0.00  0.00    +0.051 C 
ATOM     24  C   LIG A   1      -6.412   3.725 121.171  0.00  0.00    -0.020 C 
ATOM     25  C   LIG A   1      -5.169   4.333 120.598  0.00  0.00    +0.035 C 
ENDBRANCH  20  22
ENDBRANCH  19  20
ENDBRANCH   9  19
TORSDOF 6
ENDMDL
MODEL 2
REMARK VINA RESULT:      -7.0      1.979      5.777
REMARK  Name = NuBBE_667
REMARK  9 active torsions:
REMARK  status: ('A' for Active; 'I' for Inactive)
REMARK    1  A    between atoms: C_5  and  C_6
REMARK    2  A    between atoms: C_6  and  O_7
REMARK    3  A    between atoms: C_9  and  O_11
REMARK    4  A    between atoms: C_14  and  O_16
REMARK    5  A    between atoms: O_16  and  C_17
REMARK    6  A    between atoms: C_17  and  C_18
REMARK    7  A    between atoms: C_18  and  C_19
REMARK    8  A    between atoms: C_20  and  C_21
REMARK    9  A    between atoms: C_24  and  C_25
REMARK                            x       y       z     vdW  Elec       q    Type
REMARK                         _______ _______ _______ _____ _____    ______ ____
ROOT
ATOM      1  O   LIG A   1      -5.398  -1.655 125.388  0.00  0.00    -0.294 OA
ATOM      2  C   LIG A   1      -6.079  -0.938 124.667  0.00  0.00    +0.168 C 
ATOM      3  C   LIG A   1      -6.513   0.449 125.031  0.00  0.00    +0.117 C 
ATOM      4  C   LIG A   1      -7.393   0.754 123.817  0.00  0.00    +0.109 C 
ATOM      5  C   LIG A   1      -7.579   2.224 123.584  0.00  0.00    -0.014 C 
ATOM      6  C   LIG A   1      -8.796   2.603 124.021  0.00  0.00    +0.009 C 
ATOM      7  C   LIG A   1      -9.590   1.433 124.536  0.00  0.00    +0.147 C 
ATOM      8  C   LIG A   1      -8.859   0.301 123.831  0.00  0.00    +0.099 C 
ATOM      9  C   LIG A   1      -9.026  -1.151 124.259  0.00  0.00    +0.189 C 
ATOM     10  C   LIG A   1      -7.995  -2.014 123.479  0.00  0.00    +0.087 C 
ATOM     11  C   LIG A   1      -6.627  -1.317 123.306  0.00  0.00    +0.129 C 
ATOM     12  C   LIG A   1      -5.651  -2.089 122.442  0.00  0.00    +0.050 C 
ATOM     13  O   LIG A   1      -6.794   0.024 122.745  0.00  0.00    -0.354 OA
ENDROOT
BRANCH   7  14
ATOM     14  O   LIG A   1     -10.933   1.521 124.107  0.00  0.00    -0.387 OA
ATOM     15  H   LIG A   1     -10.966   1.334 123.153  0.00  0.00    +0.210 HD
ENDBRANCH   7  14
BRANCH   5  16
ATOM     16  C   LIG A   1      -6.501   3.096 123.049  0.00  0.00    +0.189 C 
BRANCH  16  17
ATOM     17  O   LIG A   1      -6.258   2.764 121.693  0.00  0.00    -0.391 OA
ATOM     18  H   LIG A   1      -7.118   2.541 121.296  0.00  0.00    +0.210 HD
ENDBRANCH  16  17
ENDBRANCH   5  16
BRANCH   9  19
ATOM     19  O   LIG A   1      -8.803  -1.333 125.671  0.00  0.00    -0.458 OA
BRANCH  19  20
ATOM     20  C   LIG A   1      -9.261  -2.502 126.204  0.00  0.00    +0.335 C 
ATOM     21  O   LIG A   1     -10.135  -3.198 125.704  0.00  0.00    -0.245 OA
BRANCH  20  22
ATOM     22  C   LIG A   1      -8.530  -2.904 127.443  0.00  0.00    +0.029 C 
ATOM     23  C   LIG A   1      -8.993  -4.196 128.062  0.00  0.00    +0.051 C 
ATOM     24  C   LIG A   1      -7.506  -2.179 127.940  0.00  0.00    -0.020 C 
ATOM     25  C   LIG A   1      -6.649  -2.542 129.113  0.00  0.00    +0.035 C 
ENDBRANCH  20  22
ENDBRANCH  19  20
ENDBRANCH   9  19
TORSDOF 6
ENDMDL
MODEL 3
REMARK VINA RESULT:      -6.7      2.182      6.028
REMARK  Name = NuBBE_667
REMARK  9 active torsions:
REMARK  status: ('A' for Active; 'I' for Inactive)
REMARK    1  A    between atoms: C_5  and  C_6
REMARK    2  A    between atoms: C_6  and  O_7
REMARK    3  A    between atoms: C_9  and  O_11
REMARK    4  A    between atoms: C_14  and  O_16
REMARK    5  A    between atoms: O_16  and  C_17
REMARK    6  A    between atoms: C_17  and  C_18
REMARK    7  A    between atoms: C_18  and  C_19
REMARK    8  A    between atoms: C_20  and  C_21
REMARK    9  A    between atoms: C_24  and  C_25
REMARK                            x       y       z     vdW  Elec       q    Type
REMARK                         _______ _______ _______ _____ _____    ______ ____
ROOT
ATOM      1  O   LIG A   1      -6.516  -2.496 123.499  0.00  0.00    -0.294 OA
ATOM      2  C   LIG A   1      -7.384  -1.684 123.791  0.00  0.00    +0.168 C 
ATOM      3  C   LIG A   1      -7.154  -0.208 123.888  0.00  0.00    +0.117 C 
ATOM      4  C   LIG A   1      -8.538   0.222 124.379  0.00  0.00    +0.109 C 
ATOM      5  C   LIG A   1      -8.837   1.664 124.097  0.00  0.00    -0.014 C 
ATOM      6  C   LIG A   1      -8.687   2.388 125.223  0.00  0.00    +0.009 C 
ATOM      7  C   LIG A   1      -8.334   1.518 126.400  0.00  0.00    +0.147 C 
ATOM      8  C   LIG A   1      -8.836   0.179 125.884  0.00  0.00    +0.099 C 
ATOM      9  C   LIG A   1      -8.424  -1.136 126.532  0.00  0.00    +0.189 C 
ATOM     10  C   LIG A   1      -8.940  -2.303 125.645  0.00  0.00    +0.087 C 
ATOM     11  C   LIG A   1      -8.823  -2.013 124.131  0.00  0.00    +0.129 C 
ATOM     12  C   LIG A   1      -9.435  -3.085 123.252  0.00  0.00    +0.050 C 
ATOM     13  O   LIG A   1      -9.436  -0.726 123.800  0.00  0.00    -0.354 OA
ENDROOT
BRANCH   7  14
ATOM     14  O   LIG A   1      -9.049   1.926 127.548  0.00  0.00    -0.387 OA
ATOM     15  H   LIG A   1      -9.928   2.237 127.270  0.00  0.00    +0.210 HD
ENDBRANCH   7  14
BRANCH   5  16
ATOM     16  C   LIG A   1      -9.141   2.171 122.734  0.00  0.00    +0.189 C 
BRANCH  16  17
ATOM     17  O   LIG A   1      -8.615   3.478 122.590  0.00  0.00    -0.391 OA
ATOM     18  H   LIG A   1      -9.134   4.059 123.173  0.00  0.00    +0.210 HD
ENDBRANCH  16  17
ENDBRANCH   5  16
BRANCH   9  19
ATOM     19  O   LIG A   1      -6.994  -1.256 126.663  0.00  0.00    -0.458 OA
BRANCH  19  20
ATOM     20  C   LIG A   1      -6.548  -1.929 127.762  0.00  0.00    +0.335 C 
ATOM     21  O   LIG A   1      -5.509  -2.574 127.807  0.00  0.00    -0.245 OA
BRANCH  20  22
ATOM     22  C   LIG A   1      -7.426  -1.743 128.956  0.00  0.00    +0.029 C 
ATOM     23  C   LIG A   1      -8.153  -2.982 129.408  0.00  0.00    +0.051 C 
ATOM     24  C   LIG A   1      -7.522  -0.561 129.599  0.00  0.00    -0.020 C 
ATOM     25  C   LIG A   1      -8.294  -0.294 130.855  0.00  0.00    +0.035 C 
ENDBRANCH  20  22
ENDBRANCH  19  20
ENDBRANCH   9  19
TORSDOF 6
ENDMDL
MODEL 4
REMARK VINA RESULT:      -6.7      2.211      4.060
REMARK  Name = NuBBE_667
REMARK  9 active torsions:
REMARK  status: ('A' for Active; 'I' for Inactive)
REMARK    1  A    between atoms: C_5  and  C_6
REMARK    2  A    between atoms: C_6  and  O_7
REMARK    3  A    between atoms: C_9  and  O_11
REMARK    4  A    between atoms: C_14  and  O_16
REMARK    5  A    between atoms: O_16  and  C_17
REMARK    6  A    between atoms: C_17  and  C_18
REMARK    7  A    between atoms: C_18  and  C_19
REMARK    8  A    between atoms: C_20  and  C_21
REMARK    9  A    between atoms: C_24  and  C_25
REMARK                            x       y       z     vdW  Elec       q    Type
REMARK                         _______ _______ _______ _____ _____    ______ ____
ROOT
ATOM      1  O   LIG A   1      -6.055  -1.831 125.477  0.00  0.00    -0.294 OA
ATOM      2  C   LIG A   1      -7.058  -1.145 125.333  0.00  0.00    +0.168 C 
ATOM      3  C   LIG A   1      -7.265  -0.188 124.201  0.00  0.00    +0.117 C 
ATOM      4  C   LIG A   1      -8.602   0.417 124.635  0.00  0.00    +0.109 C 
ATOM      5  C   LIG A   1      -9.362   1.032 123.497  0.00  0.00    -0.014 C 
ATOM      6  C   LIG A   1      -9.234   2.372 123.537  0.00  0.00    +0.009 C 
ATOM      7  C   LIG A   1      -8.433   2.819 124.730  0.00  0.00    +0.147 C 
ATOM      8  C   LIG A   1      -8.597   1.596 125.618  0.00  0.00    +0.099 C 
ATOM      9  C   LIG A   1      -7.703   1.355 126.827  0.00  0.00    +0.189 C 
ATOM     10  C   LIG A   1      -7.999  -0.066 127.381  0.00  0.00    +0.087 C 
ATOM     11  C   LIG A   1      -8.248  -1.112 126.270  0.00  0.00    +0.129 C 
ATOM     12  C   LIG A   1      -8.661  -2.473 126.791  0.00  0.00    +0.050 C 
ATOM     13  O   LIG A   1      -9.266  -0.639 125.330  0.00  0.00    -0.354 OA
ENDROOT
BRANCH   7  14
ATOM     14  O   LIG A   1      -9.018   3.962 125.319  0.00  0.00    -0.387 OA
ATOM     15  H   LIG A   1      -8.472   4.737 125.099  0.00  0.00    +0.210 HD
ENDBRANCH   7  14
BRANCH   5  16
ATOM     16  C   LIG A   1     -10.044   0.221 122.455  0.00  0.00    +0.189 C 
BRANCH  16  17
ATOM     17  O   LIG A   1     -11.444   0.405 122.558  0.00  0.00    -0.391 OA
ATOM     18  H   LIG A   1     -11.631   1.323 122.296  0.00  0.00    +0.210 HD
ENDBRANCH  16  17
ENDBRANCH   5  16
BRANCH   9  19
ATOM     19  O   LIG A   1      -6.303   1.437 126.495  0.00  0.00    -0.458 OA
BRANCH  19  20
ATOM     20  C   LIG A   1      -5.545   2.240 127.294  0.00  0.00    +0.335 C 
ATOM     21  O   LIG A   1      -5.734   2.406 128.492  0.00  0.00    -0.245 OA
BRANCH  20  22
ATOM     22  C   LIG A   1      -4.389   2.856 126.573  0.00  0.00    +0.029 C 
ATOM     23  C   LIG A   1      -4.762   3.703 125.386  0.00  0.00    +0.051 C 
ATOM     24  C   LIG A   1      -3.116   2.692 126.987  0.00  0.00    -0.020 C 
ATOM     25  C   LIG A   1      -1.902   3.341 126.397  0.00  0.00    +0.035 C 
ENDBRANCH  20  22
ENDBRANCH  19  20
ENDBRANCH   9  19
TORSDOF 6
ENDMDL
MODEL 5
REMARK VINA RESULT:      -6.6      1.485      1.949
REMARK  Name = NuBBE_667
REMARK  9 active torsions:
REMARK  status: ('A' for Active; 'I' for Inactive)
REMARK    1  A    between atoms: C_5  and  C_6
REMARK    2  A    between atoms: C_6  and  O_7
REMARK    3  A    between atoms: C_9  and  O_11
REMARK    4  A    between atoms: C_14  and  O_16
REMARK    5  A    between atoms: O_16  and  C_17
REMARK    6  A    between atoms: C_17  and  C_18
REMARK    7  A    between atoms: C_18  and  C_19
REMARK    8  A    between atoms: C_20  and  C_21
REMARK    9  A    between atoms: C_24  and  C_25
REMARK                            x       y       z     vdW  Elec       q    Type
REMARK                         _______ _______ _______ _____ _____    ______ ____
ROOT
ATOM      1  O   LIG A   1      -5.372   2.887 125.338  0.00  0.00    -0.294 OA
ATOM      2  C   LIG A   1      -6.391   2.217 125.430  0.00  0.00    +0.168 C 
ATOM      3  C   LIG A   1      -6.517   0.808 124.938  0.00  0.00    +0.117 C 
ATOM      4  C   LIG A   1      -8.002   0.580 125.229  0.00  0.00    +0.109 C 
ATOM      5  C   LIG A   1      -8.359  -0.872 125.345  0.00  0.00    -0.014 C 
ATOM      6  C   LIG A   1      -8.961  -1.284 124.212  0.00  0.00    +0.009 C 
ATOM      7  C   LIG A   1      -9.135  -0.153 123.233  0.00  0.00    +0.147 C 
ATOM      8  C   LIG A   1      -9.038   1.026 124.189  0.00  0.00    +0.099 C 
ATOM      9  C   LIG A   1      -8.804   2.446 123.690  0.00  0.00    +0.189 C 
ATOM     10  C   LIG A   1      -8.552   3.362 124.920  0.00  0.00    +0.087 C 
ATOM     11  C   LIG A   1      -7.706   2.684 126.021  0.00  0.00    +0.129 C 
ATOM     12  C   LIG A   1      -7.556   3.514 127.279  0.00  0.00    +0.050 C 
ATOM     13  O   LIG A   1      -8.270   1.382 126.381  0.00  0.00    -0.354 OA
ENDROOT
BRANCH   7  14
ATOM     14  O   LIG A   1     -10.409  -0.217 122.627  0.00  0.00    -0.387 OA
ATOM     15  H   LIG A   1     -11.083  -0.264 123.327  0.00  0.00    +0.210 HD
ENDBRANCH   7  14
BRANCH   5  16
ATOM     16  C   LIG A   1      -7.980  -1.702 126.518  0.00  0.00    +0.189 C 
BRANCH  16  17
ATOM     17  O   LIG A   1      -8.567  -2.985 126.394  0.00  0.00    -0.391 OA
ATOM     18  H   LIG A   1      -8.560  -3.389 127.280  0.00  0.00    +0.210 HD
ENDBRANCH  16  17
ENDBRANCH   5  16
BRANCH   9  19
ATOM     19  O   LIG A   1      -7.666   2.534 122.811  0.00  0.00    -0.458 OA
BRANCH  19  20
ATOM     20  C   LIG A   1      -7.847   3.257 121.669  0.00  0.00    +0.335 C 
ATOM     21  O   LIG A   1      -8.926   3.419 121.113  0.00  0.00    -0.245 OA
BRANCH  20  22
ATOM     22  C   LIG A   1      -6.593   3.911 121.187  0.00  0.00    +0.029 C 
ATOM     23  C   LIG A   1      -6.617   4.344 119.745  0.00  0.00    +0.051 C 
ATOM     24  C   LIG A   1      -5.539   4.130 122.001  0.00  0.00    -0.020 C 
ATOM     25  C   LIG A   1      -4.281   4.859 121.645  0.00  0.00    +0.035 C 
ENDBRANCH  20  22
ENDBRANCH  19  20
ENDBRANCH   9  19
TORSDOF 6
ENDMDL
MODEL 6
REMARK VINA RESULT:      -6.5      1.374      2.025
REMARK  Name = NuBBE_667
REMARK  9 active torsions:
REMARK  status: ('A' for Active; 'I' for Inactive)
REMARK    1  A    between atoms: C_5  and  C_6
REMARK    2  A    between atoms: C_6  and  O_7
REMARK    3  A    between atoms: C_9  and  O_11
REMARK    4  A    between atoms: C_14  and  O_16
REMARK    5  A    between atoms: O_16  and  C_17
REMARK    6  A    between atoms: C_17  and  C_18
REMARK    7  A    between atoms: C_18  and  C_19
REMARK    8  A    between atoms: C_20  and  C_21
REMARK    9  A    between atoms: C_24  and  C_25
REMARK                            x       y       z     vdW  Elec       q    Type
REMARK                         _______ _______ _______ _____ _____    ______ ____
ROOT
ATOM      1  O   LIG A   1      -5.452   0.771 126.405  0.00  0.00    -0.294 OA
ATOM      2  C   LIG A   1      -6.466   0.188 126.046  0.00  0.00    +0.168 C 
ATOM      3  C   LIG A   1      -6.651  -0.414 124.687  0.00  0.00    +0.117 C 
ATOM      4  C   LIG A   1      -8.105  -0.872 124.819  0.00  0.00    +0.109 C 
ATOM      5  C   LIG A   1      -8.465  -1.962 123.855  0.00  0.00    -0.014 C 
ATOM      6  C   LIG A   1      -9.173  -1.447 122.831  0.00  0.00    +0.009 C 
ATOM      7  C   LIG A   1      -9.425   0.026 123.014  0.00  0.00    +0.147 C 
ATOM      8  C   LIG A   1      -9.228   0.131 124.519  0.00  0.00    +0.099 C 
ATOM      9  C   LIG A   1      -9.026   1.472 125.210  0.00  0.00    +0.189 C 
ATOM     10  C   LIG A   1      -8.652   1.207 126.695  0.00  0.00    +0.087 C 
ATOM     11  C   LIG A   1      -7.715  -0.009 126.879  0.00  0.00    +0.129 C 
ATOM     12  C   LIG A   1      -7.441  -0.358 128.327  0.00  0.00    +0.050 C 
ATOM     13  O   LIG A   1      -8.257  -1.189 126.204  0.00  0.00    -0.354 OA
ENDROOT
BRANCH   7  14
ATOM     14  O   LIG A   1     -10.750   0.350 122.648  0.00  0.00    -0.387 OA
ATOM     15  H   LIG A   1     -10.751   0.644 121.720  0.00  0.00    +0.210 HD
ENDBRANCH   7  14
BRANCH   5  16
ATOM     16  C   LIG A   1      -7.989  -3.361 124.008  0.00  0.00    +0.189 C 
BRANCH  16  17
ATOM     17  O   LIG A   1      -8.502  -3.903 125.212  0.00  0.00    -0.391 OA
ATOM     18  H   LIG A   1      -9.472  -3.841 125.161  0.00  0.00    +0.210 HD
ENDBRANCH  16  17
ENDBRANCH   5  16
BRANCH   9  19
ATOM     19  O   LIG A   1      -7.973   2.246 124.603  0.00  0.00    -0.458 OA
BRANCH  19  20
ATOM     20  C   LIG A   1      -7.864   3.540 125.020  0.00  0.00    +0.335 C 
ATOM     21  O   LIG A   1      -8.814   4.273 125.261  0.00  0.00    -0.245 OA
BRANCH  20  22
ATOM     22  C   LIG A   1      -6.448   3.968 125.231  0.00  0.00    +0.029 C 
ATOM     23  C   LIG A   1      -5.636   4.115 123.971  0.00  0.00    +0.051 C 
ATOM     24  C   LIG A   1      -5.956   4.239 126.457  0.00  0.00    -0.020 C 
ATOM     25  C   LIG A   1      -4.588   4.765 126.766  0.00  0.00    +0.035 C 
ENDBRANCH  20  22
ENDBRANCH  19  20
ENDBRANCH   9  19
TORSDOF 6
ENDMDL
MODEL 7
REMARK VINA RESULT:      -6.5      1.228      3.488
REMARK  Name = NuBBE_667
REMARK  9 active torsions:
REMARK  status: ('A' for Active; 'I' for Inactive)
REMARK    1  A    between atoms: C_5  and  C_6
REMARK    2  A    between atoms: C_6  and  O_7
REMARK    3  A    between atoms: C_9  and  O_11
REMARK    4  A    between atoms: C_14  and  O_16
REMARK    5  A    between atoms: O_16  and  C_17
REMARK    6  A    between atoms: C_17  and  C_18
REMARK    7  A    between atoms: C_18  and  C_19
REMARK    8  A    between atoms: C_20  and  C_21
REMARK    9  A    between atoms: C_24  and  C_25
REMARK                            x       y       z     vdW  Elec       q    Type
REMARK                         _______ _______ _______ _____ _____    ______ ____
ROOT
ATOM      1  O   LIG A   1     -10.410   0.613 124.395  0.00  0.00    -0.294 OA
ATOM      2  C   LIG A   1      -9.386   0.121 124.849  0.00  0.00    +0.168 C 
ATOM      3  C   LIG A   1      -8.899   0.338 126.248  0.00  0.00    +0.117 C 
ATOM      4  C   LIG A   1      -7.570  -0.416 126.163  0.00  0.00    +0.109 C 
ATOM      5  C   LIG A   1      -7.055  -0.847 127.504  0.00  0.00    -0.014 C 
ATOM      6  C   LIG A   1      -6.067  -0.021 127.898  0.00  0.00    +0.009 C 
ATOM      7  C   LIG A   1      -5.759   1.016 126.852  0.00  0.00    +0.147 C 
ATOM      8  C   LIG A   1      -6.333   0.320 125.628  0.00  0.00    +0.099 C 
ATOM      9  C   LIG A   1      -6.605   1.070 124.331  0.00  0.00    +0.189 C 
ATOM     10  C   LIG A   1      -7.373   0.123 123.368  0.00  0.00    +0.087 C 
ATOM     11  C   LIG A   1      -8.416  -0.761 124.088  0.00  0.00    +0.129 C 
ATOM     12  C   LIG A   1      -9.085  -1.778 123.187  0.00  0.00    +0.050 C 
ATOM     13  O   LIG A   1      -7.809  -1.463 125.221  0.00  0.00    -0.354 OA
ENDROOT
BRANCH   7  14
ATOM     14  O   LIG A   1      -4.363   1.196 126.730  0.00  0.00    -0.387 OA
ATOM     15  H   LIG A   1      -3.925   0.719 127.457  0.00  0.00    +0.210 HD
ENDBRANCH   7  14
BRANCH   5  16
ATOM     16  C   LIG A   1      -7.662  -1.962 128.277  0.00  0.00    +0.189 C 
BRANCH  16  17
ATOM     17  O   LIG A   1      -7.916  -3.052 127.410  0.00  0.00    -0.391 OA
ATOM     18  H   LIG A   1      -8.044  -2.683 126.518  0.00  0.00    +0.210 HD
ENDBRANCH  16  17
ENDBRANCH   5  16
BRANCH   9  19
ATOM     19  O   LIG A   1      -7.400   2.254 124.542  0.00  0.00    -0.458 OA
BRANCH  19  20
ATOM     20  C   LIG A   1      -7.690   2.986 123.429  0.00  0.00    +0.335 C 
ATOM     21  O   LIG A   1      -8.821   3.189 123.006  0.00  0.00    -0.245 OA
BRANCH  20  22
ATOM     22  C   LIG A   1      -6.479   3.593 122.798  0.00  0.00    +0.029 C 
ATOM     23  C   LIG A   1      -5.621   4.408 123.730  0.00  0.00    +0.051 C 
ATOM     24  C   LIG A   1      -6.164   3.388 121.503  0.00  0.00    -0.020 C 
ATOM     25  C   LIG A   1      -4.931   3.869 120.803  0.00  0.00    +0.035 C 
ENDBRANCH  20  22
ENDBRANCH  19  20
ENDBRANCH   9  19
TORSDOF 6
ENDMDL
MODEL 8
REMARK VINA RESULT:      -6.5      2.085      2.687
REMARK  Name = NuBBE_667
REMARK  9 active torsions:
REMARK  status: ('A' for Active; 'I' for Inactive)
REMARK    1  A    between atoms: C_5  and  C_6
REMARK    2  A    between atoms: C_6  and  O_7
REMARK    3  A    between atoms: C_9  and  O_11
REMARK    4  A    between atoms: C_14  and  O_16
REMARK    5  A    between atoms: O_16  and  C_17
REMARK    6  A    between atoms: C_17  and  C_18
REMARK    7  A    between atoms: C_18  and  C_19
REMARK    8  A    between atoms: C_20  and  C_21
REMARK    9  A    between atoms: C_24  and  C_25
REMARK                            x       y       z     vdW  Elec       q    Type
REMARK                         _______ _______ _______ _____ _____    ______ ____
ROOT
ATOM      1  O   LIG A   1      -5.255   0.164 127.596  0.00  0.00    -0.294 OA
ATOM      2  C   LIG A   1      -5.651  -0.669 126.792  0.00  0.00    +0.168 C 
ATOM      3  C   LIG A   1      -5.278  -0.680 125.342  0.00  0.00    +0.117 C 
ATOM      4  C   LIG A   1      -6.150  -1.848 124.875  0.00  0.00    +0.109 C 
ATOM      5  C   LIG A   1      -5.657  -2.475 123.605  0.00  0.00    -0.014 C 
ATOM      6  C   LIG A   1      -6.414  -2.059 122.571  0.00  0.00    +0.009 C 
ATOM      7  C   LIG A   1      -7.534  -1.163 123.026  0.00  0.00    +0.147 C 
ATOM      8  C   LIG A   1      -7.609  -1.575 124.488  0.00  0.00    +0.099 C 
ATOM      9  C   LIG A   1      -8.350  -0.737 125.521  0.00  0.00    +0.189 C 
ATOM     10  C   LIG A   1      -8.058  -1.325 126.930  0.00  0.00    +0.087 C 
ATOM     11  C   LIG A   1      -6.601  -1.810 127.097  0.00  0.00    +0.129 C 
ATOM     12  C   LIG A   1      -6.331  -2.500 128.418  0.00  0.00    +0.050 C 
ATOM     13  O   LIG A   1      -6.227  -2.715 126.009  0.00  0.00    -0.354 OA
ENDROOT
BRANCH   7  14
ATOM     14  O   LIG A   1      -8.729  -1.479 122.343  0.00  0.00    -0.387 OA
ATOM     15  H   LIG A   1      -8.768  -2.442 122.217  0.00  0.00    +0.210 HD
ENDBRANCH   7  14
BRANCH   5  16
ATOM     16  C   LIG A   1      -4.444  -3.330 123.548  0.00  0.00    +0.189 C 
BRANCH  16  17
ATOM     17  O   LIG A   1      -4.786  -4.655 123.914  0.00  0.00    -0.391 OA
ATOM     18  H   LIG A   1      -5.088  -5.105 123.105  0.00  0.00    +0.210 HD
ENDBRANCH  16  17
ENDBRANCH   5  16
BRANCH   9  19
ATOM     19  O   LIG A   1      -7.933   0.643 125.504  0.00  0.00    -0.458 OA
BRANCH  19  20
ATOM     20  C   LIG A   1      -8.757   1.509 124.848  0.00  0.00    +0.335 C 
ATOM     21  O   LIG A   1      -9.935   1.694 125.127  0.00  0.00    -0.245 OA
BRANCH  20  22
ATOM     22  C   LIG A   1      -8.057   2.284 123.780  0.00  0.00    +0.029 C 
ATOM     23  C   LIG A   1      -8.884   2.563 122.553  0.00  0.00    +0.051 C 
ATOM     24  C   LIG A   1      -6.793   2.732 123.929  0.00  0.00    -0.020 C 
ATOM     25  C   LIG A   1      -6.038   3.594 122.966  0.00  0.00    +0.035 C 
ENDBRANCH  20  22
ENDBRANCH  19  20
ENDBRANCH   9  19
TORSDOF 6
ENDMDL
MODEL 9
REMARK VINA RESULT:      -6.4      7.737      9.403
REMARK  Name = NuBBE_667
REMARK  9 active torsions:
REMARK  status: ('A' for Active; 'I' for Inactive)
REMARK    1  A    between atoms: C_5  and  C_6
REMARK    2  A    between atoms: C_6  and  O_7
REMARK    3  A    between atoms: C_9  and  O_11
REMARK    4  A    between atoms: C_14  and  O_16
REMARK    5  A    between atoms: O_16  and  C_17
REMARK    6  A    between atoms: C_17  and  C_18
REMARK    7  A    between atoms: C_18  and  C_19
REMARK    8  A    between atoms: C_20  and  C_21
REMARK    9  A    between atoms: C_24  and  C_25
REMARK                            x       y       z     vdW  Elec       q    Type
REMARK                         _______ _______ _______ _____ _____    ______ ____
ROOT
ATOM      1  O   LIG A   1      -6.136   5.108 128.860  0.00  0.00    -0.294 OA
ATOM      2  C   LIG A   1      -6.322   5.032 130.067  0.00  0.00    +0.168 C 
ATOM      3  C   LIG A   1      -6.664   3.763 130.785  0.00  0.00    +0.117 C 
ATOM      4  C   LIG A   1      -6.873   4.329 132.191  0.00  0.00    +0.109 C 
ATOM      5  C   LIG A   1      -6.722   3.294 133.267  0.00  0.00    -0.014 C 
ATOM      6  C   LIG A   1      -7.938   2.914 133.705  0.00  0.00    +0.009 C 
ATOM      7  C   LIG A   1      -9.039   3.686 133.029  0.00  0.00    +0.147 C 
ATOM      8  C   LIG A   1      -8.249   4.899 132.564  0.00  0.00    +0.099 C 
ATOM      9  C   LIG A   1      -8.795   5.859 131.516  0.00  0.00    +0.189 C 
ATOM     10  C   LIG A   1      -7.666   6.853 131.125  0.00  0.00    +0.087 C 
ATOM     11  C   LIG A   1      -6.273   6.189 131.044  0.00  0.00    +0.129 C 
ATOM     12  C   LIG A   1      -5.143   7.165 130.787  0.00  0.00    +0.050 C 
ATOM     13  O   LIG A   1      -5.982   5.442 132.268  0.00  0.00    -0.354 OA
ENDROOT
BRANCH   7  14
ATOM     14  O   LIG A   1     -10.033   4.051 133.964  0.00  0.00    -0.387 OA
ATOM     15  H   LIG A   1     -10.214   3.286 134.537  0.00  0.00    +0.210 HD
ENDBRANCH   7  14
BRANCH   5  16
ATOM     16  C   LIG A   1      -5.404   2.735 133.665  0.00  0.00    +0.189 C 
BRANCH  16  17
ATOM     17  O   LIG A   1      -4.543   3.791 134.050  0.00  0.00    -0.391 OA
ATOM     18  H   LIG A   1      -3.920   3.934 133.316  0.00  0.00    +0.210 HD
ENDBRANCH  16  17
ENDBRANCH   5  16
BRANCH   9  19
ATOM     19  O   LIG A   1      -9.237   5.175 130.327  0.00  0.00    -0.458 OA
BRANCH  19  20
ATOM     20  C   LIG A   1     -10.579   5.206 130.083  0.00  0.00    +0.335 C 
ATOM     21  O   LIG A   1     -11.329   4.246 130.206  0.00  0.00    -0.245 OA
BRANCH  20  22
ATOM     22  C   LIG A   1     -11.074   6.567 129.714  0.00  0.00    +0.029 C 
ATOM     23  C   LIG A   1     -10.447   7.156 128.478  0.00  0.00    +0.051 C 
ATOM     24  C   LIG A   1     -12.038   7.194 130.418  0.00  0.00    -0.020 C 
ATOM     25  C   LIG A   1     -12.669   8.509 130.080  0.00  0.00    +0.035 C 
ENDBRANCH  20  22
ENDBRANCH  19  20
ENDBRANCH   9  19
TORSDOF 6
ENDMDL
