MODEL 1
REMARK VINA RESULT:      -7.2      0.000      0.000
REMARK  Name = NuBBE_1784
REMARK  4 active torsions:
REMARK  status: ('A' for Active; 'I' for Inactive)
REMARK    1  A    between atoms: C_3  and  C_11
REMARK    2  A    between atoms: C_7  and  O_9
REMARK    3  A    between atoms: O_9  and  C_10
REMARK    4  A    between atoms: C_19  and  O_22
REMARK                            x       y       z     vdW  Elec       q    Type
REMARK                         _______ _______ _______ _____ _____    ______ ____
ROOT
ATOM      1  C   LIG A   1      -6.400   2.955 123.168  0.00  0.00    +0.065 C 
ATOM      2  C   LIG A   1      -7.497   3.163 122.114  0.00  0.00    +0.050 C 
ATOM      3  C   LIG A   1      -6.972   3.904 120.915  0.00  0.00    -0.005 A 
ATOM      4  C   LIG A   1      -5.720   4.528 120.937  0.00  0.00    +0.127 A 
ATOM      5  O   LIG A   1      -4.877   4.484 122.017  0.00  0.00    -0.491 OA
ATOM      6  C   LIG A   1      -5.548   4.225 123.258  0.00  0.00    +0.237 C 
ATOM      7  C   LIG A   1      -5.253   5.225 119.821  0.00  0.00    +0.091 A 
ATOM      8  C   LIG A   1      -6.064   5.328 118.695  0.00  0.00    +0.120 A 
ATOM      9  C   LIG A   1      -7.317   4.728 118.660  0.00  0.00    +0.046 A 
ATOM     10  C   LIG A   1      -7.771   4.013 119.768  0.00  0.00    +0.011 A 
ENDROOT
BRANCH   1  13
ATOM     11  O   LIG A   1      -6.814   0.180 123.926  0.00  0.00    -0.287 OA
ATOM     12  C   LIG A   1      -7.059   1.026 124.777  0.00  0.00    +0.186 C 
ATOM     13  C   LIG A   1      -6.940   2.481 124.502  0.00  0.00    +0.010 C 
ATOM     14  C   LIG A   1      -7.320   3.350 125.452  0.00  0.00    +0.062 C 
ATOM     15  C   LIG A   1      -7.835   2.933 126.770  0.00  0.00    +0.221 C 
ATOM     16  O   LIG A   1      -8.234   3.801 127.542  0.00  0.00    -0.284 OA
ATOM     17  C   LIG A   1      -7.838   1.473 127.084  0.00  0.00    +0.170 C 
ATOM     18  C   LIG A   1      -7.478   0.610 126.128  0.00  0.00    +0.100 C 
BRANCH  17  19
ATOM     19  O   LIG A   1      -8.256   0.964 128.307  0.00  0.00    -0.491 OA
ATOM     20  C   LIG A   1      -7.465  -0.090 128.851  0.00  0.00    +0.277 C 
ENDBRANCH  17  19
ENDBRANCH   1  13
BRANCH   8  21
ATOM     21  O   LIG A   1      -5.666   6.029 117.595  0.00  0.00    -0.507 OA
ATOM     22  H   LIG A   1      -4.837   5.642 117.267  0.00  0.00    +0.292 HD
ENDBRANCH   8  21
TORSDOF 3
ENDMDL
MODEL 2
REMARK VINA RESULT:      -7.2      8.052     10.558
REMARK  Name = NuBBE_1784
REMARK  4 active torsions:
REMARK  status: ('A' for Active; 'I' for Inactive)
REMARK    1  A    between atoms: C_3  and  C_11
REMARK    2  A    between atoms: C_7  and  O_9
REMARK    3  A    between atoms: O_9  and  C_10
REMARK    4  A    between atoms: C_19  and  O_22
REMARK                            x       y       z     vdW  Elec       q    Type
REMARK                         _______ _______ _______ _____ _____    ______ ____
ROOT
ATOM      1  C   LIG A   1      -9.866   5.532 130.905  0.00  0.00    +0.065 C 
ATOM      2  C   LIG A   1     -10.540   4.153 130.951  0.00  0.00    +0.050 C 
ATOM      3  C   LIG A   1      -9.562   3.077 131.335  0.00  0.00    -0.005 A 
ATOM      4  C   LIG A   1      -8.185   3.324 131.368  0.00  0.00    +0.127 A 
ATOM      5  O   LIG A   1      -7.634   4.550 131.092  0.00  0.00    -0.491 OA
ATOM      6  C   LIG A   1      -8.474   5.387 130.284  0.00  0.00    +0.237 C 
ATOM      7  C   LIG A   1      -7.289   2.311 131.713  0.00  0.00    +0.091 A 
ATOM      8  C   LIG A   1      -7.775   1.037 131.986  0.00  0.00    +0.120 A 
ATOM      9  C   LIG A   1      -9.138   0.768 131.944  0.00  0.00    +0.046 A 
ATOM     10  C   LIG A   1     -10.033   1.788 131.622  0.00  0.00    +0.011 A 
ENDROOT
BRANCH   1  13
ATOM     11  O   LIG A   1     -12.389   6.537 131.940  0.00  0.00    -0.287 OA
ATOM     12  C   LIG A   1     -11.974   7.049 130.907  0.00  0.00    +0.186 C 
ATOM     13  C   LIG A   1     -10.725   6.592 130.245  0.00  0.00    +0.010 C 
ATOM     14  C   LIG A   1     -10.387   7.132 129.065  0.00  0.00    +0.062 C 
ATOM     15  C   LIG A   1     -11.184   8.178 128.395  0.00  0.00    +0.221 C 
ATOM     16  O   LIG A   1     -10.836   8.552 127.279  0.00  0.00    -0.284 OA
ATOM     17  C   LIG A   1     -12.370   8.718 129.122  0.00  0.00    +0.170 C 
ATOM     18  C   LIG A   1     -12.717   8.163 130.289  0.00  0.00    +0.100 C 
BRANCH  17  19
ATOM     19  O   LIG A   1     -13.170   9.734 128.614  0.00  0.00    -0.491 OA
ATOM     20  C   LIG A   1     -13.541  10.760 129.533  0.00  0.00    +0.277 C 
ENDBRANCH  17  19
ENDBRANCH   1  13
BRANCH   8  21
ATOM     21  O   LIG A   1      -6.935   0.007 132.292  0.00  0.00    -0.507 OA
ATOM     22  H   LIG A   1      -7.275  -0.802 131.873  0.00  0.00    +0.292 HD
ENDBRANCH   8  21
TORSDOF 3
ENDMDL
MODEL 3
REMARK VINA RESULT:      -7.0      8.214     11.233
REMARK  Name = NuBBE_1784
REMARK  4 active torsions:
REMARK  status: ('A' for Active; 'I' for Inactive)
REMARK    1  A    between atoms: C_3  and  C_11
REMARK    2  A    between atoms: C_7  and  O_9
REMARK    3  A    between atoms: O_9  and  C_10
REMARK    4  A    between atoms: C_19  and  O_22
REMARK                            x       y       z     vdW  Elec       q    Type
REMARK                         _______ _______ _______ _____ _____    ______ ____
ROOT
ATOM      1  C   LIG A   1      -9.686   5.597 130.649  0.00  0.00    +0.065 C 
ATOM      2  C   LIG A   1      -9.158   5.900 132.058  0.00  0.00    +0.050 C 
ATOM      3  C   LIG A   1      -8.458   4.708 132.650  0.00  0.00    -0.005 A 
ATOM      4  C   LIG A   1      -8.546   3.444 132.056  0.00  0.00    +0.127 A 
ATOM      5  O   LIG A   1      -9.235   3.206 130.894  0.00  0.00    -0.491 OA
ATOM      6  C   LIG A   1     -10.257   4.176 130.625  0.00  0.00    +0.237 C 
ATOM      7  C   LIG A   1      -7.901   2.344 132.624  0.00  0.00    +0.091 A 
ATOM      8  C   LIG A   1      -7.200   2.508 133.814  0.00  0.00    +0.120 A 
ATOM      9  C   LIG A   1      -7.113   3.752 134.427  0.00  0.00    +0.046 A 
ATOM     10  C   LIG A   1      -7.738   4.853 133.844  0.00  0.00    +0.011 A 
ENDROOT
BRANCH   1  13
ATOM     11  O   LIG A   1     -12.185   6.367 131.918  0.00  0.00    -0.287 OA
ATOM     12  C   LIG A   1     -11.868   6.982 130.907  0.00  0.00    +0.186 C 
ATOM     13  C   LIG A   1     -10.644   6.652 130.133  0.00  0.00    +0.010 C 
ATOM     14  C   LIG A   1     -10.415   7.303 128.982  0.00  0.00    +0.062 C 
ATOM     15  C   LIG A   1     -11.310   8.348 128.451  0.00  0.00    +0.221 C 
ATOM     16  O   LIG A   1     -11.058   8.828 127.350  0.00  0.00    -0.284 OA
ATOM     17  C   LIG A   1     -12.473   8.758 129.293  0.00  0.00    +0.170 C 
ATOM     18  C   LIG A   1     -12.710   8.094 130.430  0.00  0.00    +0.100 C 
BRANCH  17  19
ATOM     19  O   LIG A   1     -13.359   9.762 128.921  0.00  0.00    -0.491 OA
ATOM     20  C   LIG A   1     -13.455  10.874 129.808  0.00  0.00    +0.277 C 
ENDBRANCH  17  19
ENDBRANCH   1  13
BRANCH   8  21
ATOM     21  O   LIG A   1      -6.584   1.455 134.426  0.00  0.00    -0.507 OA
ATOM     22  H   LIG A   1      -6.484   0.738 133.778  0.00  0.00    +0.292 HD
ENDBRANCH   8  21
TORSDOF 3
ENDMDL
MODEL 4
REMARK VINA RESULT:      -7.0      7.297      8.791
REMARK  Name = NuBBE_1784
REMARK  4 active torsions:
REMARK  status: ('A' for Active; 'I' for Inactive)
REMARK    1  A    between atoms: C_3  and  C_11
REMARK    2  A    between atoms: C_7  and  O_9
REMARK    3  A    between atoms: O_9  and  C_10
REMARK    4  A    between atoms: C_19  and  O_22
REMARK                            x       y       z     vdW  Elec       q    Type
REMARK                         _______ _______ _______ _____ _____    ______ ____
ROOT
ATOM      1  C   LIG A   1     -10.047   4.585 129.891  0.00  0.00    +0.065 C 
ATOM      2  C   LIG A   1     -11.043   5.250 130.852  0.00  0.00    +0.050 C 
ATOM      3  C   LIG A   1     -11.539   6.561 130.307  0.00  0.00    -0.005 A 
ATOM      4  C   LIG A   1     -10.933   7.165 129.200  0.00  0.00    +0.127 A 
ATOM      5  O   LIG A   1      -9.883   6.603 128.519  0.00  0.00    -0.491 OA
ATOM      6  C   LIG A   1      -9.132   5.661 129.298  0.00  0.00    +0.237 C 
ATOM      7  C   LIG A   1     -11.396   8.388 128.715  0.00  0.00    +0.091 A 
ATOM      8  C   LIG A   1     -12.445   9.026 129.369  0.00  0.00    +0.120 A 
ATOM      9  C   LIG A   1     -13.051   8.450 130.479  0.00  0.00    +0.046 A 
ATOM     10  C   LIG A   1     -12.601   7.215 130.947  0.00  0.00    +0.011 A 
ENDROOT
BRANCH   1  13
ATOM     11  O   LIG A   1      -9.106   2.230 128.471  0.00  0.00    -0.287 OA
ATOM     12  C   LIG A   1      -8.836   2.299 129.664  0.00  0.00    +0.186 C 
ATOM     13  C   LIG A   1      -9.302   3.423 130.516  0.00  0.00    +0.010 C 
ATOM     14  C   LIG A   1      -9.052   3.380 131.834  0.00  0.00    +0.062 C 
ATOM     15  C   LIG A   1      -8.316   2.277 132.482  0.00  0.00    +0.221 C 
ATOM     16  O   LIG A   1      -8.208   2.287 133.705  0.00  0.00    -0.284 OA
ATOM     17  C   LIG A   1      -7.747   1.212 131.604  0.00  0.00    +0.170 C 
ATOM     18  C   LIG A   1      -8.016   1.248 130.294  0.00  0.00    +0.100 C 
BRANCH  17  19
ATOM     19  O   LIG A   1      -6.998   0.149 132.093  0.00  0.00    -0.491 OA
ATOM     20  C   LIG A   1      -7.722  -1.041 132.399  0.00  0.00    +0.277 C 
ENDBRANCH  17  19
ENDBRANCH   1  13
BRANCH   8  21
ATOM     21  O   LIG A   1     -12.908  10.240 128.954  0.00  0.00    -0.507 OA
ATOM     22  H   LIG A   1     -13.876  10.192 128.881  0.00  0.00    +0.292 HD
ENDBRANCH   8  21
TORSDOF 3
ENDMDL
MODEL 5
REMARK VINA RESULT:      -6.8      2.024      3.100
REMARK  Name = NuBBE_1784
REMARK  4 active torsions:
REMARK  status: ('A' for Active; 'I' for Inactive)
REMARK    1  A    between atoms: C_3  and  C_11
REMARK    2  A    between atoms: C_7  and  O_9
REMARK    3  A    between atoms: O_9  and  C_10
REMARK    4  A    between atoms: C_19  and  O_22
REMARK                            x       y       z     vdW  Elec       q    Type
REMARK                         _______ _______ _______ _____ _____    ______ ____
ROOT
ATOM      1  C   LIG A   1      -7.844   2.467 122.860  0.00  0.00    +0.065 C 
ATOM      2  C   LIG A   1      -6.381   2.733 122.480  0.00  0.00    +0.050 C 
ATOM      3  C   LIG A   1      -6.280   3.653 121.294  0.00  0.00    -0.005 A 
ATOM      4  C   LIG A   1      -7.404   3.970 120.523  0.00  0.00    +0.127 A 
ATOM      5  O   LIG A   1      -8.664   3.505 120.802  0.00  0.00    -0.491 OA
ATOM      6  C   LIG A   1      -8.669   2.300 121.581  0.00  0.00    +0.237 C 
ATOM      7  C   LIG A   1      -7.292   4.814 119.417  0.00  0.00    +0.091 A 
ATOM      8  C   LIG A   1      -6.041   5.308 119.062  0.00  0.00    +0.120 A 
ATOM      9  C   LIG A   1      -4.911   4.992 119.806  0.00  0.00    +0.046 A 
ATOM     10  C   LIG A   1      -5.030   4.168 120.925  0.00  0.00    +0.011 A 
ENDROOT
BRANCH   1  13
ATOM     11  O   LIG A   1      -9.543   2.513 125.218  0.00  0.00    -0.287 OA
ATOM     12  C   LIG A   1      -8.945   1.468 124.990  0.00  0.00    +0.186 C 
ATOM     13  C   LIG A   1      -8.004   1.329 123.848  0.00  0.00    +0.010 C 
ATOM     14  C   LIG A   1      -7.311   0.188 123.720  0.00  0.00    +0.062 C 
ATOM     15  C   LIG A   1      -7.447  -0.950 124.648  0.00  0.00    +0.221 C 
ATOM     16  O   LIG A   1      -6.710  -1.920 124.495  0.00  0.00    -0.284 OA
ATOM     17  C   LIG A   1      -8.481  -0.851 125.721  0.00  0.00    +0.170 C 
ATOM     18  C   LIG A   1      -9.156   0.296 125.858  0.00  0.00    +0.100 C 
BRANCH  17  19
ATOM     19  O   LIG A   1      -8.734  -1.875 126.625  0.00  0.00    -0.491 OA
ATOM     20  C   LIG A   1      -9.441  -3.003 126.114  0.00  0.00    +0.277 C 
ENDBRANCH  17  19
ENDBRANCH   1  13
BRANCH   8  21
ATOM     21  O   LIG A   1      -5.877   6.106 117.968  0.00  0.00    -0.507 OA
ATOM     22  H   LIG A   1      -6.754   6.375 117.648  0.00  0.00    +0.292 HD
ENDBRANCH   8  21
TORSDOF 3
ENDMDL
MODEL 6
REMARK VINA RESULT:      -6.8      8.790     10.104
REMARK  Name = NuBBE_1784
REMARK  4 active torsions:
REMARK  status: ('A' for Active; 'I' for Inactive)
REMARK    1  A    between atoms: C_3  and  C_11
REMARK    2  A    between atoms: C_7  and  O_9
REMARK    3  A    between atoms: O_9  and  C_10
REMARK    4  A    between atoms: C_19  and  O_22
REMARK                            x       y       z     vdW  Elec       q    Type
REMARK                         _______ _______ _______ _____ _____    ______ ____
ROOT
ATOM      1  C   LIG A   1      -8.641   5.599 131.882  0.00  0.00    +0.065 C 
ATOM      2  C   LIG A   1     -10.078   6.000 132.241  0.00  0.00    +0.050 C 
ATOM      3  C   LIG A   1     -10.723   6.785 131.132  0.00  0.00    -0.005 A 
ATOM      4  C   LIG A   1      -9.972   7.280 130.060  0.00  0.00    +0.127 A 
ATOM      5  O   LIG A   1      -8.625   7.063 129.922  0.00  0.00    -0.491 OA
ATOM      6  C   LIG A   1      -7.962   6.767 131.160  0.00  0.00    +0.237 C 
ATOM      7  C   LIG A   1     -10.583   8.019 129.045  0.00  0.00    +0.091 A 
ATOM      8  C   LIG A   1     -11.943   8.295 129.129  0.00  0.00    +0.120 A 
ATOM      9  C   LIG A   1     -12.703   7.826 130.194  0.00  0.00    +0.046 A 
ATOM     10  C   LIG A   1     -12.095   7.068 131.194  0.00  0.00    +0.011 A 
ENDROOT
BRANCH   1  13
ATOM     11  O   LIG A   1      -6.917   3.259 131.848  0.00  0.00    -0.287 OA
ATOM     12  C   LIG A   1      -6.975   3.886 132.899  0.00  0.00    +0.186 C 
ATOM     13  C   LIG A   1      -7.857   5.069 133.066  0.00  0.00    +0.010 C 
ATOM     14  C   LIG A   1      -7.942   5.645 134.275  0.00  0.00    +0.062 C 
ATOM     15  C   LIG A   1      -7.185   5.173 135.450  0.00  0.00    +0.221 C 
ATOM     16  O   LIG A   1      -7.391   5.714 136.532  0.00  0.00    -0.284 OA
ATOM     17  C   LIG A   1      -6.210   4.061 135.247  0.00  0.00    +0.170 C 
ATOM     18  C   LIG A   1      -6.143   3.477 134.045  0.00  0.00    +0.100 C 
BRANCH  17  19
ATOM     19  O   LIG A   1      -5.408   3.563 136.266  0.00  0.00    -0.491 OA
ATOM     20  C   LIG A   1      -4.190   2.942 135.859  0.00  0.00    +0.277 C 
ENDBRANCH  17  19
ENDBRANCH   1  13
BRANCH   8  21
ATOM     21  O   LIG A   1     -12.576   9.044 128.181  0.00  0.00    -0.507 OA
ATOM     22  H   LIG A   1     -12.246   8.775 127.307  0.00  0.00    +0.292 HD
ENDBRANCH   8  21
TORSDOF 3
ENDMDL
MODEL 7
REMARK VINA RESULT:      -6.8      6.303      9.368
REMARK  Name = NuBBE_1784
REMARK  4 active torsions:
REMARK  status: ('A' for Active; 'I' for Inactive)
REMARK    1  A    between atoms: C_3  and  C_11
REMARK    2  A    between atoms: C_7  and  O_9
REMARK    3  A    between atoms: O_9  and  C_10
REMARK    4  A    between atoms: C_19  and  O_22
REMARK                            x       y       z     vdW  Elec       q    Type
REMARK                         _______ _______ _______ _____ _____    ______ ____
ROOT
ATOM      1  C   LIG A   1      -6.952  -2.755 129.903  0.00  0.00    +0.065 C 
ATOM      2  C   LIG A   1      -7.952  -3.563 129.064  0.00  0.00    +0.050 C 
ATOM      3  C   LIG A   1      -8.285  -2.858 127.779  0.00  0.00    -0.005 A 
ATOM      4  C   LIG A   1      -7.911  -1.527 127.561  0.00  0.00    +0.127 A 
ATOM      5  O   LIG A   1      -7.197  -0.788 128.470  0.00  0.00    -0.491 OA
ATOM      6  C   LIG A   1      -7.313  -1.269 129.817  0.00  0.00    +0.237 C 
ATOM      7  C   LIG A   1      -8.240  -0.882 126.368  0.00  0.00    +0.091 A 
ATOM      8  C   LIG A   1      -8.981  -1.563 125.408  0.00  0.00    +0.120 A 
ATOM      9  C   LIG A   1      -9.374  -2.880 125.612  0.00  0.00    +0.046 A 
ATOM     10  C   LIG A   1      -9.024  -3.530 126.795  0.00  0.00    +0.011 A 
ENDROOT
BRANCH   1  13
ATOM     11  O   LIG A   1      -5.250  -4.961 130.730  0.00  0.00    -0.287 OA
ATOM     12  C   LIG A   1      -5.868  -4.381 131.614  0.00  0.00    +0.186 C 
ATOM     13  C   LIG A   1      -6.812  -3.272 131.321  0.00  0.00    +0.010 C 
ATOM     14  C   LIG A   1      -7.527  -2.751 132.330  0.00  0.00    +0.062 C 
ATOM     15  C   LIG A   1      -7.410  -3.211 133.727  0.00  0.00    +0.221 C 
ATOM     16  O   LIG A   1      -8.165  -2.728 134.565  0.00  0.00    -0.284 OA
ATOM     17  C   LIG A   1      -6.374  -4.241 134.034  0.00  0.00    +0.170 C 
ATOM     18  C   LIG A   1      -5.677  -4.773 133.023  0.00  0.00    +0.100 C 
BRANCH  17  19
ATOM     19  O   LIG A   1      -6.139  -4.719 135.317  0.00  0.00    -0.491 OA
ATOM     20  C   LIG A   1      -6.821  -5.919 135.674  0.00  0.00    +0.277 C 
ENDBRANCH  17  19
ENDBRANCH   1  13
BRANCH   8  21
ATOM     21  O   LIG A   1      -9.357  -0.962 124.243  0.00  0.00    -0.507 OA
ATOM     22  H   LIG A   1      -9.835  -1.612 123.701  0.00  0.00    +0.292 HD
ENDBRANCH   8  21
TORSDOF 3
ENDMDL
MODEL 8
REMARK VINA RESULT:      -6.7      6.206      7.971
REMARK  Name = NuBBE_1784
REMARK  4 active torsions:
REMARK  status: ('A' for Active; 'I' for Inactive)
REMARK    1  A    between atoms: C_3  and  C_11
REMARK    2  A    between atoms: C_7  and  O_9
REMARK    3  A    between atoms: O_9  and  C_10
REMARK    4  A    between atoms: C_19  and  O_22
REMARK                            x       y       z     vdW  Elec       q    Type
REMARK                         _______ _______ _______ _____ _____    ______ ____
ROOT
ATOM      1  C   LIG A   1      -7.040  -2.629 128.510  0.00  0.00    +0.065 C 
ATOM      2  C   LIG A   1      -8.364  -2.910 127.786  0.00  0.00    +0.050 C 
ATOM      3  C   LIG A   1      -8.223  -2.741 126.299  0.00  0.00    -0.005 A 
ATOM      4  C   LIG A   1      -7.087  -2.146 125.739  0.00  0.00    +0.127 A 
ATOM      5  O   LIG A   1      -6.021  -1.710 126.485  0.00  0.00    -0.491 OA
ATOM      6  C   LIG A   1      -6.356  -1.428 127.851  0.00  0.00    +0.237 C 
ATOM      7  C   LIG A   1      -6.977  -1.983 124.357  0.00  0.00    +0.091 A 
ATOM      8  C   LIG A   1      -8.028  -2.384 123.539  0.00  0.00    +0.120 A 
ATOM      9  C   LIG A   1      -9.171  -2.963 124.077  0.00  0.00    +0.046 A 
ATOM     10  C   LIG A   1      -9.268  -3.146 125.456  0.00  0.00    +0.011 A 
ENDROOT
BRANCH   1  13
ATOM     11  O   LIG A   1      -6.132  -4.571 130.473  0.00  0.00    -0.287 OA
ATOM     12  C   LIG A   1      -6.646  -3.547 130.908  0.00  0.00    +0.186 C 
ATOM     13  C   LIG A   1      -7.199  -2.499 130.011  0.00  0.00    +0.010 C 
ATOM     14  C   LIG A   1      -7.835  -1.452 130.559  0.00  0.00    +0.062 C 
ATOM     15  C   LIG A   1      -7.998  -1.276 132.015  0.00  0.00    +0.221 C 
ATOM     16  O   LIG A   1      -8.666  -0.328 132.417  0.00  0.00    -0.284 OA
ATOM     17  C   LIG A   1      -7.336  -2.269 132.912  0.00  0.00    +0.170 C 
ATOM     18  C   LIG A   1      -6.720  -3.322 132.363  0.00  0.00    +0.100 C 
BRANCH  17  19
ATOM     19  O   LIG A   1      -7.380  -2.183 134.298  0.00  0.00    -0.491 OA
ATOM     20  C   LIG A   1      -8.173  -3.164 134.963  0.00  0.00    +0.277 C 
ENDBRANCH  17  19
ENDBRANCH   1  13
BRANCH   8  21
ATOM     21  O   LIG A   1      -7.981  -2.212 122.187  0.00  0.00    -0.507 OA
ATOM     22  H   LIG A   1      -7.060  -2.036 121.931  0.00  0.00    +0.292 HD
ENDBRANCH   8  21
TORSDOF 3
ENDMDL
MODEL 9
REMARK VINA RESULT:      -6.7      1.541      2.865
REMARK  Name = NuBBE_1784
REMARK  4 active torsions:
REMARK  status: ('A' for Active; 'I' for Inactive)
REMARK    1  A    between atoms: C_3  and  C_11
REMARK    2  A    between atoms: C_7  and  O_9
REMARK    3  A    between atoms: O_9  and  C_10
REMARK    4  A    between atoms: C_19  and  O_22
REMARK                            x       y       z     vdW  Elec       q    Type
REMARK                         _______ _______ _______ _____ _____    ______ ____
ROOT
ATOM      1  C   LIG A   1      -7.845   2.603 124.235  0.00  0.00    +0.065 C 
ATOM      2  C   LIG A   1      -6.467   2.920 123.639  0.00  0.00    +0.050 C 
ATOM      3  C   LIG A   1      -6.586   3.484 122.250  0.00  0.00    -0.005 A 
ATOM      4  C   LIG A   1      -7.797   3.446 121.551  0.00  0.00    +0.127 A 
ATOM      5  O   LIG A   1      -8.955   2.934 122.081  0.00  0.00    -0.491 OA
ATOM      6  C   LIG A   1      -8.733   1.997 123.144  0.00  0.00    +0.237 C 
ATOM      7  C   LIG A   1      -7.889   3.961 120.257  0.00  0.00    +0.091 A 
ATOM      8  C   LIG A   1      -6.750   4.478 119.649  0.00  0.00    +0.120 A 
ATOM      9  C   LIG A   1      -5.534   4.511 120.321  0.00  0.00    +0.046 A 
ATOM     10  C   LIG A   1      -5.451   4.017 121.623  0.00  0.00    +0.011 A 
ENDROOT
BRANCH   1  13
ATOM     11  O   LIG A   1      -8.257   3.599 126.935  0.00  0.00    -0.287 OA
ATOM     12  C   LIG A   1      -8.048   2.398 126.816  0.00  0.00    +0.186 C 
ATOM     13  C   LIG A   1      -7.770   1.770 125.499  0.00  0.00    +0.010 C 
ATOM     14  C   LIG A   1      -7.452   0.467 125.460  0.00  0.00    +0.062 C 
ATOM     15  C   LIG A   1      -7.383  -0.385 126.662  0.00  0.00    +0.221 C 
ATOM     16  O   LIG A   1      -7.005  -1.546 126.534  0.00  0.00    -0.284 OA
ATOM     17  C   LIG A   1      -7.781   0.222 127.967  0.00  0.00    +0.170 C 
ATOM     18  C   LIG A   1      -8.078   1.526 128.005  0.00  0.00    +0.100 C 
BRANCH  17  19
ATOM     19  O   LIG A   1      -7.801  -0.492 129.159  0.00  0.00    -0.491 OA
ATOM     20  C   LIG A   1      -6.659  -0.341 129.999  0.00  0.00    +0.277 C 
ENDBRANCH  17  19
ENDBRANCH   1  13
BRANCH   8  21
ATOM     21  O   LIG A   1      -6.782   4.959 118.373  0.00  0.00    -0.507 OA
ATOM     22  H   LIG A   1      -7.666   5.327 118.205  0.00  0.00    +0.292 HD
ENDBRANCH   8  21
TORSDOF 3
ENDMDL
