MODEL 1
REMARK VINA RESULT:      -8.2      0.000      0.000
REMARK  Name = NuBBE_1833
REMARK  24 active torsions:
REMARK  status: ('A' for Active; 'I' for Inactive)
REMARK    1  A    between atoms: C_1  and  C_2
REMARK    2  A    between atoms: C_4  and  C_6
REMARK    3  A    between atoms: C_7  and  O_8
REMARK    4  A    between atoms: C_11  and  O_12
REMARK    5  A    between atoms: O_12  and  C_13
REMARK    6  A    between atoms: C_13  and  C_14
REMARK    7  A    between atoms: C_17  and  O_18
REMARK    8  A    between atoms: O_18  and  C_19
REMARK    9  A    between atoms: C_21  and  O_23
REMARK   10  A    between atoms: O_23  and  C_24
REMARK   11  A    between atoms: C_24  and  C_25
REMARK   12  A    between atoms: C_27  and  O_29
REMARK   13  A    between atoms: O_29  and  C_30
REMARK   14  A    between atoms: C_30  and  C_31
REMARK   15  A    between atoms: C_33  and  O_35
REMARK   16  A    between atoms: O_35  and  C_36
REMARK   17  A    between atoms: C_36  and  C_37
REMARK   18  A    between atoms: C_39  and  C_41
REMARK   19  A    between atoms: C_41  and  O_42
REMARK   20  A    between atoms: O_42  and  C_43
REMARK   21  A    between atoms: C_43  and  C_44
REMARK   22  A    between atoms: C_48  and  O_49
REMARK   23  A    between atoms: O_49  and  C_50
REMARK   24  A    between atoms: C_50  and  C_51
REMARK                            x       y       z     vdW  Elec       q    Type
REMARK                         _______ _______ _______ _____ _____    ______ ____
ROOT
ATOM      1  C   LIG A   1      -6.840   0.179 123.123  0.00  0.00    +0.043 C 
ATOM      2  C   LIG A   1      -6.817  -1.059 124.057  0.00  0.00    +0.150 C 
ATOM      3  O   LIG A   1      -7.050  -2.186 123.188  0.00  0.00    -0.366 OA
ATOM      4  C   LIG A   1      -8.416  -2.572 123.195  0.00  0.00    +0.149 C 
ATOM      5  C   LIG A   1      -9.333  -1.422 122.780  0.00  0.00    +0.041 C 
ATOM      6  C   LIG A   1      -8.704  -3.189 124.574  0.00  0.00    +0.173 C 
ATOM      7  C   LIG A   1      -8.286  -2.319 125.717  0.00  0.00    -0.007 A 
ATOM      8  C   LIG A   1      -7.585  -1.171 125.468  0.00  0.00    +0.030 A 
ATOM      9  C   LIG A   1      -7.452  -0.365 126.642  0.00  0.00    +0.149 A 
ATOM     10  C   LIG A   1      -7.413  -0.810 128.129  0.00  0.00    +0.067 A 
ATOM     11  C   LIG A   1      -6.824  -0.337 129.492  0.00  0.00    +0.139 A 
ATOM     12  C   LIG A   1      -6.798  -1.182 130.620  0.00  0.00    +0.092 A 
ATOM     13  C   LIG A   1      -7.314  -2.458 130.548  0.00  0.00    +0.136 A 
ATOM     14  C   LIG A   1      -7.923  -2.890 129.374  0.00  0.00    +0.055 A 
ATOM     15  C   LIG A   1      -7.976  -2.102 128.201  0.00  0.00    -0.007 A 
ATOM     16  C   LIG A   1      -8.515  -2.736 127.052  0.00  0.00    +0.015 A 
ENDROOT
BRANCH   6  17
ATOM     17  O   LIG A   1      -7.928  -4.383 124.711  0.00  0.00    -0.385 OA
ATOM     18  H   LIG A   1      -7.811  -4.719 123.801  0.00  0.00    +0.210 HD
ENDBRANCH   6  17
BRANCH  11  19
ATOM     19  O   LIG A   1      -5.970   0.762 129.857  0.00  0.00    -0.459 OA
BRANCH  19  20
ATOM     20  C   LIG A   1      -6.506   2.077 129.713  0.00  0.00    +0.353 C 
ATOM     21  C   LIG A   1      -6.658   3.159 130.896  0.00  0.00    +0.288 C 
ATOM     22  C   LIG A   1      -5.338   3.961 130.903  0.00  0.00    +0.266 C 
ATOM     23  C   LIG A   1      -4.874   4.654 129.570  0.00  0.00    +0.253 C 
ATOM     24  C   LIG A   1      -5.557   4.072 128.370  0.00  0.00    +0.204 C 
ATOM     25  O   LIG A   1      -5.804   2.684 128.623  0.00  0.00    -0.328 OA
BRANCH  22  26
ATOM     26  O   LIG A   1      -4.272   3.034 131.274  0.00  0.00    -0.454 OA
BRANCH  26  27
ATOM     27  C   LIG A   1      -3.782   3.182 132.530  0.00  0.00    +0.304 C 
ATOM     28  C   LIG A   1      -2.543   4.027 132.561  0.00  0.00    +0.136 C 
ATOM     29  O   LIG A   1      -4.257   2.649 133.523  0.00  0.00    -0.251 OA
ENDBRANCH  26  27
ENDBRANCH  22  26
BRANCH  23  30
ATOM     30  O   LIG A   1      -4.871   6.110 129.450  0.00  0.00    -0.455 OA
BRANCH  30  31
ATOM     31  C   LIG A   1      -5.235   6.943 130.458  0.00  0.00    +0.304 C 
ATOM     32  C   LIG A   1      -4.050   7.421 131.229  0.00  0.00    +0.136 C 
ATOM     33  O   LIG A   1      -6.355   7.370 130.701  0.00  0.00    -0.251 OA
ENDBRANCH  30  31
ENDBRANCH  23  30
BRANCH  21  34
ATOM     34  O   LIG A   1      -7.932   4.176 130.865  0.00  0.00    -0.451 OA
BRANCH  34  35
ATOM     35  C   LIG A   1      -9.048   4.249 130.036  0.00  0.00    +0.304 C 
ATOM     36  C   LIG A   1     -10.250   3.411 130.428  0.00  0.00    +0.136 C 
ATOM     37  O   LIG A   1      -9.060   4.647 128.875  0.00  0.00    -0.251 OA
ENDBRANCH  34  35
ENDBRANCH  21  34
BRANCH  24  38
ATOM     38  C   LIG A   1      -4.845   4.307 127.042  0.00  0.00    +0.267 C 
BRANCH  38  39
ATOM     39  O   LIG A   1      -5.453   3.827 125.836  0.00  0.00    -0.462 OA
BRANCH  39  40
ATOM     40  C   LIG A   1      -5.847   4.686 124.874  0.00  0.00    +0.304 C 
ATOM     41  C   LIG A   1      -5.953   4.089 123.534  0.00  0.00    +0.136 C 
ATOM     42  O   LIG A   1      -6.298   5.833 125.044  0.00  0.00    -0.251 OA
ENDBRANCH  39  40
ENDBRANCH  38  39
ENDBRANCH  24  38
ENDBRANCH  19  20
ENDBRANCH  11  19
BRANCH  13  43
ATOM     43  O   LIG A   1      -7.127  -3.420 131.560  0.00  0.00    -0.426 OA
BRANCH  43  44
ATOM     44  C   LIG A   1      -5.824  -3.842 131.799  0.00  0.00    +0.309 C 
ATOM     45  C   LIG A   1      -5.522  -5.013 130.922  0.00  0.00    +0.136 C 
ATOM     46  O   LIG A   1      -5.036  -3.353 132.598  0.00  0.00    -0.251 OA
ENDBRANCH  43  44
ENDBRANCH  13  43
BRANCH   9  47
ATOM     47  O   LIG A   1      -7.361   0.989 126.228  0.00  0.00    -0.425 OA
BRANCH  47  48
ATOM     48  C   LIG A   1      -8.394   1.667 126.211  0.00  0.00    +0.309 C 
ATOM     49  C   LIG A   1      -8.917   2.249 125.097  0.00  0.00    +0.136 C 
ATOM     50  O   LIG A   1      -9.100   1.734 127.254  0.00  0.00    -0.251 OA
ENDBRANCH  47  48
ENDBRANCH   9  47
TORSDOF 16
ENDMDL
MODEL 2
REMARK VINA RESULT:      -8.2      2.457      5.945
REMARK  Name = NuBBE_1833
REMARK  24 active torsions:
REMARK  status: ('A' for Active; 'I' for Inactive)
REMARK    1  A    between atoms: C_1  and  C_2
REMARK    2  A    between atoms: C_4  and  C_6
REMARK    3  A    between atoms: C_7  and  O_8
REMARK    4  A    between atoms: C_11  and  O_12
REMARK    5  A    between atoms: O_12  and  C_13
REMARK    6  A    between atoms: C_13  and  C_14
REMARK    7  A    between atoms: C_17  and  O_18
REMARK    8  A    between atoms: O_18  and  C_19
REMARK    9  A    between atoms: C_21  and  O_23
REMARK   10  A    between atoms: O_23  and  C_24
REMARK   11  A    between atoms: C_24  and  C_25
REMARK   12  A    between atoms: C_27  and  O_29
REMARK   13  A    between atoms: O_29  and  C_30
REMARK   14  A    between atoms: C_30  and  C_31
REMARK   15  A    between atoms: C_33  and  O_35
REMARK   16  A    between atoms: O_35  and  C_36
REMARK   17  A    between atoms: C_36  and  C_37
REMARK   18  A    between atoms: C_39  and  C_41
REMARK   19  A    between atoms: C_41  and  O_42
REMARK   20  A    between atoms: O_42  and  C_43
REMARK   21  A    between atoms: C_43  and  C_44
REMARK   22  A    between atoms: C_48  and  O_49
REMARK   23  A    between atoms: O_49  and  C_50
REMARK   24  A    between atoms: C_50  and  C_51
REMARK                            x       y       z     vdW  Elec       q    Type
REMARK                         _______ _______ _______ _____ _____    ______ ____
ROOT
ATOM      1  C   LIG A   1      -6.911  -1.220 131.821  0.00  0.00    +0.043 C 
ATOM      2  C   LIG A   1      -7.659  -1.388 130.474  0.00  0.00    +0.150 C 
ATOM      3  O   LIG A   1      -8.060  -2.773 130.441  0.00  0.00    -0.366 OA
ATOM      4  C   LIG A   1      -7.145  -3.559 129.693  0.00  0.00    +0.149 C 
ATOM      5  C   LIG A   1      -5.725  -3.462 130.251  0.00  0.00    +0.041 C 
ATOM      6  C   LIG A   1      -7.308  -3.161 128.217  0.00  0.00    +0.173 C 
ATOM      7  C   LIG A   1      -7.216  -1.686 127.981  0.00  0.00    -0.007 A 
ATOM      8  C   LIG A   1      -7.145  -0.838 129.051  0.00  0.00    +0.030 A 
ATOM      9  C   LIG A   1      -6.853   0.503 128.647  0.00  0.00    +0.149 A 
ATOM     10  C   LIG A   1      -7.196   1.212 127.308  0.00  0.00    +0.067 A 
ATOM     11  C   LIG A   1      -7.476   2.646 126.765  0.00  0.00    +0.139 A 
ATOM     12  C   LIG A   1      -8.017   2.859 125.481  0.00  0.00    +0.092 A 
ATOM     13  C   LIG A   1      -8.299   1.790 124.657  0.00  0.00    +0.136 A 
ATOM     14  C   LIG A   1      -7.987   0.498 125.072  0.00  0.00    +0.055 A 
ATOM     15  C   LIG A   1      -7.454   0.209 126.350  0.00  0.00    -0.007 A 
ATOM     16  C   LIG A   1      -7.314  -1.166 126.667  0.00  0.00    +0.015 A 
ENDROOT
BRANCH   6  17
ATOM     17  O   LIG A   1      -8.623  -3.526 127.788  0.00  0.00    -0.385 OA
ATOM     18  H   LIG A   1      -8.998  -4.049 128.524  0.00  0.00    +0.210 HD
ENDBRANCH   6  17
BRANCH  11  19
ATOM     19  O   LIG A   1      -7.585   3.929 127.408  0.00  0.00    -0.459 OA
BRANCH  19  20
ATOM     20  C   LIG A   1      -8.551   4.052 128.451  0.00  0.00    +0.353 C 
ATOM     21  C   LIG A   1      -8.286   3.752 130.011  0.00  0.00    +0.288 C 
ATOM     22  C   LIG A   1      -7.814   5.091 130.620  0.00  0.00    +0.266 C 
ATOM     23  C   LIG A   1      -8.726   6.359 130.445  0.00  0.00    +0.253 C 
ATOM     24  C   LIG A   1      -9.715   6.186 129.333  0.00  0.00    +0.204 C 
ATOM     25  O   LIG A   1      -9.119   5.361 128.326  0.00  0.00    -0.328 OA
BRANCH  22  26
ATOM     26  O   LIG A   1      -6.533   5.420 130.001  0.00  0.00    -0.454 OA
BRANCH  26  27
ATOM     27  C   LIG A   1      -5.783   6.335 130.663  0.00  0.00    +0.304 C 
ATOM     28  C   LIG A   1      -5.502   5.924 132.078  0.00  0.00    +0.136 C 
ATOM     29  O   LIG A   1      -5.416   7.402 130.188  0.00  0.00    -0.251 OA
ENDBRANCH  26  27
ENDBRANCH  22  26
BRANCH  23  30
ATOM     30  O   LIG A   1      -9.408   6.950 131.594  0.00  0.00    -0.455 OA
BRANCH  30  31
ATOM     31  C   LIG A   1     -10.275   6.266 132.381  0.00  0.00    +0.304 C 
ATOM     32  C   LIG A   1     -11.693   6.575 132.031  0.00  0.00    +0.136 C 
ATOM     33  O   LIG A   1     -10.009   5.416 133.219  0.00  0.00    -0.251 OA
ENDBRANCH  30  31
ENDBRANCH  23  30
BRANCH  21  34
ATOM     34  O   LIG A   1      -9.498   3.126 130.903  0.00  0.00    -0.451 OA
BRANCH  34  35
ATOM     35  C   LIG A   1      -9.513   2.175 131.920  0.00  0.00    +0.304 C 
ATOM     36  C   LIG A   1      -8.374   2.222 132.921  0.00  0.00    +0.136 C 
ATOM     37  O   LIG A   1     -10.144   1.122 131.914  0.00  0.00    -0.251 OA
ENDBRANCH  34  35
ENDBRANCH  21  34
BRANCH  24  38
ATOM     38  C   LIG A   1     -10.286   7.482 128.766  0.00  0.00    +0.267 C 
BRANCH  38  39
ATOM     39  O   LIG A   1     -11.708   7.646 128.709  0.00  0.00    -0.462 OA
BRANCH  39  40
ATOM     40  C   LIG A   1     -12.429   7.067 127.727  0.00  0.00    +0.304 C 
ATOM     41  C   LIG A   1     -13.886   7.140 127.921  0.00  0.00    +0.136 C 
ATOM     42  O   LIG A   1     -12.002   6.672 126.628  0.00  0.00    -0.251 OA
ENDBRANCH  39  40
ENDBRANCH  38  39
ENDBRANCH  24  38
ENDBRANCH  19  20
ENDBRANCH  11  19
BRANCH  13  43
ATOM     43  O   LIG A   1      -9.033   1.914 123.462  0.00  0.00    -0.426 OA
BRANCH  43  44
ATOM     44  C   LIG A   1     -10.210   1.180 123.362  0.00  0.00    +0.309 C 
ATOM     45  C   LIG A   1     -10.082   0.204 122.238  0.00  0.00    +0.136 C 
ATOM     46  O   LIG A   1     -11.204   1.300 124.066  0.00  0.00    -0.251 OA
ENDBRANCH  43  44
ENDBRANCH  13  43
BRANCH   9  47
ATOM     47  O   LIG A   1      -6.155   1.133 129.709  0.00  0.00    -0.425 OA
BRANCH  47  48
ATOM     48  C   LIG A   1      -4.939   1.316 129.584  0.00  0.00    +0.309 C 
ATOM     49  C   LIG A   1      -4.372   2.490 129.193  0.00  0.00    +0.136 C 
ATOM     50  O   LIG A   1      -4.142   0.413 129.958  0.00  0.00    -0.251 OA
ENDBRANCH  47  48
ENDBRANCH   9  47
TORSDOF 16
ENDMDL
MODEL 3
REMARK VINA RESULT:      -8.1      2.280      7.456
REMARK  Name = NuBBE_1833
REMARK  24 active torsions:
REMARK  status: ('A' for Active; 'I' for Inactive)
REMARK    1  A    between atoms: C_1  and  C_2
REMARK    2  A    between atoms: C_4  and  C_6
REMARK    3  A    between atoms: C_7  and  O_8
REMARK    4  A    between atoms: C_11  and  O_12
REMARK    5  A    between atoms: O_12  and  C_13
REMARK    6  A    between atoms: C_13  and  C_14
REMARK    7  A    between atoms: C_17  and  O_18
REMARK    8  A    between atoms: O_18  and  C_19
REMARK    9  A    between atoms: C_21  and  O_23
REMARK   10  A    between atoms: O_23  and  C_24
REMARK   11  A    between atoms: C_24  and  C_25
REMARK   12  A    between atoms: C_27  and  O_29
REMARK   13  A    between atoms: O_29  and  C_30
REMARK   14  A    between atoms: C_30  and  C_31
REMARK   15  A    between atoms: C_33  and  O_35
REMARK   16  A    between atoms: O_35  and  C_36
REMARK   17  A    between atoms: C_36  and  C_37
REMARK   18  A    between atoms: C_39  and  C_41
REMARK   19  A    between atoms: C_41  and  O_42
REMARK   20  A    between atoms: O_42  and  C_43
REMARK   21  A    between atoms: C_43  and  C_44
REMARK   22  A    between atoms: C_48  and  O_49
REMARK   23  A    between atoms: O_49  and  C_50
REMARK   24  A    between atoms: C_50  and  C_51
REMARK                            x       y       z     vdW  Elec       q    Type
REMARK                         _______ _______ _______ _____ _____    ______ ____
ROOT
ATOM      1  C   LIG A   1      -3.747  -3.471 128.946  0.00  0.00    +0.043 C 
ATOM      2  C   LIG A   1      -3.890  -2.081 129.618  0.00  0.00    +0.150 C 
ATOM      3  O   LIG A   1      -2.869  -2.052 130.636  0.00  0.00    -0.366 OA
ATOM      4  C   LIG A   1      -3.396  -2.395 131.908  0.00  0.00    +0.149 C 
ATOM      5  C   LIG A   1      -4.052  -3.775 131.898  0.00  0.00    +0.041 C 
ATOM      6  C   LIG A   1      -4.298  -1.232 132.352  0.00  0.00    +0.173 C 
ATOM      7  C   LIG A   1      -5.318  -0.842 131.329  0.00  0.00    -0.007 A 
ATOM      8  C   LIG A   1      -5.279  -1.416 130.089  0.00  0.00    +0.030 A 
ATOM      9  C   LIG A   1      -6.438  -1.090 129.316  0.00  0.00    +0.149 A 
ATOM     10  C   LIG A   1      -7.331   0.179 129.390  0.00  0.00    +0.067 A 
ATOM     11  C   LIG A   1      -8.255   1.032 128.470  0.00  0.00    +0.139 A 
ATOM     12  C   LIG A   1      -8.713   2.307 128.859  0.00  0.00    +0.092 A 
ATOM     13  C   LIG A   1      -8.362   2.830 130.085  0.00  0.00    +0.136 A 
ATOM     14  C   LIG A   1      -7.608   2.066 130.970  0.00  0.00    +0.055 A 
ATOM     15  C   LIG A   1      -7.105   0.785 130.645  0.00  0.00    -0.007 A 
ATOM     16  C   LIG A   1      -6.246   0.193 131.604  0.00  0.00    +0.015 A 
ENDROOT
BRANCH   6  17
ATOM     17  O   LIG A   1      -3.488  -0.068 132.533  0.00  0.00    -0.385 OA
ATOM     18  H   LIG A   1      -3.986   0.661 132.115  0.00  0.00    +0.210 HD
ENDBRANCH   6  17
BRANCH  11  19
ATOM     19  O   LIG A   1      -8.575   0.958 127.069  0.00  0.00    -0.459 OA
BRANCH  19  20
ATOM     20  C   LIG A   1      -7.484   0.805 126.161  0.00  0.00    +0.353 C 
ATOM     21  C   LIG A   1      -7.594   0.249 124.653  0.00  0.00    +0.288 C 
ATOM     22  C   LIG A   1      -7.841   1.489 123.767  0.00  0.00    +0.266 C 
ATOM     23  C   LIG A   1      -6.823   2.684 123.847  0.00  0.00    +0.253 C 
ATOM     24  C   LIG A   1      -5.997   2.632 125.096  0.00  0.00    +0.204 C 
ATOM     25  O   LIG A   1      -6.796   2.060 126.138  0.00  0.00    -0.328 OA
BRANCH  22  26
ATOM     26  O   LIG A   1      -9.143   2.036 124.141  0.00  0.00    -0.454 OA
BRANCH  26  27
ATOM     27  C   LIG A   1     -10.217   1.309 123.744  0.00  0.00    +0.304 C 
ATOM     28  C   LIG A   1     -10.084   0.826 122.330  0.00  0.00    +0.136 C 
ATOM     29  O   LIG A   1     -11.208   1.108 124.432  0.00  0.00    -0.251 OA
ENDBRANCH  26  27
ENDBRANCH  22  26
BRANCH  23  30
ATOM     30  O   LIG A   1      -5.949   2.995 122.718  0.00  0.00    -0.455 OA
BRANCH  30  31
ATOM     31  C   LIG A   1      -6.379   3.619 121.592  0.00  0.00    +0.304 C 
ATOM     32  C   LIG A   1      -5.238   4.176 120.806  0.00  0.00    +0.136 C 
ATOM     33  O   LIG A   1      -7.522   3.673 121.160  0.00  0.00    -0.251 OA
ENDBRANCH  30  31
ENDBRANCH  23  30
BRANCH  21  34
ATOM     34  O   LIG A   1      -6.360  -0.632 124.054  0.00  0.00    -0.451 OA
BRANCH  34  35
ATOM     35  C   LIG A   1      -6.198  -2.002 123.863  0.00  0.00    +0.304 C 
ATOM     36  C   LIG A   1      -7.441  -2.864 123.985  0.00  0.00    +0.136 C 
ATOM     37  O   LIG A   1      -5.140  -2.620 123.931  0.00  0.00    -0.251 OA
ENDBRANCH  34  35
ENDBRANCH  21  34
BRANCH  24  38
ATOM     38  C   LIG A   1      -5.360   3.956 125.507  0.00  0.00    +0.267 C 
BRANCH  38  39
ATOM     39  O   LIG A   1      -3.939   4.016 125.678  0.00  0.00    -0.462 OA
BRANCH  39  40
ATOM     40  C   LIG A   1      -3.345   3.412 126.727  0.00  0.00    +0.304 C 
ATOM     41  C   LIG A   1      -1.908   3.152 126.545  0.00  0.00    +0.136 C 
ATOM     42  O   LIG A   1      -3.834   3.240 127.858  0.00  0.00    -0.251 OA
ENDBRANCH  39  40
ENDBRANCH  38  39
ENDBRANCH  24  38
ENDBRANCH  19  20
ENDBRANCH  11  19
BRANCH  13  43
ATOM     43  O   LIG A   1      -8.602   4.170 130.445  0.00  0.00    -0.426 OA
BRANCH  43  44
ATOM     44  C   LIG A   1      -7.542   5.061 130.308  0.00  0.00    +0.309 C 
ATOM     45  C   LIG A   1      -7.485   5.940 131.514  0.00  0.00    +0.136 C 
ATOM     46  O   LIG A   1      -6.773   5.135 129.358  0.00  0.00    -0.251 OA
ENDBRANCH  43  44
ENDBRANCH  13  43
BRANCH   9  47
ATOM     47  O   LIG A   1      -6.675  -2.162 128.417  0.00  0.00    -0.425 OA
BRANCH  47  48
ATOM     48  C   LIG A   1      -7.810  -2.651 128.375  0.00  0.00    +0.309 C 
ATOM     49  C   LIG A   1      -8.429  -3.253 129.427  0.00  0.00    +0.136 C 
ATOM     50  O   LIG A   1      -8.512  -2.481 127.342  0.00  0.00    -0.251 OA
ENDBRANCH  47  48
ENDBRANCH   9  47
TORSDOF 16
ENDMDL
MODEL 4
REMARK VINA RESULT:      -7.9      2.584      5.582
REMARK  Name = NuBBE_1833
REMARK  24 active torsions:
REMARK  status: ('A' for Active; 'I' for Inactive)
REMARK    1  A    between atoms: C_1  and  C_2
REMARK    2  A    between atoms: C_4  and  C_6
REMARK    3  A    between atoms: C_7  and  O_8
REMARK    4  A    between atoms: C_11  and  O_12
REMARK    5  A    between atoms: O_12  and  C_13
REMARK    6  A    between atoms: C_13  and  C_14
REMARK    7  A    between atoms: C_17  and  O_18
REMARK    8  A    between atoms: O_18  and  C_19
REMARK    9  A    between atoms: C_21  and  O_23
REMARK   10  A    between atoms: O_23  and  C_24
REMARK   11  A    between atoms: C_24  and  C_25
REMARK   12  A    between atoms: C_27  and  O_29
REMARK   13  A    between atoms: O_29  and  C_30
REMARK   14  A    between atoms: C_30  and  C_31
REMARK   15  A    between atoms: C_33  and  O_35
REMARK   16  A    between atoms: O_35  and  C_36
REMARK   17  A    between atoms: C_36  and  C_37
REMARK   18  A    between atoms: C_39  and  C_41
REMARK   19  A    between atoms: C_41  and  O_42
REMARK   20  A    between atoms: O_42  and  C_43
REMARK   21  A    between atoms: C_43  and  C_44
REMARK   22  A    between atoms: C_48  and  O_49
REMARK   23  A    between atoms: O_49  and  C_50
REMARK   24  A    between atoms: C_50  and  C_51
REMARK                            x       y       z     vdW  Elec       q    Type
REMARK                         _______ _______ _______ _____ _____    ______ ____
ROOT
ATOM      1  C   LIG A   1      -9.697  -0.147 125.898  0.00  0.00    +0.043 C 
ATOM      2  C   LIG A   1      -9.002   1.231 125.763  0.00  0.00    +0.150 C 
ATOM      3  O   LIG A   1      -9.769   1.940 124.768  0.00  0.00    -0.366 OA
ATOM      4  C   LIG A   1      -9.170   1.841 123.485  0.00  0.00    +0.149 C 
ATOM      5  C   LIG A   1      -9.004   0.386 123.046  0.00  0.00    +0.041 C 
ATOM      6  C   LIG A   1      -7.879   2.676 123.523  0.00  0.00    +0.173 C 
ATOM      7  C   LIG A   1      -6.980   2.336 124.670  0.00  0.00    -0.007 A 
ATOM      8  C   LIG A   1      -7.414   1.461 125.627  0.00  0.00    +0.030 A 
ATOM      9  C   LIG A   1      -6.363   1.092 126.524  0.00  0.00    +0.149 A 
ATOM     10  C   LIG A   1      -5.110   1.909 126.945  0.00  0.00    +0.067 A 
ATOM     11  C   LIG A   1      -4.134   2.043 128.153  0.00  0.00    +0.139 A 
ATOM     12  C   LIG A   1      -3.232   3.121 128.258  0.00  0.00    +0.092 A 
ATOM     13  C   LIG A   1      -3.179   4.086 127.276  0.00  0.00    +0.136 A 
ATOM     14  C   LIG A   1      -3.976   3.959 126.141  0.00  0.00    +0.055 A 
ATOM     15  C   LIG A   1      -4.911   2.912 125.972  0.00  0.00    -0.007 A 
ATOM     16  C   LIG A   1      -5.737   2.997 124.823  0.00  0.00    +0.015 A 
ENDROOT
BRANCH   6  17
ATOM     17  O   LIG A   1      -8.230   4.049 123.719  0.00  0.00    -0.385 OA
ATOM     18  H   LIG A   1      -8.803   4.058 124.511  0.00  0.00    +0.210 HD
ENDBRANCH   6  17
BRANCH  11  19
ATOM     19  O   LIG A   1      -4.101   1.429 129.453  0.00  0.00    -0.459 OA
BRANCH  19  20
ATOM     20  C   LIG A   1      -5.297   1.488 130.229  0.00  0.00    +0.353 C 
ATOM     21  C   LIG A   1      -5.401   1.194 131.810  0.00  0.00    +0.288 C 
ATOM     22  C   LIG A   1      -5.173   2.555 132.504  0.00  0.00    +0.266 C 
ATOM     23  C   LIG A   1      -6.090   3.766 132.102  0.00  0.00    +0.253 C 
ATOM     24  C   LIG A   1      -6.767   3.541 130.784  0.00  0.00    +0.204 C 
ATOM     25  O   LIG A   1      -5.895   2.760 129.959  0.00  0.00    -0.328 OA
BRANCH  22  26
ATOM     26  O   LIG A   1      -3.802   2.965 132.211  0.00  0.00    -0.454 OA
BRANCH  26  27
ATOM     27  C   LIG A   1      -3.124   3.514 133.249  0.00  0.00    +0.304 C 
ATOM     28  C   LIG A   1      -1.930   4.301 132.795  0.00  0.00    +0.136 C 
ATOM     29  O   LIG A   1      -3.412   3.351 134.427  0.00  0.00    -0.251 OA
ENDBRANCH  26  27
ENDBRANCH  22  26
BRANCH  23  30
ATOM     30  O   LIG A   1      -7.065   4.308 133.046  0.00  0.00    -0.455 OA
BRANCH  30  31
ATOM     31  C   LIG A   1      -6.745   5.197 134.020  0.00  0.00    +0.304 C 
ATOM     32  C   LIG A   1      -7.747   5.179 135.127  0.00  0.00    +0.136 C 
ATOM     33  O   LIG A   1      -5.736   5.883 134.101  0.00  0.00    -0.251 OA
ENDBRANCH  30  31
ENDBRANCH  23  30
BRANCH  21  34
ATOM     34  O   LIG A   1      -6.754   0.490 132.386  0.00  0.00    -0.451 OA
BRANCH  34  35
ATOM     35  C   LIG A   1      -7.909   0.034 131.757  0.00  0.00    +0.304 C 
ATOM     36  C   LIG A   1      -9.160   0.876 131.923  0.00  0.00    +0.136 C 
ATOM     37  O   LIG A   1      -8.113  -1.111 131.365  0.00  0.00    -0.251 OA
ENDBRANCH  34  35
ENDBRANCH  21  34
BRANCH  24  38
ATOM     38  C   LIG A   1      -7.259   4.804 130.085  0.00  0.00    +0.267 C 
BRANCH  38  39
ATOM     39  O   LIG A   1      -8.647   5.150 130.178  0.00  0.00    -0.462 OA
BRANCH  39  40
ATOM     40  C   LIG A   1      -9.026   6.361 130.633  0.00  0.00    +0.304 C 
ATOM     41  C   LIG A   1      -9.938   6.318 131.787  0.00  0.00    +0.136 C 
ATOM     42  O   LIG A   1      -8.542   7.460 130.307  0.00  0.00    -0.251 OA
ENDBRANCH  39  40
ENDBRANCH  38  39
ENDBRANCH  24  38
ENDBRANCH  19  20
ENDBRANCH  11  19
BRANCH  13  43
ATOM     43  O   LIG A   1      -2.464   5.290 127.420  0.00  0.00    -0.426 OA
BRANCH  43  44
ATOM     44  C   LIG A   1      -3.004   6.249 128.271  0.00  0.00    +0.309 C 
ATOM     45  C   LIG A   1      -2.082   6.448 129.429  0.00  0.00    +0.136 C 
ATOM     46  O   LIG A   1      -4.065   6.842 128.119  0.00  0.00    -0.251 OA
ENDBRANCH  43  44
ENDBRANCH  13  43
BRANCH   9  47
ATOM     47  O   LIG A   1      -6.641  -0.215 127.002  0.00  0.00    -0.425 OA
BRANCH  47  48
ATOM     48  C   LIG A   1      -5.833  -1.115 126.747  0.00  0.00    +0.309 C 
ATOM     49  C   LIG A   1      -5.528  -1.544 125.492  0.00  0.00    +0.136 C 
ATOM     50  O   LIG A   1      -5.138  -1.598 127.682  0.00  0.00    -0.251 OA
ENDBRANCH  47  48
ENDBRANCH   9  47
TORSDOF 16
ENDMDL
MODEL 5
REMARK VINA RESULT:      -7.9      2.396      8.756
REMARK  Name = NuBBE_1833
REMARK  24 active torsions:
REMARK  status: ('A' for Active; 'I' for Inactive)
REMARK    1  A    between atoms: C_1  and  C_2
REMARK    2  A    between atoms: C_4  and  C_6
REMARK    3  A    between atoms: C_7  and  O_8
REMARK    4  A    between atoms: C_11  and  O_12
REMARK    5  A    between atoms: O_12  and  C_13
REMARK    6  A    between atoms: C_13  and  C_14
REMARK    7  A    between atoms: C_17  and  O_18
REMARK    8  A    between atoms: O_18  and  C_19
REMARK    9  A    between atoms: C_21  and  O_23
REMARK   10  A    between atoms: O_23  and  C_24
REMARK   11  A    between atoms: C_24  and  C_25
REMARK   12  A    between atoms: C_27  and  O_29
REMARK   13  A    between atoms: O_29  and  C_30
REMARK   14  A    between atoms: C_30  and  C_31
REMARK   15  A    between atoms: C_33  and  O_35
REMARK   16  A    between atoms: O_35  and  C_36
REMARK   17  A    between atoms: C_36  and  C_37
REMARK   18  A    between atoms: C_39  and  C_41
REMARK   19  A    between atoms: C_41  and  O_42
REMARK   20  A    between atoms: O_42  and  C_43
REMARK   21  A    between atoms: C_43  and  C_44
REMARK   22  A    between atoms: C_48  and  O_49
REMARK   23  A    between atoms: O_49  and  C_50
REMARK   24  A    between atoms: C_50  and  C_51
REMARK                            x       y       z     vdW  Elec       q    Type
REMARK                         _______ _______ _______ _____ _____    ______ ____
ROOT
ATOM      1  C   LIG A   1      -3.587   1.881 132.910  0.00  0.00    +0.043 C 
ATOM      2  C   LIG A   1      -3.915   3.319 132.435  0.00  0.00    +0.150 C 
ATOM      3  O   LIG A   1      -2.868   4.142 132.986  0.00  0.00    -0.366 OA
ATOM      4  C   LIG A   1      -3.278   4.763 134.194  0.00  0.00    +0.149 C 
ATOM      5  C   LIG A   1      -3.712   3.738 135.241  0.00  0.00    +0.041 C 
ATOM      6  C   LIG A   1      -4.331   5.821 133.824  0.00  0.00    +0.173 C 
ATOM      7  C   LIG A   1      -5.443   5.288 132.977  0.00  0.00    -0.007 A 
ATOM      8  C   LIG A   1      -5.369   4.009 132.499  0.00  0.00    +0.030 A 
ATOM      9  C   LIG A   1      -6.598   3.598 131.892  0.00  0.00    +0.149 A 
ATOM     10  C   LIG A   1      -7.674   4.468 131.186  0.00  0.00    +0.067 A 
ATOM     11  C   LIG A   1      -8.759   4.340 130.075  0.00  0.00    +0.139 A 
ATOM     12  C   LIG A   1      -9.392   5.473 129.525  0.00  0.00    +0.092 A 
ATOM     13  C   LIG A   1      -9.074   6.737 129.974  0.00  0.00    +0.136 A 
ATOM     14  C   LIG A   1      -8.171   6.889 131.022  0.00  0.00    +0.055 A 
ATOM     15  C   LIG A   1      -7.489   5.801 131.614  0.00  0.00    -0.007 A 
ATOM     16  C   LIG A   1      -6.507   6.135 132.580  0.00  0.00    +0.015 A 
ENDROOT
BRANCH   6  17
ATOM     17  O   LIG A   1      -3.704   6.829 133.026  0.00  0.00    -0.385 OA
ATOM     18  H   LIG A   1      -3.886   7.672 133.485  0.00  0.00    +0.210 HD
ENDBRANCH   6  17
BRANCH  11  19
ATOM     19  O   LIG A   1      -9.124   3.269 129.187  0.00  0.00    -0.459 OA
BRANCH  19  20
ATOM     20  C   LIG A   1      -8.246   3.004 128.093  0.00  0.00    +0.353 C 
ATOM     21  C   LIG A   1      -6.714   2.522 128.220  0.00  0.00    +0.288 C 
ATOM     22  C   LIG A   1      -6.761   0.978 128.240  0.00  0.00    +0.266 C 
ATOM     23  C   LIG A   1      -7.483   0.234 127.059  0.00  0.00    +0.253 C 
ATOM     24  C   LIG A   1      -8.405   1.143 126.305  0.00  0.00    +0.204 C 
ATOM     25  O   LIG A   1      -8.940   2.102 127.224  0.00  0.00    -0.328 OA
BRANCH  22  26
ATOM     26  O   LIG A   1      -7.460   0.583 129.460  0.00  0.00    -0.454 OA
BRANCH  26  27
ATOM     27  C   LIG A   1      -7.083  -0.608 129.988  0.00  0.00    +0.304 C 
ATOM     28  C   LIG A   1      -5.593  -0.730 130.111  0.00  0.00    +0.136 C 
ATOM     29  O   LIG A   1      -7.858  -1.507 130.285  0.00  0.00    -0.251 OA
ENDBRANCH  26  27
ENDBRANCH  22  26
BRANCH  23  30
ATOM     30  O   LIG A   1      -6.717  -0.561 126.101  0.00  0.00    -0.455 OA
BRANCH  30  31
ATOM     31  C   LIG A   1      -6.568  -1.906 126.198  0.00  0.00    +0.304 C 
ATOM     32  C   LIG A   1      -7.733  -2.539 126.883  0.00  0.00    +0.136 C 
ATOM     33  O   LIG A   1      -5.674  -2.592 125.722  0.00  0.00    -0.251 OA
ENDBRANCH  30  31
ENDBRANCH  23  30
BRANCH  21  34
ATOM     34  O   LIG A   1      -5.640   3.036 127.107  0.00  0.00    -0.451 OA
BRANCH  34  35
ATOM     35  C   LIG A   1      -5.670   4.090 126.197  0.00  0.00    +0.304 C 
ATOM     36  C   LIG A   1      -5.641   3.726 124.725  0.00  0.00    +0.136 C 
ATOM     37  O   LIG A   1      -5.394   5.261 126.439  0.00  0.00    -0.251 OA
ENDBRANCH  34  35
ENDBRANCH  21  34
BRANCH  24  38
ATOM     38  C   LIG A   1      -9.490   0.439 125.496  0.00  0.00    +0.267 C 
BRANCH  38  39
ATOM     39  O   LIG A   1      -9.244   0.149 124.114  0.00  0.00    -0.462 OA
BRANCH  39  40
ATOM     40  C   LIG A   1      -9.862   0.851 123.143  0.00  0.00    +0.304 C 
ATOM     41  C   LIG A   1      -9.183   2.103 122.773  0.00  0.00    +0.136 C 
ATOM     42  O   LIG A   1     -10.801   0.459 122.428  0.00  0.00    -0.251 OA
ENDBRANCH  39  40
ENDBRANCH  38  39
ENDBRANCH  24  38
ENDBRANCH  19  20
ENDBRANCH  11  19
BRANCH  13  43
ATOM     43  O   LIG A   1      -9.503   7.912 129.327  0.00  0.00    -0.426 OA
BRANCH  43  44
ATOM     44  C   LIG A   1     -10.864   8.029 129.064  0.00  0.00    +0.309 C 
ATOM     45  C   LIG A   1     -11.059   8.266 127.603  0.00  0.00    +0.136 C 
ATOM     46  O   LIG A   1     -11.771   7.958 129.884  0.00  0.00    -0.251 OA
ENDBRANCH  43  44
ENDBRANCH  13  43
BRANCH   9  47
ATOM     47  O   LIG A   1      -6.704   2.191 132.040  0.00  0.00    -0.425 OA
BRANCH  47  48
ATOM     48  C   LIG A   1      -7.542   1.748 132.833  0.00  0.00    +0.309 C 
ATOM     49  C   LIG A   1      -8.864   1.589 132.550  0.00  0.00    +0.136 C 
ATOM     50  O   LIG A   1      -7.153   1.284 133.940  0.00  0.00    -0.251 OA
ENDBRANCH  47  48
ENDBRANCH   9  47
TORSDOF 16
ENDMDL
MODEL 6
REMARK VINA RESULT:      -7.8      2.227      5.872
REMARK  Name = NuBBE_1833
REMARK  24 active torsions:
REMARK  status: ('A' for Active; 'I' for Inactive)
REMARK    1  A    between atoms: C_1  and  C_2
REMARK    2  A    between atoms: C_4  and  C_6
REMARK    3  A    between atoms: C_7  and  O_8
REMARK    4  A    between atoms: C_11  and  O_12
REMARK    5  A    between atoms: O_12  and  C_13
REMARK    6  A    between atoms: C_13  and  C_14
REMARK    7  A    between atoms: C_17  and  O_18
REMARK    8  A    between atoms: O_18  and  C_19
REMARK    9  A    between atoms: C_21  and  O_23
REMARK   10  A    between atoms: O_23  and  C_24
REMARK   11  A    between atoms: C_24  and  C_25
REMARK   12  A    between atoms: C_27  and  O_29
REMARK   13  A    between atoms: O_29  and  C_30
REMARK   14  A    between atoms: C_30  and  C_31
REMARK   15  A    between atoms: C_33  and  O_35
REMARK   16  A    between atoms: O_35  and  C_36
REMARK   17  A    between atoms: C_36  and  C_37
REMARK   18  A    between atoms: C_39  and  C_41
REMARK   19  A    between atoms: C_41  and  O_42
REMARK   20  A    between atoms: O_42  and  C_43
REMARK   21  A    between atoms: C_43  and  C_44
REMARK   22  A    between atoms: C_48  and  O_49
REMARK   23  A    between atoms: O_49  and  C_50
REMARK   24  A    between atoms: C_50  and  C_51
REMARK                            x       y       z     vdW  Elec       q    Type
REMARK                         _______ _______ _______ _____ _____    ______ ____
ROOT
ATOM      1  C   LIG A   1      -9.073  -2.969 127.148  0.00  0.00    +0.043 C 
ATOM      2  C   LIG A   1      -9.140  -2.028 125.918  0.00  0.00    +0.150 C 
ATOM      3  O   LIG A   1      -9.855  -2.778 124.915  0.00  0.00    -0.366 OA
ATOM      4  C   LIG A   1      -8.965  -3.414 124.011  0.00  0.00    +0.149 C 
ATOM      5  C   LIG A   1      -7.992  -4.346 124.733  0.00  0.00    +0.041 C 
ATOM      6  C   LIG A   1      -8.318  -2.308 123.160  0.00  0.00    +0.173 C 
ATOM      7  C   LIG A   1      -7.716  -1.204 123.970  0.00  0.00    -0.007 A 
ATOM      8  C   LIG A   1      -7.902  -1.186 125.325  0.00  0.00    +0.030 A 
ATOM      9  C   LIG A   1      -7.092  -0.192 125.959  0.00  0.00    +0.149 A 
ATOM     10  C   LIG A   1      -6.572   1.153 125.381  0.00  0.00    +0.067 A 
ATOM     11  C   LIG A   1      -6.156   2.572 125.874  0.00  0.00    +0.139 A 
ATOM     12  C   LIG A   1      -5.968   3.641 124.976  0.00  0.00    +0.092 A 
ATOM     13  C   LIG A   1      -6.135   3.452 123.620  0.00  0.00    +0.136 A 
ATOM     14  C   LIG A   1      -6.425   2.181 123.132  0.00  0.00    +0.055 A 
ATOM     15  C   LIG A   1      -6.638   1.065 123.974  0.00  0.00    -0.007 A 
ATOM     16  C   LIG A   1      -7.054  -0.128 123.330  0.00  0.00    +0.015 A 
ENDROOT
BRANCH   6  17
ATOM     17  O   LIG A   1      -9.337  -1.682 122.375  0.00  0.00    -0.385 OA
ATOM     18  H   LIG A   1      -9.671  -0.947 122.926  0.00  0.00    +0.210 HD
ENDBRANCH   6  17
BRANCH  11  19
ATOM     19  O   LIG A   1      -6.177   3.200 127.168  0.00  0.00    -0.459 OA
BRANCH  19  20
ATOM     20  C   LIG A   1      -7.181   2.766 128.085  0.00  0.00    +0.353 C 
ATOM     21  C   LIG A   1      -6.914   1.926 129.433  0.00  0.00    +0.288 C 
ATOM     22  C   LIG A   1      -6.698   2.976 130.545  0.00  0.00    +0.266 C 
ATOM     23  C   LIG A   1      -7.809   4.063 130.776  0.00  0.00    +0.253 C 
ATOM     24  C   LIG A   1      -8.720   4.192 129.594  0.00  0.00    +0.204 C 
ATOM     25  O   LIG A   1      -7.961   3.921 128.411  0.00  0.00    -0.328 OA
BRANCH  22  26
ATOM     26  O   LIG A   1      -5.475   3.705 130.219  0.00  0.00    -0.454 OA
BRANCH  26  27
ATOM     27  C   LIG A   1      -4.326   2.992 130.324  0.00  0.00    +0.304 C 
ATOM     28  C   LIG A   1      -3.459   3.128 129.107  0.00  0.00    +0.136 C 
ATOM     29  O   LIG A   1      -4.042   2.277 131.274  0.00  0.00    -0.251 OA
ENDBRANCH  26  27
ENDBRANCH  22  26
BRANCH  23  30
ATOM     30  O   LIG A   1      -8.616   4.055 131.994  0.00  0.00    -0.455 OA
BRANCH  30  31
ATOM     31  C   LIG A   1      -8.806   2.949 132.757  0.00  0.00    +0.304 C 
ATOM     32  C   LIG A   1      -9.984   2.159 132.292  0.00  0.00    +0.136 C 
ATOM     33  O   LIG A   1      -8.091   2.534 133.658  0.00  0.00    -0.251 OA
ENDBRANCH  30  31
ENDBRANCH  23  30
BRANCH  21  34
ATOM     34  O   LIG A   1      -8.026   0.831 129.904  0.00  0.00    -0.451 OA
BRANCH  34  35
ATOM     35  C   LIG A   1      -7.920  -0.360 130.617  0.00  0.00    +0.304 C 
ATOM     36  C   LIG A   1      -6.981  -0.366 131.809  0.00  0.00    +0.136 C 
ATOM     37  O   LIG A   1      -8.237  -1.474 130.212  0.00  0.00    -0.251 OA
ENDBRANCH  34  35
ENDBRANCH  21  34
BRANCH  24  38
ATOM     38  C   LIG A   1      -9.488   5.508 129.508  0.00  0.00    +0.267 C 
BRANCH  38  39
ATOM     39  O   LIG A   1      -9.645   6.135 128.229  0.00  0.00    -0.462 OA
BRANCH  39  40
ATOM     40  C   LIG A   1     -10.694   6.946 127.983  0.00  0.00    +0.304 C 
ATOM     41  C   LIG A   1     -10.443   8.366 128.273  0.00  0.00    +0.136 C 
ATOM     42  O   LIG A   1     -11.738   6.645 127.378  0.00  0.00    -0.251 OA
ENDBRANCH  39  40
ENDBRANCH  38  39
ENDBRANCH  24  38
ENDBRANCH  19  20
ENDBRANCH  11  19
BRANCH  13  43
ATOM     43  O   LIG A   1      -6.175   4.513 122.696  0.00  0.00    -0.426 OA
BRANCH  43  44
ATOM     44  C   LIG A   1      -5.138   4.587 121.771  0.00  0.00    +0.309 C 
ATOM     45  C   LIG A   1      -5.681   4.311 120.407  0.00  0.00    +0.136 C 
ATOM     46  O   LIG A   1      -3.963   4.831 122.014  0.00  0.00    -0.251 OA
ENDBRANCH  43  44
ENDBRANCH  13  43
BRANCH   9  47
ATOM     47  O   LIG A   1      -6.808  -0.640 127.275  0.00  0.00    -0.425 OA
BRANCH  47  48
ATOM     48  C   LIG A   1      -5.653  -0.994 127.535  0.00  0.00    +0.309 C 
ATOM     49  C   LIG A   1      -5.152  -2.235 127.285  0.00  0.00    +0.136 C 
ATOM     50  O   LIG A   1      -4.825  -0.134 127.942  0.00  0.00    -0.251 OA
ENDBRANCH  47  48
ENDBRANCH   9  47
TORSDOF 16
ENDMDL
MODEL 7
REMARK VINA RESULT:      -7.8      2.451      8.936
REMARK  Name = NuBBE_1833
REMARK  24 active torsions:
REMARK  status: ('A' for Active; 'I' for Inactive)
REMARK    1  A    between atoms: C_1  and  C_2
REMARK    2  A    between atoms: C_4  and  C_6
REMARK    3  A    between atoms: C_7  and  O_8
REMARK    4  A    between atoms: C_11  and  O_12
REMARK    5  A    between atoms: O_12  and  C_13
REMARK    6  A    between atoms: C_13  and  C_14
REMARK    7  A    between atoms: C_17  and  O_18
REMARK    8  A    between atoms: O_18  and  C_19
REMARK    9  A    between atoms: C_21  and  O_23
REMARK   10  A    between atoms: O_23  and  C_24
REMARK   11  A    between atoms: C_24  and  C_25
REMARK   12  A    between atoms: C_27  and  O_29
REMARK   13  A    between atoms: O_29  and  C_30
REMARK   14  A    between atoms: C_30  and  C_31
REMARK   15  A    between atoms: C_33  and  O_35
REMARK   16  A    between atoms: O_35  and  C_36
REMARK   17  A    between atoms: C_36  and  C_37
REMARK   18  A    between atoms: C_39  and  C_41
REMARK   19  A    between atoms: C_41  and  O_42
REMARK   20  A    between atoms: O_42  and  C_43
REMARK   21  A    between atoms: C_43  and  C_44
REMARK   22  A    between atoms: C_48  and  O_49
REMARK   23  A    between atoms: O_49  and  C_50
REMARK   24  A    between atoms: C_50  and  C_51
REMARK                            x       y       z     vdW  Elec       q    Type
REMARK                         _______ _______ _______ _____ _____    ______ ____
ROOT
ATOM      1  C   LIG A   1      -3.996   1.531 133.475  0.00  0.00    +0.043 C 
ATOM      2  C   LIG A   1      -4.342   3.013 133.183  0.00  0.00    +0.150 C 
ATOM      3  O   LIG A   1      -3.547   3.772 134.117  0.00  0.00    -0.366 OA
ATOM      4  C   LIG A   1      -4.298   4.129 135.267  0.00  0.00    +0.149 C 
ATOM      5  C   LIG A   1      -4.867   2.901 135.977  0.00  0.00    +0.041 C 
ATOM      6  C   LIG A   1      -5.330   5.180 134.824  0.00  0.00    +0.173 C 
ATOM      7  C   LIG A   1      -6.145   4.757 133.642  0.00  0.00    -0.007 A 
ATOM      8  C   LIG A   1      -5.830   3.598 132.989  0.00  0.00    +0.030 A 
ATOM      9  C   LIG A   1      -6.827   3.244 132.026  0.00  0.00    +0.149 A 
ATOM     10  C   LIG A   1      -7.782   4.173 131.228  0.00  0.00    +0.067 A 
ATOM     11  C   LIG A   1      -8.547   4.199 129.870  0.00  0.00    +0.139 A 
ATOM     12  C   LIG A   1      -9.139   5.379 129.377  0.00  0.00    +0.092 A 
ATOM     13  C   LIG A   1      -9.067   6.551 130.101  0.00  0.00    +0.136 A 
ATOM     14  C   LIG A   1      -8.465   6.550 131.356  0.00  0.00    +0.055 A 
ATOM     15  C   LIG A   1      -7.842   5.407 131.909  0.00  0.00    -0.007 A 
ATOM     16  C   LIG A   1      -7.161   5.605 133.136  0.00  0.00    +0.015 A 
ENDROOT
BRANCH   6  17
ATOM     17  O   LIG A   1      -4.633   6.353 134.397  0.00  0.00    -0.385 OA
ATOM     18  H   LIG A   1      -3.871   6.025 133.881  0.00  0.00    +0.210 HD
ENDBRANCH   6  17
BRANCH  11  19
ATOM     19  O   LIG A   1      -8.577   3.298 128.749  0.00  0.00    -0.459 OA
BRANCH  19  20
ATOM     20  C   LIG A   1      -7.558   2.299 128.691  0.00  0.00    +0.353 C 
ATOM     21  C   LIG A   1      -7.810   0.713 128.570  0.00  0.00    +0.288 C 
ATOM     22  C   LIG A   1      -7.854   0.410 127.056  0.00  0.00    +0.266 C 
ATOM     23  C   LIG A   1      -6.634   0.850 126.167  0.00  0.00    +0.253 C 
ATOM     24  C   LIG A   1      -5.797   1.892 126.843  0.00  0.00    +0.204 C 
ATOM     25  O   LIG A   1      -6.655   2.701 127.655  0.00  0.00    -0.328 OA
BRANCH  22  26
ATOM     26  O   LIG A   1      -9.024   1.095 126.512  0.00  0.00    -0.454 OA
BRANCH  26  27
ATOM     27  C   LIG A   1      -9.606   0.496 125.444  0.00  0.00    +0.304 C 
ATOM     28  C   LIG A   1     -10.027   1.485 124.397  0.00  0.00    +0.136 C 
ATOM     29  O   LIG A   1      -9.816  -0.706 125.355  0.00  0.00    -0.251 OA
ENDBRANCH  26  27
ENDBRANCH  22  26
BRANCH  23  30
ATOM     30  O   LIG A   1      -5.752  -0.148 125.568  0.00  0.00    -0.455 OA
BRANCH  30  31
ATOM     31  C   LIG A   1      -6.125  -0.955 124.542  0.00  0.00    +0.304 C 
ATOM     32  C   LIG A   1      -5.703  -2.368 124.776  0.00  0.00    +0.136 C 
ATOM     33  O   LIG A   1      -6.805  -0.657 123.571  0.00  0.00    -0.251 OA
ENDBRANCH  30  31
ENDBRANCH  23  30
BRANCH  21  34
ATOM     34  O   LIG A   1      -6.774  -0.301 129.315  0.00  0.00    -0.451 OA
BRANCH  34  35
ATOM     35  C   LIG A   1      -6.960  -1.532 129.941  0.00  0.00    +0.304 C 
ATOM     36  C   LIG A   1      -7.920  -2.501 129.277  0.00  0.00    +0.136 C 
ATOM     37  O   LIG A   1      -6.698  -1.793 131.111  0.00  0.00    -0.251 OA
ENDBRANCH  34  35
ENDBRANCH  21  34
BRANCH  24  38
ATOM     38  C   LIG A   1      -4.919   2.722 125.912  0.00  0.00    +0.267 C 
BRANCH  38  39
ATOM     39  O   LIG A   1      -4.064   3.723 126.478  0.00  0.00    -0.462 OA
BRANCH  39  40
ATOM     40  C   LIG A   1      -3.069   3.382 127.322  0.00  0.00    +0.304 C 
ATOM     41  C   LIG A   1      -1.785   3.098 126.664  0.00  0.00    +0.136 C 
ATOM     42  O   LIG A   1      -3.086   3.474 128.563  0.00  0.00    -0.251 OA
ENDBRANCH  39  40
ENDBRANCH  38  39
ENDBRANCH  24  38
ENDBRANCH  19  20
ENDBRANCH  11  19
BRANCH  13  43
ATOM     43  O   LIG A   1      -9.443   7.802 129.576  0.00  0.00    -0.426 OA
BRANCH  43  44
ATOM     44  C   LIG A   1     -10.778   7.965 129.221  0.00  0.00    +0.309 C 
ATOM     45  C   LIG A   1     -10.858   8.317 127.772  0.00  0.00    +0.136 C 
ATOM     46  O   LIG A   1     -11.746   7.849 129.961  0.00  0.00    -0.251 OA
ENDBRANCH  43  44
ENDBRANCH  13  43
BRANCH   9  47
ATOM     47  O   LIG A   1      -6.824   1.830 131.901  0.00  0.00    -0.425 OA
BRANCH  47  48
ATOM     48  C   LIG A   1      -7.688   1.187 132.508  0.00  0.00    +0.309 C 
ATOM     49  C   LIG A   1      -8.977   1.047 132.095  0.00  0.00    +0.136 C 
ATOM     50  O   LIG A   1      -7.349   0.500 133.510  0.00  0.00    -0.251 OA
ENDBRANCH  47  48
ENDBRANCH   9  47
TORSDOF 16
ENDMDL
MODEL 8
REMARK VINA RESULT:      -7.7      2.111      6.458
REMARK  Name = NuBBE_1833
REMARK  24 active torsions:
REMARK  status: ('A' for Active; 'I' for Inactive)
REMARK    1  A    between atoms: C_1  and  C_2
REMARK    2  A    between atoms: C_4  and  C_6
REMARK    3  A    between atoms: C_7  and  O_8
REMARK    4  A    between atoms: C_11  and  O_12
REMARK    5  A    between atoms: O_12  and  C_13
REMARK    6  A    between atoms: C_13  and  C_14
REMARK    7  A    between atoms: C_17  and  O_18
REMARK    8  A    between atoms: O_18  and  C_19
REMARK    9  A    between atoms: C_21  and  O_23
REMARK   10  A    between atoms: O_23  and  C_24
REMARK   11  A    between atoms: C_24  and  C_25
REMARK   12  A    between atoms: C_27  and  O_29
REMARK   13  A    between atoms: O_29  and  C_30
REMARK   14  A    between atoms: C_30  and  C_31
REMARK   15  A    between atoms: C_33  and  O_35
REMARK   16  A    between atoms: O_35  and  C_36
REMARK   17  A    between atoms: C_36  and  C_37
REMARK   18  A    between atoms: C_39  and  C_41
REMARK   19  A    between atoms: C_41  and  O_42
REMARK   20  A    between atoms: O_42  and  C_43
REMARK   21  A    between atoms: C_43  and  C_44
REMARK   22  A    between atoms: C_48  and  O_49
REMARK   23  A    between atoms: O_49  and  C_50
REMARK   24  A    between atoms: C_50  and  C_51
REMARK                            x       y       z     vdW  Elec       q    Type
REMARK                         _______ _______ _______ _____ _____    ______ ____
ROOT
ATOM      1  C   LIG A   1      -6.753  -2.291 134.298  0.00  0.00    +0.043 C 
ATOM      2  C   LIG A   1      -6.831  -2.996 132.920  0.00  0.00    +0.150 C 
ATOM      3  O   LIG A   1      -6.415  -4.354 133.172  0.00  0.00    -0.366 OA
ATOM      4  C   LIG A   1      -5.043  -4.541 132.861  0.00  0.00    +0.149 C 
ATOM      5  C   LIG A   1      -4.146  -3.588 133.651  0.00  0.00    +0.041 C 
ATOM      6  C   LIG A   1      -4.911  -4.464 131.331  0.00  0.00    +0.173 C 
ATOM      7  C   LIG A   1      -5.533  -3.239 130.738  0.00  0.00    -0.007 A 
ATOM      8  C   LIG A   1      -6.259  -2.400 131.538  0.00  0.00    +0.030 A 
ATOM      9  C   LIG A   1      -6.599  -1.185 130.862  0.00  0.00    +0.149 A 
ATOM     10  C   LIG A   1      -6.816  -0.945 129.343  0.00  0.00    +0.067 A 
ATOM     11  C   LIG A   1      -7.614   0.001 128.396  0.00  0.00    +0.139 A 
ATOM     12  C   LIG A   1      -7.745  -0.269 127.019  0.00  0.00    +0.092 A 
ATOM     13  C   LIG A   1      -7.150  -1.384 126.467  0.00  0.00    +0.136 A 
ATOM     14  C   LIG A   1      -6.360  -2.209 127.262  0.00  0.00    +0.055 A 
ATOM     15  C   LIG A   1      -6.193  -2.006 128.652  0.00  0.00    -0.007 A 
ATOM     16  C   LIG A   1      -5.465  -3.008 129.342  0.00  0.00    +0.015 A 
ENDROOT
BRANCH   6  17
ATOM     17  O   LIG A   1      -5.626  -5.560 130.755  0.00  0.00    -0.385 OA
ATOM     18  H   LIG A   1      -6.143  -5.945 131.490  0.00  0.00    +0.210 HD
ENDBRANCH   6  17
BRANCH  11  19
ATOM     19  O   LIG A   1      -8.573   1.045 128.640  0.00  0.00    -0.459 OA
BRANCH  19  20
ATOM     20  C   LIG A   1      -8.198   2.069 129.562  0.00  0.00    +0.353 C 
ATOM     21  C   LIG A   1      -7.000   3.124 129.348  0.00  0.00    +0.288 C 
ATOM     22  C   LIG A   1      -7.634   4.338 128.632  0.00  0.00    +0.266 C 
ATOM     23  C   LIG A   1      -8.878   5.034 129.295  0.00  0.00    +0.253 C 
ATOM     24  C   LIG A   1      -9.542   4.148 130.305  0.00  0.00    +0.204 C 
ATOM     25  O   LIG A   1      -9.394   2.790 129.877  0.00  0.00    -0.328 OA
BRANCH  22  26
ATOM     26  O   LIG A   1      -8.073   3.882 127.316  0.00  0.00    -0.454 OA
BRANCH  26  27
ATOM     27  C   LIG A   1      -7.187   4.075 126.307  0.00  0.00    +0.304 C 
ATOM     28  C   LIG A   1      -7.247   2.982 125.281  0.00  0.00    +0.136 C 
ATOM     29  O   LIG A   1      -6.390   5.001 126.256  0.00  0.00    -0.251 OA
ENDBRANCH  26  27
ENDBRANCH  22  26
BRANCH  23  30
ATOM     30  O   LIG A   1      -8.770   6.382 129.848  0.00  0.00    -0.455 OA
BRANCH  30  31
ATOM     31  C   LIG A   1      -8.318   6.640 131.101  0.00  0.00    +0.304 C 
ATOM     32  C   LIG A   1      -6.865   6.984 131.098  0.00  0.00    +0.136 C 
ATOM     33  O   LIG A   1      -8.973   6.701 132.132  0.00  0.00    -0.251 OA
ENDBRANCH  30  31
ENDBRANCH  23  30
BRANCH  21  34
ATOM     34  O   LIG A   1      -6.155   3.620 130.651  0.00  0.00    -0.451 OA
BRANCH  34  35
ATOM     35  C   LIG A   1      -4.814   3.959 130.820  0.00  0.00    +0.304 C 
ATOM     36  C   LIG A   1      -3.938   3.933 129.582  0.00  0.00    +0.136 C 
ATOM     37  O   LIG A   1      -4.199   3.958 131.882  0.00  0.00    -0.251 OA
ENDBRANCH  34  35
ENDBRANCH  21  34
BRANCH  24  38
ATOM     38  C   LIG A   1     -10.990   4.506 130.627  0.00  0.00    +0.267 C 
BRANCH  38  39
ATOM     39  O   LIG A   1     -11.714   5.345 129.718  0.00  0.00    -0.462 OA
BRANCH  39  40
ATOM     40  C   LIG A   1     -12.400   6.415 130.168  0.00  0.00    +0.304 C 
ATOM     41  C   LIG A   1     -13.147   7.138 129.126  0.00  0.00    +0.136 C 
ATOM     42  O   LIG A   1     -12.610   6.716 131.356  0.00  0.00    -0.251 OA
ENDBRANCH  39  40
ENDBRANCH  38  39
ENDBRANCH  24  38
ENDBRANCH  19  20
ENDBRANCH  11  19
BRANCH  13  43
ATOM     43  O   LIG A   1      -7.416  -1.828 125.157  0.00  0.00    -0.426 OA
BRANCH  43  44
ATOM     44  C   LIG A   1      -8.489  -2.698 124.990  0.00  0.00    +0.309 C 
ATOM     45  C   LIG A   1      -7.978  -4.010 124.492  0.00  0.00    +0.136 C 
ATOM     46  O   LIG A   1      -9.668  -2.448 125.204  0.00  0.00    -0.251 OA
ENDBRANCH  43  44
ENDBRANCH  13  43
BRANCH   9  47
ATOM     47  O   LIG A   1      -6.712  -0.164 131.840  0.00  0.00    -0.425 OA
BRANCH  47  48
ATOM     48  C   LIG A   1      -5.701   0.487 132.126  0.00  0.00    +0.309 C 
ATOM     49  C   LIG A   1      -5.467   1.055 133.341  0.00  0.00    +0.136 C 
ATOM     50  O   LIG A   1      -4.751   0.537 131.299  0.00  0.00    -0.251 OA
ENDBRANCH  47  48
ENDBRANCH   9  47
TORSDOF 16
ENDMDL
MODEL 9
REMARK VINA RESULT:      -7.6      1.639      3.388
REMARK  Name = NuBBE_1833
REMARK  24 active torsions:
REMARK  status: ('A' for Active; 'I' for Inactive)
REMARK    1  A    between atoms: C_1  and  C_2
REMARK    2  A    between atoms: C_4  and  C_6
REMARK    3  A    between atoms: C_7  and  O_8
REMARK    4  A    between atoms: C_11  and  O_12
REMARK    5  A    between atoms: O_12  and  C_13
REMARK    6  A    between atoms: C_13  and  C_14
REMARK    7  A    between atoms: C_17  and  O_18
REMARK    8  A    between atoms: O_18  and  C_19
REMARK    9  A    between atoms: C_21  and  O_23
REMARK   10  A    between atoms: O_23  and  C_24
REMARK   11  A    between atoms: C_24  and  C_25
REMARK   12  A    between atoms: C_27  and  O_29
REMARK   13  A    between atoms: O_29  and  C_30
REMARK   14  A    between atoms: C_30  and  C_31
REMARK   15  A    between atoms: C_33  and  O_35
REMARK   16  A    between atoms: O_35  and  C_36
REMARK   17  A    between atoms: C_36  and  C_37
REMARK   18  A    between atoms: C_39  and  C_41
REMARK   19  A    between atoms: C_41  and  O_42
REMARK   20  A    between atoms: O_42  and  C_43
REMARK   21  A    between atoms: C_43  and  C_44
REMARK   22  A    between atoms: C_48  and  O_49
REMARK   23  A    between atoms: O_49  and  C_50
REMARK   24  A    between atoms: C_50  and  C_51
REMARK                            x       y       z     vdW  Elec       q    Type
REMARK                         _______ _______ _______ _____ _____    ______ ____
ROOT
ATOM      1  C   LIG A   1      -6.789   0.062 123.206  0.00  0.00    +0.043 C 
ATOM      2  C   LIG A   1      -6.829  -1.194 124.114  0.00  0.00    +0.150 C 
ATOM      3  O   LIG A   1      -7.143  -2.286 123.226  0.00  0.00    -0.366 OA
ATOM      4  C   LIG A   1      -8.529  -2.588 123.246  0.00  0.00    +0.149 C 
ATOM      5  C   LIG A   1      -9.380  -1.376 122.869  0.00  0.00    +0.041 C 
ATOM      6  C   LIG A   1      -8.835  -3.215 124.617  0.00  0.00    +0.173 C 
ATOM      7  C   LIG A   1      -8.348  -2.397 125.771  0.00  0.00    -0.007 A 
ATOM      8  C   LIG A   1      -7.582  -1.289 125.534  0.00  0.00    +0.030 A 
ATOM      9  C   LIG A   1      -7.383  -0.517 126.722  0.00  0.00    +0.149 A 
ATOM     10  C   LIG A   1      -7.351  -0.996 128.200  0.00  0.00    +0.067 A 
ATOM     11  C   LIG A   1      -6.714  -0.588 129.563  0.00  0.00    +0.139 A 
ATOM     12  C   LIG A   1      -6.724  -1.456 130.673  0.00  0.00    +0.092 A 
ATOM     13  C   LIG A   1      -7.318  -2.697 130.583  0.00  0.00    +0.136 A 
ATOM     14  C   LIG A   1      -7.970  -3.066 129.409  0.00  0.00    +0.055 A 
ATOM     15  C   LIG A   1      -7.991  -2.252 128.253  0.00  0.00    -0.007 A 
ATOM     16  C   LIG A   1      -8.583  -2.827 127.101  0.00  0.00    +0.015 A 
ENDROOT
BRANCH   6  17
ATOM     17  O   LIG A   1      -8.132  -4.457 124.718  0.00  0.00    -0.385 OA
ATOM     18  H   LIG A   1      -7.406  -4.395 124.067  0.00  0.00    +0.210 HD
ENDBRANCH   6  17
BRANCH  11  19
ATOM     19  O   LIG A   1      -5.790   0.449 129.937  0.00  0.00    -0.459 OA
BRANCH  19  20
ATOM     20  C   LIG A   1      -6.161   1.286 131.032  0.00  0.00    +0.353 C 
ATOM     21  C   LIG A   1      -5.145   2.157 131.928  0.00  0.00    +0.288 C 
ATOM     22  C   LIG A   1      -5.042   3.531 131.228  0.00  0.00    +0.266 C 
ATOM     23  C   LIG A   1      -6.366   4.331 130.949  0.00  0.00    +0.253 C 
ATOM     24  C   LIG A   1      -7.575   3.449 131.007  0.00  0.00    +0.204 C 
ATOM     25  O   LIG A   1      -7.201   2.144 130.553  0.00  0.00    -0.328 OA
BRANCH  22  26
ATOM     26  O   LIG A   1      -4.417   3.307 129.927  0.00  0.00    -0.454 OA
BRANCH  26  27
ATOM     27  C   LIG A   1      -3.404   4.153 129.613  0.00  0.00    +0.304 C 
ATOM     28  C   LIG A   1      -3.216   4.290 128.132  0.00  0.00    +0.136 C 
ATOM     29  O   LIG A   1      -2.686   4.706 130.436  0.00  0.00    -0.251 OA
ENDBRANCH  26  27
ENDBRANCH  22  26
BRANCH  23  30
ATOM     30  O   LIG A   1      -6.651   5.571 131.667  0.00  0.00    -0.455 OA
BRANCH  30  31
ATOM     31  C   LIG A   1      -6.587   6.799 131.092  0.00  0.00    +0.304 C 
ATOM     32  C   LIG A   1      -5.174   7.237 130.893  0.00  0.00    +0.136 C 
ATOM     33  O   LIG A   1      -7.517   7.474 130.673  0.00  0.00    -0.251 OA
ENDBRANCH  30  31
ENDBRANCH  23  30
BRANCH  21  34
ATOM     34  O   LIG A   1      -5.475   2.358 133.511  0.00  0.00    -0.451 OA
BRANCH  34  35
ATOM     35  C   LIG A   1      -5.752   1.449 134.529  0.00  0.00    +0.304 C 
ATOM     36  C   LIG A   1      -4.807   1.438 135.716  0.00  0.00    +0.136 C 
ATOM     37  O   LIG A   1      -6.463   0.453 134.434  0.00  0.00    -0.251 OA
ENDBRANCH  34  35
ENDBRANCH  21  34
BRANCH  24  38
ATOM     38  C   LIG A   1      -8.806   3.990 130.286  0.00  0.00    +0.267 C 
BRANCH  38  39
ATOM     39  O   LIG A   1      -9.914   4.458 131.065  0.00  0.00    -0.462 OA
BRANCH  39  40
ATOM     40  C   LIG A   1     -10.865   5.238 130.511  0.00  0.00    +0.304 C 
ATOM     41  C   LIG A   1     -10.859   6.631 130.985  0.00  0.00    +0.136 C 
ATOM     42  O   LIG A   1     -11.584   4.952 129.538  0.00  0.00    -0.251 OA
ENDBRANCH  39  40
ENDBRANCH  38  39
ENDBRANCH  24  38
ENDBRANCH  19  20
ENDBRANCH  11  19
BRANCH  13  43
ATOM     43  O   LIG A   1      -7.177  -3.689 131.572  0.00  0.00    -0.426 OA
BRANCH  43  44
ATOM     44  C   LIG A   1      -5.937  -3.791 132.194  0.00  0.00    +0.309 C 
ATOM     45  C   LIG A   1      -5.078  -4.734 131.418  0.00  0.00    +0.136 C 
ATOM     46  O   LIG A   1      -5.587  -3.214 133.216  0.00  0.00    -0.251 OA
ENDBRANCH  43  44
ENDBRANCH  13  43
BRANCH   9  47
ATOM     47  O   LIG A   1      -7.215   0.837 126.334  0.00  0.00    -0.425 OA
BRANCH  47  48
ATOM     48  C   LIG A   1      -6.210   1.439 126.731  0.00  0.00    +0.309 C 
ATOM     49  C   LIG A   1      -4.934   1.128 126.374  0.00  0.00    +0.136 C 
ATOM     50  O   LIG A   1      -6.355   2.493 127.408  0.00  0.00    -0.251 OA
ENDBRANCH  47  48
ENDBRANCH   9  47
TORSDOF 16
ENDMDL
