MODEL 1
REMARK VINA RESULT:      -7.6      0.000      0.000
REMARK  Name = NuBBE_2485
REMARK  5 active torsions:
REMARK  status: ('A' for Active; 'I' for Inactive)
REMARK    1  A    between atoms: C_12  and  O_16
REMARK    2  A    between atoms: C_13  and  O_15
REMARK    3  A    between atoms: C_20  and  O_21
REMARK    4  A    between atoms: O_21  and  C_22
REMARK    5  A    between atoms: C_24  and  O_26
REMARK                            x       y       z     vdW  Elec       q    Type
REMARK                         _______ _______ _______ _____ _____    ______ ____
ROOT
ATOM      1  O   LIG A   1      -8.252   3.080 126.523  0.00  0.00    -0.289 OA
ATOM      2  C   LIG A   1      -8.122   2.498 125.451  0.00  0.00    +0.203 C 
ATOM      3  C   LIG A   1      -7.616   3.221 124.224  0.00  0.00    +0.234 C 
ATOM      4  C   LIG A   1      -8.529   2.830 123.065  0.00  0.00    +0.240 C 
ATOM      5  C   LIG A   1      -8.006   3.457 121.788  0.00  0.00    +0.005 A 
ATOM      6  C   LIG A   1      -6.645   3.831 121.701  0.00  0.00    -0.011 A 
ATOM      7  C   LIG A   1      -5.725   3.684 122.895  0.00  0.00    +0.196 C 
ATOM      8  O   LIG A   1      -6.262   2.868 123.941  0.00  0.00    -0.360 OA
ATOM      9  C   LIG A   1      -6.152   4.392 120.511  0.00  0.00    +0.055 A 
ATOM     10  C   LIG A   1      -7.007   4.557 119.426  0.00  0.00    +0.159 A 
ATOM     11  C   LIG A   1      -8.343   4.175 119.516  0.00  0.00    +0.159 A 
ATOM     12  C   LIG A   1      -8.850   3.623 120.682  0.00  0.00    +0.057 A 
ATOM     13  O   LIG A   1      -8.552   1.418 122.825  0.00  0.00    -0.480 OA
ATOM     14  C   LIG A   1      -8.676   0.634 123.940  0.00  0.00    +0.139 A 
ATOM     15  C   LIG A   1      -8.484   1.071 125.256  0.00  0.00    +0.103 A 
ATOM     16  C   LIG A   1      -8.627   0.169 126.331  0.00  0.00    +0.138 A 
ATOM     17  C   LIG A   1      -8.964  -1.164 126.060  0.00  0.00    +0.092 A 
ATOM     18  C   LIG A   1      -9.146  -1.583 124.744  0.00  0.00    +0.124 A 
ATOM     19  C   LIG A   1      -8.999  -0.698 123.687  0.00  0.00    +0.092 A 
ENDROOT
BRANCH  11  20
ATOM     20  O   LIG A   1      -9.172   4.341 118.442  0.00  0.00    -0.503 OA
ATOM     21  H   LIG A   1     -10.007   3.907 118.708  0.00  0.00    +0.292 HD
ENDBRANCH  11  20
BRANCH  10  22
ATOM     22  O   LIG A   1      -6.579   5.093 118.244  0.00  0.00    -0.503 OA
ATOM     23  H   LIG A   1      -6.704   6.057 118.282  0.00  0.00    +0.292 HD
ENDBRANCH  10  22
BRANCH  16  24
ATOM     24  O   LIG A   1      -8.393   0.647 127.591  0.00  0.00    -0.494 OA
ATOM     25  C   LIG A   1      -7.306   0.113 128.331  0.00  0.00    +0.277 C 
ENDBRANCH  16  24
BRANCH  18  26
ATOM     26  O   LIG A   1      -9.468  -2.875 124.447  0.00  0.00    -0.506 OA
ATOM     27  H   LIG A   1     -10.149  -3.189 125.065  0.00  0.00    +0.292 HD
ENDBRANCH  18  26
TORSDOF 4
ENDMDL
MODEL 2
REMARK VINA RESULT:      -7.1      8.025      9.670
REMARK  Name = NuBBE_2485
REMARK  5 active torsions:
REMARK  status: ('A' for Active; 'I' for Inactive)
REMARK    1  A    between atoms: C_12  and  O_16
REMARK    2  A    between atoms: C_13  and  O_15
REMARK    3  A    between atoms: C_20  and  O_21
REMARK    4  A    between atoms: O_21  and  C_22
REMARK    5  A    between atoms: C_24  and  O_26
REMARK                            x       y       z     vdW  Elec       q    Type
REMARK                         _______ _______ _______ _____ _____    ______ ____
ROOT
ATOM      1  O   LIG A   1      -8.535   3.091 132.238  0.00  0.00    -0.289 OA
ATOM      2  C   LIG A   1      -8.438   4.268 131.905  0.00  0.00    +0.203 C 
ATOM      3  C   LIG A   1      -9.630   5.032 131.375  0.00  0.00    +0.234 C 
ATOM      4  C   LIG A   1      -9.159   5.793 130.137  0.00  0.00    +0.240 C 
ATOM      5  C   LIG A   1     -10.297   6.651 129.621  0.00  0.00    +0.005 A 
ATOM      6  C   LIG A   1     -11.339   7.029 130.498  0.00  0.00    -0.011 A 
ATOM      7  C   LIG A   1     -11.372   6.521 131.925  0.00  0.00    +0.196 C 
ATOM      8  O   LIG A   1     -10.142   5.933 132.357  0.00  0.00    -0.360 OA
ATOM      9  C   LIG A   1     -12.383   7.843 130.028  0.00  0.00    +0.055 A 
ATOM     10  C   LIG A   1     -12.369   8.281 128.708  0.00  0.00    +0.159 A 
ATOM     11  C   LIG A   1     -11.332   7.915 127.854  0.00  0.00    +0.159 A 
ATOM     12  C   LIG A   1     -10.294   7.110 128.297  0.00  0.00    +0.057 A 
ATOM     13  O   LIG A   1      -8.083   6.697 130.415  0.00  0.00    -0.480 OA
ATOM     14  C   LIG A   1      -7.076   6.192 131.192  0.00  0.00    +0.139 A 
ATOM     15  C   LIG A   1      -7.159   5.020 131.953  0.00  0.00    +0.103 A 
ATOM     16  C   LIG A   1      -6.058   4.600 132.729  0.00  0.00    +0.138 A 
ATOM     17  C   LIG A   1      -4.888   5.371 132.724  0.00  0.00    +0.092 A 
ATOM     18  C   LIG A   1      -4.826   6.537 131.966  0.00  0.00    +0.124 A 
ATOM     19  C   LIG A   1      -5.909   6.954 131.207  0.00  0.00    +0.092 A 
ENDROOT
BRANCH  11  20
ATOM     20  O   LIG A   1     -11.328   8.353 126.560  0.00  0.00    -0.503 OA
ATOM     21  H   LIG A   1     -11.545   9.305 126.623  0.00  0.00    +0.292 HD
ENDBRANCH  11  20
BRANCH  10  22
ATOM     22  O   LIG A   1     -13.357   9.078 128.200  0.00  0.00    -0.503 OA
ATOM     23  H   LIG A   1     -14.209   8.629 128.331  0.00  0.00    +0.292 HD
ENDBRANCH  10  22
BRANCH  16  24
ATOM     24  O   LIG A   1      -6.211   3.465 133.478  0.00  0.00    -0.494 OA
ATOM     25  C   LIG A   1      -5.985   3.537 134.878  0.00  0.00    +0.277 C 
ENDBRANCH  16  24
BRANCH  18  26
ATOM     26  O   LIG A   1      -3.704   7.313 131.944  0.00  0.00    -0.506 OA
ATOM     27  H   LIG A   1      -3.921   8.205 132.264  0.00  0.00    +0.292 HD
ENDBRANCH  18  26
TORSDOF 4
ENDMDL
MODEL 3
REMARK VINA RESULT:      -7.1      7.400     10.956
REMARK  Name = NuBBE_2485
REMARK  5 active torsions:
REMARK  status: ('A' for Active; 'I' for Inactive)
REMARK    1  A    between atoms: C_12  and  O_16
REMARK    2  A    between atoms: C_13  and  O_15
REMARK    3  A    between atoms: C_20  and  O_21
REMARK    4  A    between atoms: O_21  and  C_22
REMARK    5  A    between atoms: C_24  and  O_26
REMARK                            x       y       z     vdW  Elec       q    Type
REMARK                         _______ _______ _______ _____ _____    ______ ____
ROOT
ATOM      1  O   LIG A   1      -8.690   5.187 128.186  0.00  0.00    -0.289 OA
ATOM      2  C   LIG A   1      -8.783   5.592 129.341  0.00  0.00    +0.203 C 
ATOM      3  C   LIG A   1      -7.590   5.591 130.268  0.00  0.00    +0.234 C 
ATOM      4  C   LIG A   1      -8.061   5.017 131.603  0.00  0.00    +0.240 C 
ATOM      5  C   LIG A   1      -6.921   5.082 132.600  0.00  0.00    +0.005 A 
ATOM      6  C   LIG A   1      -5.875   6.011 132.404  0.00  0.00    -0.011 A 
ATOM      7  C   LIG A   1      -5.839   6.887 131.169  0.00  0.00    +0.196 C 
ATOM      8  O   LIG A   1      -7.071   6.909 130.442  0.00  0.00    -0.360 OA
ATOM      9  C   LIG A   1      -4.829   6.089 133.339  0.00  0.00    +0.055 A 
ATOM     10  C   LIG A   1      -4.846   5.260 134.456  0.00  0.00    +0.159 A 
ATOM     11  C   LIG A   1      -5.887   4.356 134.649  0.00  0.00    +0.159 A 
ATOM     12  C   LIG A   1      -6.926   4.261 133.737  0.00  0.00    +0.057 A 
ATOM     13  O   LIG A   1      -9.132   5.769 132.185  0.00  0.00    -0.480 OA
ATOM     14  C   LIG A   1     -10.139   6.120 131.328  0.00  0.00    +0.139 A 
ATOM     15  C   LIG A   1     -10.059   6.069 129.931  0.00  0.00    +0.103 A 
ATOM     16  C   LIG A   1     -11.159   6.468 129.143  0.00  0.00    +0.138 A 
ATOM     17  C   LIG A   1     -12.326   6.913 129.779  0.00  0.00    +0.092 A 
ATOM     18  C   LIG A   1     -12.386   6.963 131.169  0.00  0.00    +0.124 A 
ATOM     19  C   LIG A   1     -11.303   6.576 131.944  0.00  0.00    +0.092 A 
ENDROOT
BRANCH  11  20
ATOM     20  O   LIG A   1      -5.892   3.549 135.751  0.00  0.00    -0.503 OA
ATOM     21  H   LIG A   1      -6.825   3.541 136.044  0.00  0.00    +0.292 HD
ENDBRANCH  11  20
BRANCH  10  22
ATOM     22  O   LIG A   1      -3.856   5.298 135.399  0.00  0.00    -0.503 OA
ATOM     23  H   LIG A   1      -2.998   5.283 134.941  0.00  0.00    +0.292 HD
ENDBRANCH  10  22
BRANCH  16  24
ATOM     24  O   LIG A   1     -11.008   6.428 127.783  0.00  0.00    -0.494 OA
ATOM     25  C   LIG A   1     -10.967   7.654 127.066  0.00  0.00    +0.277 C 
ENDBRANCH  16  24
BRANCH  18  26
ATOM     26  O   LIG A   1     -13.504   7.396 131.818  0.00  0.00    -0.506 OA
ATOM     27  H   LIG A   1     -13.839   8.199 131.385  0.00  0.00    +0.292 HD
ENDBRANCH  18  26
TORSDOF 4
ENDMDL
MODEL 4
REMARK VINA RESULT:      -7.0      2.816      7.517
REMARK  Name = NuBBE_2485
REMARK  5 active torsions:
REMARK  status: ('A' for Active; 'I' for Inactive)
REMARK    1  A    between atoms: C_12  and  O_16
REMARK    2  A    between atoms: C_13  and  O_15
REMARK    3  A    between atoms: C_20  and  O_21
REMARK    4  A    between atoms: O_21  and  C_22
REMARK    5  A    between atoms: C_24  and  O_26
REMARK                            x       y       z     vdW  Elec       q    Type
REMARK                         _______ _______ _______ _____ _____    ______ ____
ROOT
ATOM      1  O   LIG A   1      -5.907   3.862 125.312  0.00  0.00    -0.289 OA
ATOM      2  C   LIG A   1      -6.975   3.427 125.734  0.00  0.00    +0.203 C 
ATOM      3  C   LIG A   1      -7.357   3.569 127.189  0.00  0.00    +0.234 C 
ATOM      4  C   LIG A   1      -7.892   2.213 127.646  0.00  0.00    +0.240 C 
ATOM      5  C   LIG A   1      -8.378   2.330 129.076  0.00  0.00    +0.005 A 
ATOM      6  C   LIG A   1      -8.741   3.596 129.589  0.00  0.00    -0.011 A 
ATOM      7  C   LIG A   1      -8.574   4.847 128.752  0.00  0.00    +0.196 C 
ATOM      8  O   LIG A   1      -8.345   4.586 127.364  0.00  0.00    -0.360 OA
ATOM      9  C   LIG A   1      -9.214   3.703 130.908  0.00  0.00    +0.055 A 
ATOM     10  C   LIG A   1      -9.335   2.556 131.688  0.00  0.00    +0.159 A 
ATOM     11  C   LIG A   1      -8.987   1.311 131.171  0.00  0.00    +0.159 A 
ATOM     12  C   LIG A   1      -8.516   1.185 129.873  0.00  0.00    +0.057 A 
ATOM     13  O   LIG A   1      -9.022   1.775 126.883  0.00  0.00    -0.480 OA
ATOM     14  C   LIG A   1      -8.908   1.916 125.527  0.00  0.00    +0.139 A 
ATOM     15  C   LIG A   1      -7.946   2.700 124.878  0.00  0.00    +0.103 A 
ATOM     16  C   LIG A   1      -7.930   2.781 123.470  0.00  0.00    +0.138 A 
ATOM     17  C   LIG A   1      -8.888   2.067 122.736  0.00  0.00    +0.092 A 
ATOM     18  C   LIG A   1      -9.841   1.298 123.398  0.00  0.00    +0.124 A 
ATOM     19  C   LIG A   1      -9.861   1.222 124.783  0.00  0.00    +0.092 A 
ENDROOT
BRANCH  11  20
ATOM     20  O   LIG A   1      -9.112   0.193 131.946  0.00  0.00    -0.503 OA
ATOM     21  H   LIG A   1      -9.526  -0.468 131.356  0.00  0.00    +0.292 HD
ENDBRANCH  11  20
BRANCH  10  22
ATOM     22  O   LIG A   1      -9.793   2.603 132.975  0.00  0.00    -0.503 OA
ATOM     23  H   LIG A   1     -10.743   2.812 132.954  0.00  0.00    +0.292 HD
ENDBRANCH  10  22
BRANCH  16  24
ATOM     24  O   LIG A   1      -6.987   3.590 122.896  0.00  0.00    -0.494 OA
ATOM     25  C   LIG A   1      -6.840   3.569 121.484  0.00  0.00    +0.277 C 
ENDBRANCH  16  24
BRANCH  18  26
ATOM     26  O   LIG A   1     -10.789   0.596 122.714  0.00  0.00    -0.506 OA
ATOM     27  H   LIG A   1     -11.395   0.172 123.344  0.00  0.00    +0.292 HD
ENDBRANCH  18  26
TORSDOF 4
ENDMDL
MODEL 5
REMARK VINA RESULT:      -6.9      6.980      8.192
REMARK  Name = NuBBE_2485
REMARK  5 active torsions:
REMARK  status: ('A' for Active; 'I' for Inactive)
REMARK    1  A    between atoms: C_12  and  O_16
REMARK    2  A    between atoms: C_13  and  O_15
REMARK    3  A    between atoms: C_20  and  O_21
REMARK    4  A    between atoms: O_21  and  C_22
REMARK    5  A    between atoms: C_24  and  O_26
REMARK                            x       y       z     vdW  Elec       q    Type
REMARK                         _______ _______ _______ _____ _____    ______ ____
ROOT
ATOM      1  O   LIG A   1      -9.035   3.226 133.784  0.00  0.00    -0.289 OA
ATOM      2  C   LIG A   1      -9.039   3.397 132.569  0.00  0.00    +0.203 C 
ATOM      3  C   LIG A   1      -9.496   4.705 131.965  0.00  0.00    +0.234 C 
ATOM      4  C   LIG A   1     -10.429   4.362 130.806  0.00  0.00    +0.240 C 
ATOM      5  C   LIG A   1     -10.841   5.641 130.107  0.00  0.00    +0.005 A 
ATOM      6  C   LIG A   1     -10.031   6.793 130.224  0.00  0.00    -0.011 A 
ATOM      7  C   LIG A   1      -8.798   6.785 131.104  0.00  0.00    +0.196 C 
ATOM      8  O   LIG A   1      -8.385   5.477 131.507  0.00  0.00    -0.360 OA
ATOM      9  C   LIG A   1     -10.399   7.974 129.557  0.00  0.00    +0.055 A 
ATOM     10  C   LIG A   1     -11.550   7.989 128.776  0.00  0.00    +0.159 A 
ATOM     11  C   LIG A   1     -12.337   6.847 128.656  0.00  0.00    +0.159 A 
ATOM     12  C   LIG A   1     -11.993   5.673 129.307  0.00  0.00    +0.057 A 
ATOM     13  O   LIG A   1      -9.799   3.554 129.804  0.00  0.00    -0.480 OA
ATOM     14  C   LIG A   1      -9.062   2.502 130.275  0.00  0.00    +0.139 A 
ATOM     15  C   LIG A   1      -8.643   2.343 131.602  0.00  0.00    +0.103 A 
ATOM     16  C   LIG A   1      -7.874   1.220 131.972  0.00  0.00    +0.138 A 
ATOM     17  C   LIG A   1      -7.537   0.273 130.995  0.00  0.00    +0.092 A 
ATOM     18  C   LIG A   1      -7.957   0.451 129.679  0.00  0.00    +0.124 A 
ATOM     19  C   LIG A   1      -8.708   1.557 129.313  0.00  0.00    +0.092 A 
ENDROOT
BRANCH  11  20
ATOM     20  O   LIG A   1     -13.464   6.874 127.884  0.00  0.00    -0.503 OA
ATOM     21  H   LIG A   1     -13.340   6.145 127.244  0.00  0.00    +0.292 HD
ENDBRANCH  11  20
BRANCH  10  22
ATOM     22  O   LIG A   1     -11.952   9.110 128.103  0.00  0.00    -0.503 OA
ATOM     23  H   LIG A   1     -11.221   9.402 127.533  0.00  0.00    +0.292 HD
ENDBRANCH  10  22
BRANCH  16  24
ATOM     24  O   LIG A   1      -7.467   1.138 133.276  0.00  0.00    -0.494 OA
ATOM     25  C   LIG A   1      -6.074   1.136 133.556  0.00  0.00    +0.277 C 
ENDBRANCH  16  24
BRANCH  18  26
ATOM     26  O   LIG A   1      -7.641  -0.449 128.704  0.00  0.00    -0.506 OA
ATOM     27  H   LIG A   1      -8.370  -1.083 128.601  0.00  0.00    +0.292 HD
ENDBRANCH  18  26
TORSDOF 4
ENDMDL
MODEL 6
REMARK VINA RESULT:      -6.8      3.905      8.804
REMARK  Name = NuBBE_2485
REMARK  5 active torsions:
REMARK  status: ('A' for Active; 'I' for Inactive)
REMARK    1  A    between atoms: C_12  and  O_16
REMARK    2  A    between atoms: C_13  and  O_15
REMARK    3  A    between atoms: C_20  and  O_21
REMARK    4  A    between atoms: O_21  and  C_22
REMARK    5  A    between atoms: C_24  and  O_26
REMARK                            x       y       z     vdW  Elec       q    Type
REMARK                         _______ _______ _______ _____ _____    ______ ____
ROOT
ATOM      1  O   LIG A   1      -8.835   0.552 126.693  0.00  0.00    -0.289 OA
ATOM      2  C   LIG A   1      -8.123  -0.443 126.600  0.00  0.00    +0.203 C 
ATOM      3  C   LIG A   1      -7.773  -1.271 127.814  0.00  0.00    +0.234 C 
ATOM      4  C   LIG A   1      -6.273  -1.551 127.749  0.00  0.00    +0.240 C 
ATOM      5  C   LIG A   1      -5.889  -2.461 128.898  0.00  0.00    +0.005 A 
ATOM      6  C   LIG A   1      -6.873  -3.275 129.503  0.00  0.00    -0.011 A 
ATOM      7  C   LIG A   1      -8.321  -3.190 129.068  0.00  0.00    +0.196 C 
ATOM      8  O   LIG A   1      -8.513  -2.492 127.835  0.00  0.00    -0.360 OA
ATOM      9  C   LIG A   1      -6.514  -4.136 130.554  0.00  0.00    +0.055 A 
ATOM     10  C   LIG A   1      -5.189  -4.188 130.975  0.00  0.00    +0.159 A 
ATOM     11  C   LIG A   1      -4.223  -3.392 130.366  0.00  0.00    +0.159 A 
ATOM     12  C   LIG A   1      -4.557  -2.534 129.330  0.00  0.00    +0.057 A 
ATOM     13  O   LIG A   1      -5.887  -2.244 126.556  0.00  0.00    -0.480 OA
ATOM     14  C   LIG A   1      -6.429  -1.765 125.395  0.00  0.00    +0.139 A 
ATOM     15  C   LIG A   1      -7.518  -0.887 125.318  0.00  0.00    +0.103 A 
ATOM     16  C   LIG A   1      -8.002  -0.467 124.062  0.00  0.00    +0.138 A 
ATOM     17  C   LIG A   1      -7.378  -0.939 122.899  0.00  0.00    +0.092 A 
ATOM     18  C   LIG A   1      -6.301  -1.816 122.994  0.00  0.00    +0.124 A 
ATOM     19  C   LIG A   1      -5.828  -2.234 124.229  0.00  0.00    +0.092 A 
ENDROOT
BRANCH  11  20
ATOM     20  O   LIG A   1      -2.925  -3.453 130.787  0.00  0.00    -0.503 OA
ATOM     21  H   LIG A   1      -2.826  -2.688 131.388  0.00  0.00    +0.292 HD
ENDBRANCH  11  20
BRANCH  10  22
ATOM     22  O   LIG A   1      -4.785  -5.011 131.990  0.00  0.00    -0.503 OA
ATOM     23  H   LIG A   1      -4.019  -5.524 131.680  0.00  0.00    +0.292 HD
ENDBRANCH  10  22
BRANCH  16  24
ATOM     24  O   LIG A   1      -9.090   0.364 124.051  0.00  0.00    -0.494 OA
ATOM     25  C   LIG A   1      -9.860   0.462 122.862  0.00  0.00    +0.277 C 
ENDBRANCH  16  24
BRANCH  18  26
ATOM     26  O   LIG A   1      -5.676  -2.298 121.882  0.00  0.00    -0.506 OA
ATOM     27  H   LIG A   1      -5.538  -1.574 121.249  0.00  0.00    +0.292 HD
ENDBRANCH  18  26
TORSDOF 4
ENDMDL
MODEL 7
REMARK VINA RESULT:      -6.8      3.292      8.661
REMARK  Name = NuBBE_2485
REMARK  5 active torsions:
REMARK  status: ('A' for Active; 'I' for Inactive)
REMARK    1  A    between atoms: C_12  and  O_16
REMARK    2  A    between atoms: C_13  and  O_15
REMARK    3  A    between atoms: C_20  and  O_21
REMARK    4  A    between atoms: O_21  and  C_22
REMARK    5  A    between atoms: C_24  and  O_26
REMARK                            x       y       z     vdW  Elec       q    Type
REMARK                         _______ _______ _______ _____ _____    ______ ____
ROOT
ATOM      1  O   LIG A   1      -6.161   0.800 125.734  0.00  0.00    -0.289 OA
ATOM      2  C   LIG A   1      -6.817  -0.123 126.207  0.00  0.00    +0.203 C 
ATOM      3  C   LIG A   1      -6.744  -0.460 127.678  0.00  0.00    +0.234 C 
ATOM      4  C   LIG A   1      -6.598  -1.977 127.783  0.00  0.00    +0.240 C 
ATOM      5  C   LIG A   1      -6.615  -2.376 129.245  0.00  0.00    +0.005 A 
ATOM      6  C   LIG A   1      -7.214  -1.519 130.196  0.00  0.00    -0.011 A 
ATOM      7  C   LIG A   1      -7.768  -0.172 129.782  0.00  0.00    +0.196 C 
ATOM      8  O   LIG A   1      -7.914  -0.018 128.367  0.00  0.00    -0.360 OA
ATOM      9  C   LIG A   1      -7.251  -1.898 131.548  0.00  0.00    +0.055 A 
ATOM     10  C   LIG A   1      -6.712  -3.122 131.932  0.00  0.00    +0.159 A 
ATOM     11  C   LIG A   1      -6.135  -3.966 130.987  0.00  0.00    +0.159 A 
ATOM     12  C   LIG A   1      -6.085  -3.610 129.649  0.00  0.00    +0.057 A 
ATOM     13  O   LIG A   1      -7.684  -2.684 127.172  0.00  0.00    -0.480 OA
ATOM     14  C   LIG A   1      -8.061  -2.231 125.937  0.00  0.00    +0.139 A 
ATOM     15  C   LIG A   1      -7.691  -0.998 125.386  0.00  0.00    +0.103 A 
ATOM     16  C   LIG A   1      -8.150  -0.628 124.105  0.00  0.00    +0.138 A 
ATOM     17  C   LIG A   1      -8.978  -1.511 123.398  0.00  0.00    +0.092 A 
ATOM     18  C   LIG A   1      -9.341  -2.730 123.964  0.00  0.00    +0.124 A 
ATOM     19  C   LIG A   1      -8.895  -3.092 125.226  0.00  0.00    +0.092 A 
ENDROOT
BRANCH  11  20
ATOM     20  O   LIG A   1      -5.610  -5.166 131.377  0.00  0.00    -0.503 OA
ATOM     21  H   LIG A   1      -6.371  -5.659 131.743  0.00  0.00    +0.292 HD
ENDBRANCH  11  20
BRANCH  10  22
ATOM     22  O   LIG A   1      -6.725  -3.541 133.233  0.00  0.00    -0.503 OA
ATOM     23  H   LIG A   1      -7.480  -3.123 133.681  0.00  0.00    +0.292 HD
ENDBRANCH  10  22
BRANCH  16  24
ATOM     24  O   LIG A   1      -7.782   0.603 123.634  0.00  0.00    -0.494 OA
ATOM     25  C   LIG A   1      -8.799   1.537 123.302  0.00  0.00    +0.277 C 
ENDBRANCH  16  24
BRANCH  18  26
ATOM     26  O   LIG A   1     -10.150  -3.608 123.305  0.00  0.00    -0.506 OA
ATOM     27  H   LIG A   1     -10.741  -4.043 123.941  0.00  0.00    +0.292 HD
ENDBRANCH  18  26
TORSDOF 4
ENDMDL
MODEL 8
REMARK VINA RESULT:      -6.6      4.437      6.756
REMARK  Name = NuBBE_2485
REMARK  5 active torsions:
REMARK  status: ('A' for Active; 'I' for Inactive)
REMARK    1  A    between atoms: C_12  and  O_16
REMARK    2  A    between atoms: C_13  and  O_15
REMARK    3  A    between atoms: C_20  and  O_21
REMARK    4  A    between atoms: O_21  and  C_22
REMARK    5  A    between atoms: C_24  and  O_26
REMARK                            x       y       z     vdW  Elec       q    Type
REMARK                         _______ _______ _______ _____ _____    ______ ____
ROOT
ATOM      1  O   LIG A   1      -7.541   3.353 131.305  0.00  0.00    -0.289 OA
ATOM      2  C   LIG A   1      -8.096   3.755 130.287  0.00  0.00    +0.203 C 
ATOM      3  C   LIG A   1      -7.821   3.121 128.943  0.00  0.00    +0.234 C 
ATOM      4  C   LIG A   1      -7.608   4.259 127.947  0.00  0.00    +0.240 C 
ATOM      5  C   LIG A   1      -7.422   3.676 126.561  0.00  0.00    +0.005 A 
ATOM      6  C   LIG A   1      -7.923   2.386 126.273  0.00  0.00    -0.011 A 
ATOM      7  C   LIG A   1      -8.574   1.550 127.356  0.00  0.00    +0.196 C 
ATOM      8  O   LIG A   1      -8.907   2.289 128.534  0.00  0.00    -0.360 OA
ATOM      9  C   LIG A   1      -7.771   1.851 124.982  0.00  0.00    +0.055 A 
ATOM     10  C   LIG A   1      -7.143   2.608 123.998  0.00  0.00    +0.159 A 
ATOM     11  C   LIG A   1      -6.663   3.882 124.286  0.00  0.00    +0.159 A 
ATOM     12  C   LIG A   1      -6.800   4.426 125.554  0.00  0.00    +0.057 A 
ATOM     13  O   LIG A   1      -8.738   5.135 127.853  0.00  0.00    -0.480 OA
ATOM     14  C   LIG A   1      -9.288   5.517 129.046  0.00  0.00    +0.139 A 
ATOM     15  C   LIG A   1      -9.037   4.903 130.280  0.00  0.00    +0.103 A 
ATOM     16  C   LIG A   1      -9.672   5.375 131.448  0.00  0.00    +0.138 A 
ATOM     17  C   LIG A   1     -10.553   6.461 131.353  0.00  0.00    +0.092 A 
ATOM     18  C   LIG A   1     -10.795   7.055 130.117  0.00  0.00    +0.124 A 
ATOM     19  C   LIG A   1     -10.176   6.588 128.967  0.00  0.00    +0.092 A 
ENDROOT
BRANCH  11  20
ATOM     20  O   LIG A   1      -6.049   4.615 123.310  0.00  0.00    -0.503 OA
ATOM     21  H   LIG A   1      -6.098   5.538 123.629  0.00  0.00    +0.292 HD
ENDBRANCH  11  20
BRANCH  10  22
ATOM     22  O   LIG A   1      -6.972   2.138 122.726  0.00  0.00    -0.503 OA
ATOM     23  H   LIG A   1      -6.752   2.890 122.149  0.00  0.00    +0.292 HD
ENDBRANCH  10  22
BRANCH  16  24
ATOM     24  O   LIG A   1      -9.413   4.713 132.617  0.00  0.00    -0.494 OA
ATOM     25  C   LIG A   1      -8.742   5.407 133.659  0.00  0.00    +0.277 C 
ENDBRANCH  16  24
BRANCH  18  26
ATOM     26  O   LIG A   1     -11.651   8.109 129.990  0.00  0.00    -0.506 OA
ATOM     27  H   LIG A   1     -11.176   8.936 130.178  0.00  0.00    +0.292 HD
ENDBRANCH  18  26
TORSDOF 4
ENDMDL
MODEL 9
REMARK VINA RESULT:      -6.5      2.374      4.317
REMARK  Name = NuBBE_2485
REMARK  5 active torsions:
REMARK  status: ('A' for Active; 'I' for Inactive)
REMARK    1  A    between atoms: C_12  and  O_16
REMARK    2  A    between atoms: C_13  and  O_15
REMARK    3  A    between atoms: C_20  and  O_21
REMARK    4  A    between atoms: O_21  and  C_22
REMARK    5  A    between atoms: C_24  and  O_26
REMARK                            x       y       z     vdW  Elec       q    Type
REMARK                         _______ _______ _______ _____ _____    ______ ____
ROOT
ATOM      1  O   LIG A   1      -6.422   0.164 126.386  0.00  0.00    -0.289 OA
ATOM      2  C   LIG A   1      -6.522   1.330 126.018  0.00  0.00    +0.203 C 
ATOM      3  C   LIG A   1      -7.044   1.674 124.642  0.00  0.00    +0.234 C 
ATOM      4  C   LIG A   1      -6.108   2.731 124.059  0.00  0.00    +0.240 C 
ATOM      5  C   LIG A   1      -6.643   3.179 122.715  0.00  0.00    +0.005 A 
ATOM      6  C   LIG A   1      -8.016   3.013 122.419  0.00  0.00    -0.011 A 
ATOM      7  C   LIG A   1      -8.940   2.321 123.400  0.00  0.00    +0.196 C 
ATOM      8  O   LIG A   1      -8.383   2.168 124.708  0.00  0.00    -0.360 OA
ATOM      9  C   LIG A   1      -8.519   3.449 121.182  0.00  0.00    +0.055 A 
ATOM     10  C   LIG A   1      -7.662   4.055 120.269  0.00  0.00    +0.159 A 
ATOM     11  C   LIG A   1      -6.314   4.226 120.572  0.00  0.00    +0.159 A 
ATOM     12  C   LIG A   1      -5.797   3.800 121.786  0.00  0.00    +0.057 A 
ATOM     13  O   LIG A   1      -6.033   3.914 124.864  0.00  0.00    -0.480 OA
ATOM     14  C   LIG A   1      -5.890   3.703 126.209  0.00  0.00    +0.139 A 
ATOM     15  C   LIG A   1      -6.108   2.482 126.859  0.00  0.00    +0.103 A 
ATOM     16  C   LIG A   1      -5.941   2.383 128.256  0.00  0.00    +0.138 A 
ATOM     17  C   LIG A   1      -5.554   3.521 128.977  0.00  0.00    +0.092 A 
ATOM     18  C   LIG A   1      -5.347   4.728 128.315  0.00  0.00    +0.124 A 
ATOM     19  C   LIG A   1      -5.517   4.828 126.942  0.00  0.00    +0.092 A 
ENDROOT
BRANCH  11  20
ATOM     20  O   LIG A   1      -5.483   4.823 119.667  0.00  0.00    -0.503 OA
ATOM     21  H   LIG A   1      -5.896   4.644 118.799  0.00  0.00    +0.292 HD
ENDBRANCH  11  20
BRANCH  10  22
ATOM     22  O   LIG A   1      -8.100   4.500 119.053  0.00  0.00    -0.503 OA
ATOM     23  H   LIG A   1      -9.038   4.261 118.959  0.00  0.00    +0.292 HD
ENDBRANCH  10  22
BRANCH  16  24
ATOM     24  O   LIG A   1      -6.202   1.173 128.838  0.00  0.00    -0.494 OA
ATOM     25  C   LIG A   1      -7.129   1.119 129.913  0.00  0.00    +0.277 C 
ENDBRANCH  16  24
BRANCH  18  26
ATOM     26  O   LIG A   1      -4.977   5.855 128.989  0.00  0.00    -0.506 OA
ATOM     27  H   LIG A   1      -5.334   5.824 129.891  0.00  0.00    +0.292 HD
ENDBRANCH  18  26
TORSDOF 4
ENDMDL
