MODEL 1
REMARK VINA RESULT:      -8.4      0.000      0.000
REMARK  Name = NuBBE_1336
REMARK  1 active torsions:
REMARK  status: ('A' for Active; 'I' for Inactive)
REMARK    1  A    between atoms: N_5  and  C_20
REMARK                            x       y       z     vdW  Elec       q    Type
REMARK                         _______ _______ _______ _____ _____    ______ ____
ROOT
ATOM      1  O   LIG A   1      -6.016   5.766 124.968  0.00  0.00    -0.270 OA
ATOM      2  C   LIG A   1      -6.476   4.716 124.582  0.00  0.00    +0.250 C 
ATOM      3  C   LIG A   1      -5.959   4.031 123.349  0.00  0.00    +0.058 A 
ATOM      4  C   LIG A   1      -6.920   3.199 122.783  0.00  0.00    +0.043 A 
ATOM      5  N   LIG A   1      -7.654   2.333 123.636  0.00  0.00    -0.309 N 
ATOM      6  C   LIG A   1      -7.444   2.605 125.080  0.00  0.00    +0.212 C 
ATOM      7  N   LIG A   1      -7.591   4.046 125.149  0.00  0.00    -0.273 N 
ATOM      8  C   LIG A   1      -8.218   4.523 126.368  0.00  0.00    +0.115 C 
ATOM      9  C   LIG A   1      -7.457   4.064 127.624  0.00  0.00    +0.056 C 
ATOM     10  C   LIG A   1      -6.282   3.198 127.242  0.00  0.00    -0.014 A 
ATOM     11  C   LIG A   1      -6.263   2.443 126.054  0.00  0.00    +0.059 A 
ATOM     12  N   LIG A   1      -4.948   2.068 125.853  0.00  0.00    -0.355 N 
ATOM     13  H   LIG A   1      -4.596   1.577 125.044  0.00  0.00    +0.166 HD
ATOM     14  C   LIG A   1      -4.124   2.792 126.727  0.00  0.00    +0.047 A 
ATOM     15  C   LIG A   1      -4.950   3.456 127.633  0.00  0.00    +0.003 A 
ATOM     16  C   LIG A   1      -4.408   4.384 128.548  0.00  0.00    +0.010 A 
ATOM     17  C   LIG A   1      -3.047   4.667 128.514  0.00  0.00    +0.001 A 
ATOM     18  C   LIG A   1      -2.224   3.985 127.626  0.00  0.00    +0.002 A 
ATOM     19  C   LIG A   1      -2.735   3.015 126.738  0.00  0.00    +0.026 A 
ATOM     20  C   LIG A   1      -9.109   2.331 123.330  0.00  0.00    +0.131 C 
ATOM     21  C   LIG A   1      -7.104   3.353 121.406  0.00  0.00    +0.024 A 
ATOM     22  C   LIG A   1      -6.182   4.086 120.643  0.00  0.00    +0.002 A 
ATOM     23  C   LIG A   1      -5.006   4.555 121.229  0.00  0.00    +0.001 A 
ATOM     24  C   LIG A   1      -4.896   4.549 122.614  0.00  0.00    +0.015 A 
ENDROOT
TORSDOF 0
ENDMDL
MODEL 2
REMARK VINA RESULT:      -8.1      4.813      8.041
REMARK  Name = NuBBE_1336
REMARK  1 active torsions:
REMARK  status: ('A' for Active; 'I' for Inactive)
REMARK    1  A    between atoms: N_5  and  C_20
REMARK                            x       y       z     vdW  Elec       q    Type
REMARK                         _______ _______ _______ _____ _____    ______ ____
ROOT
ATOM      1  O   LIG A   1     -10.373   3.951 129.824  0.00  0.00    -0.270 OA
ATOM      2  C   LIG A   1      -9.453   4.669 130.141  0.00  0.00    +0.250 C 
ATOM      3  C   LIG A   1      -8.206   4.771 129.311  0.00  0.00    +0.058 A 
ATOM      4  C   LIG A   1      -7.111   5.168 130.074  0.00  0.00    +0.043 A 
ATOM      5  N   LIG A   1      -7.271   6.253 130.976  0.00  0.00    -0.309 N 
ATOM      6  C   LIG A   1      -8.683   6.679 131.145  0.00  0.00    +0.212 C 
ATOM      7  N   LIG A   1      -9.367   5.416 131.345  0.00  0.00    -0.273 N 
ATOM      8  C   LIG A   1     -10.481   5.483 132.273  0.00  0.00    +0.115 C 
ATOM      9  C   LIG A   1     -11.527   6.525 131.842  0.00  0.00    +0.056 C 
ATOM     10  C   LIG A   1     -11.082   7.231 130.584  0.00  0.00    -0.014 A 
ATOM     11  C   LIG A   1      -9.723   7.370 130.244  0.00  0.00    +0.059 A 
ATOM     12  N   LIG A   1      -9.692   7.733 128.911  0.00  0.00    -0.355 N 
ATOM     13  H   LIG A   1      -8.857   7.839 128.353  0.00  0.00    +0.166 HD
ATOM     14  C   LIG A   1     -10.967   7.559 128.356  0.00  0.00    +0.047 A 
ATOM     15  C   LIG A   1     -11.852   7.300 129.403  0.00  0.00    +0.003 A 
ATOM     16  C   LIG A   1     -13.189   6.937 129.136  0.00  0.00    +0.010 A 
ATOM     17  C   LIG A   1     -13.613   6.795 127.820  0.00  0.00    +0.001 A 
ATOM     18  C   LIG A   1     -12.735   7.077 126.779  0.00  0.00    +0.002 A 
ATOM     19  C   LIG A   1     -11.409   7.494 127.022  0.00  0.00    +0.026 A 
ATOM     20  C   LIG A   1      -6.663   5.983 132.305  0.00  0.00    +0.131 C 
ATOM     21  C   LIG A   1      -5.958   4.395 129.907  0.00  0.00    +0.024 A 
ATOM     22  C   LIG A   1      -5.859   3.486 128.843  0.00  0.00    +0.002 A 
ATOM     23  C   LIG A   1      -6.855   3.440 127.867  0.00  0.00    +0.001 A 
ATOM     24  C   LIG A   1      -8.065   4.078 128.111  0.00  0.00    +0.015 A 
ENDROOT
TORSDOF 0
ENDMDL
MODEL 3
REMARK VINA RESULT:      -7.7      3.940      5.971
REMARK  Name = NuBBE_1336
REMARK  1 active torsions:
REMARK  status: ('A' for Active; 'I' for Inactive)
REMARK    1  A    between atoms: N_5  and  C_20
REMARK                            x       y       z     vdW  Elec       q    Type
REMARK                         _______ _______ _______ _____ _____    ______ ____
ROOT
ATOM      1  O   LIG A   1      -9.930   0.425 125.791  0.00  0.00    -0.270 OA
ATOM      2  C   LIG A   1      -8.919   0.783 125.232  0.00  0.00    +0.250 C 
ATOM      3  C   LIG A   1      -7.968   1.758 125.865  0.00  0.00    +0.058 A 
ATOM      4  C   LIG A   1      -7.221   2.440 124.909  0.00  0.00    +0.043 A 
ATOM      5  N   LIG A   1      -6.635   1.697 123.849  0.00  0.00    -0.309 N 
ATOM      6  C   LIG A   1      -7.102   0.290 123.784  0.00  0.00    +0.212 C 
ATOM      7  N   LIG A   1      -8.539   0.433 123.910  0.00  0.00    -0.273 N 
ATOM      8  C   LIG A   1      -9.303  -0.527 123.134  0.00  0.00    +0.115 C 
ATOM      9  C   LIG A   1      -8.939  -1.977 123.494  0.00  0.00    +0.056 C 
ATOM     10  C   LIG A   1      -7.844  -2.005 124.532  0.00  0.00    -0.014 A 
ATOM     11  C   LIG A   1      -6.912  -0.958 124.666  0.00  0.00    +0.059 A 
ATOM     12  N   LIG A   1      -6.303  -1.135 125.893  0.00  0.00    -0.355 N 
ATOM     13  H   LIG A   1      -5.636  -0.503 126.312  0.00  0.00    +0.166 HD
ATOM     14  C   LIG A   1      -7.017  -2.092 126.628  0.00  0.00    +0.047 A 
ATOM     15  C   LIG A   1      -7.944  -2.679 125.768  0.00  0.00    +0.003 A 
ATOM     16  C   LIG A   1      -8.909  -3.582 126.265  0.00  0.00    +0.010 A 
ATOM     17  C   LIG A   1      -8.960  -3.851 127.628  0.00  0.00    +0.001 A 
ATOM     18  C   LIG A   1      -8.019  -3.283 128.478  0.00  0.00    +0.002 A 
ATOM     19  C   LIG A   1      -7.012  -2.420 127.996  0.00  0.00    +0.026 A 
ATOM     20  C   LIG A   1      -6.818   2.351 122.527  0.00  0.00    +0.131 C 
ATOM     21  C   LIG A   1      -7.175   3.828 125.068  0.00  0.00    +0.024 A 
ATOM     22  C   LIG A   1      -7.616   4.421 126.261  0.00  0.00    +0.002 A 
ATOM     23  C   LIG A   1      -7.978   3.624 127.346  0.00  0.00    +0.001 A 
ATOM     24  C   LIG A   1      -8.181   2.264 127.144  0.00  0.00    +0.015 A 
ENDROOT
TORSDOF 0
ENDMDL
MODEL 4
REMARK VINA RESULT:      -7.6      3.208      5.474
REMARK  Name = NuBBE_1336
REMARK  1 active torsions:
REMARK  status: ('A' for Active; 'I' for Inactive)
REMARK    1  A    between atoms: N_5  and  C_20
REMARK                            x       y       z     vdW  Elec       q    Type
REMARK                         _______ _______ _______ _____ _____    ______ ____
ROOT
ATOM      1  O   LIG A   1      -9.312   1.656 125.660  0.00  0.00    -0.270 OA
ATOM      2  C   LIG A   1      -8.442   1.884 124.851  0.00  0.00    +0.250 C 
ATOM      3  C   LIG A   1      -7.119   2.468 125.256  0.00  0.00    +0.058 A 
ATOM      4  C   LIG A   1      -6.513   3.147 124.202  0.00  0.00    +0.043 A 
ATOM      5  N   LIG A   1      -6.482   2.526 122.925  0.00  0.00    -0.309 N 
ATOM      6  C   LIG A   1      -7.320   1.305 122.840  0.00  0.00    +0.212 C 
ATOM      7  N   LIG A   1      -8.565   1.738 123.445  0.00  0.00    -0.273 N 
ATOM      8  C   LIG A   1      -9.752   1.157 122.848  0.00  0.00    +0.115 C 
ATOM      9  C   LIG A   1      -9.720  -0.381 122.883  0.00  0.00    +0.056 C 
ATOM     10  C   LIG A   1      -8.429  -0.868 123.494  0.00  0.00    -0.014 A 
ATOM     11  C   LIG A   1      -7.244  -0.108 123.446  0.00  0.00    +0.059 A 
ATOM     12  N   LIG A   1      -6.387  -0.668 124.375  0.00  0.00    -0.355 N 
ATOM     13  H   LIG A   1      -5.480  -0.302 124.629  0.00  0.00    +0.166 HD
ATOM     14  C   LIG A   1      -7.101  -1.569 125.176  0.00  0.00    +0.047 A 
ATOM     15  C   LIG A   1      -8.359  -1.742 124.600  0.00  0.00    +0.003 A 
ATOM     16  C   LIG A   1      -9.355  -2.487 125.267  0.00  0.00    +0.010 A 
ATOM     17  C   LIG A   1      -9.092  -3.014 126.527  0.00  0.00    +0.001 A 
ATOM     18  C   LIG A   1      -7.828  -2.859 127.087  0.00  0.00    +0.002 A 
ATOM     19  C   LIG A   1      -6.800  -2.165 126.415  0.00  0.00    +0.026 A 
ATOM     20  C   LIG A   1      -6.842   3.463 121.828  0.00  0.00    +0.131 C 
ATOM     21  C   LIG A   1      -6.040   4.425 124.511  0.00  0.00    +0.024 A 
ATOM     22  C   LIG A   1      -5.942   4.843 125.847  0.00  0.00    +0.002 A 
ATOM     23  C   LIG A   1      -6.190   3.942 126.882  0.00  0.00    +0.001 A 
ATOM     24  C   LIG A   1      -6.811   2.734 126.588  0.00  0.00    +0.015 A 
ENDROOT
TORSDOF 0
ENDMDL
MODEL 5
REMARK VINA RESULT:      -7.6      3.588      6.574
REMARK  Name = NuBBE_1336
REMARK  1 active torsions:
REMARK  status: ('A' for Active; 'I' for Inactive)
REMARK    1  A    between atoms: N_5  and  C_20
REMARK                            x       y       z     vdW  Elec       q    Type
REMARK                         _______ _______ _______ _____ _____    ______ ____
ROOT
ATOM      1  O   LIG A   1     -10.221   0.249 126.089  0.00  0.00    -0.270 OA
ATOM      2  C   LIG A   1      -9.305   1.007 125.869  0.00  0.00    +0.250 C 
ATOM      3  C   LIG A   1      -8.224   1.256 126.882  0.00  0.00    +0.058 A 
ATOM      4  C   LIG A   1      -7.621   2.497 126.694  0.00  0.00    +0.043 A 
ATOM      5  N   LIG A   1      -7.252   2.879 125.377  0.00  0.00    -0.309 N 
ATOM      6  C   LIG A   1      -7.778   1.972 124.327  0.00  0.00    +0.212 C 
ATOM      7  N   LIG A   1      -9.167   1.821 124.714  0.00  0.00    -0.273 N 
ATOM      8  C   LIG A   1     -10.088   1.709 123.598  0.00  0.00    +0.115 C 
ATOM      9  C   LIG A   1      -9.725   0.538 122.669  0.00  0.00    +0.056 C 
ATOM     10  C   LIG A   1      -8.473  -0.152 123.153  0.00  0.00    -0.014 A 
ATOM     11  C   LIG A   1      -7.492   0.519 123.907  0.00  0.00    +0.059 A 
ATOM     12  N   LIG A   1      -6.693  -0.462 124.463  0.00  0.00    -0.355 N 
ATOM     13  H   LIG A   1      -5.940  -0.301 125.117  0.00  0.00    +0.166 HD
ATOM     14  C   LIG A   1      -7.310  -1.709 124.296  0.00  0.00    +0.047 A 
ATOM     15  C   LIG A   1      -8.391  -1.533 123.433  0.00  0.00    +0.003 A 
ATOM     16  C   LIG A   1      -9.293  -2.591 123.192  0.00  0.00    +0.010 A 
ATOM     17  C   LIG A   1      -9.125  -3.802 123.855  0.00  0.00    +0.001 A 
ATOM     18  C   LIG A   1      -8.032  -3.981 124.695  0.00  0.00    +0.002 A 
ATOM     19  C   LIG A   1      -7.088  -2.955 124.910  0.00  0.00    +0.026 A 
ATOM     20  C   LIG A   1      -7.629   4.284 125.066  0.00  0.00    +0.131 C 
ATOM     21  C   LIG A   1      -7.496   3.277 127.847  0.00  0.00    +0.024 A 
ATOM     22  C   LIG A   1      -7.705   2.712 129.115  0.00  0.00    +0.002 A 
ATOM     23  C   LIG A   1      -7.911   1.339 129.242  0.00  0.00    +0.001 A 
ATOM     24  C   LIG A   1      -8.199   0.593 128.106  0.00  0.00    +0.015 A 
ENDROOT
TORSDOF 0
ENDMDL
MODEL 6
REMARK VINA RESULT:      -7.6      4.249      6.479
REMARK  Name = NuBBE_1336
REMARK  1 active torsions:
REMARK  status: ('A' for Active; 'I' for Inactive)
REMARK    1  A    between atoms: N_5  and  C_20
REMARK                            x       y       z     vdW  Elec       q    Type
REMARK                         _______ _______ _______ _____ _____    ______ ____
ROOT
ATOM      1  O   LIG A   1      -5.701  -0.949 126.018  0.00  0.00    -0.270 OA
ATOM      2  C   LIG A   1      -6.815  -1.344 125.757  0.00  0.00    +0.250 C 
ATOM      3  C   LIG A   1      -7.808  -1.675 126.834  0.00  0.00    +0.058 A 
ATOM      4  C   LIG A   1      -8.759  -2.591 126.391  0.00  0.00    +0.043 A 
ATOM      5  N   LIG A   1      -9.360  -2.384 125.121  0.00  0.00    -0.309 N 
ATOM      6  C   LIG A   1      -8.709  -1.313 124.325  0.00  0.00    +0.212 C 
ATOM      7  N   LIG A   1      -7.302  -1.639 124.457  0.00  0.00    -0.273 N 
ATOM      8  C   LIG A   1      -6.512  -1.358 123.274  0.00  0.00    +0.115 C 
ATOM      9  C   LIG A   1      -6.618   0.117 122.847  0.00  0.00    +0.056 C 
ATOM     10  C   LIG A   1      -7.560   0.863 123.760  0.00  0.00    -0.014 A 
ATOM     11  C   LIG A   1      -8.608   0.218 124.445  0.00  0.00    +0.059 A 
ATOM     12  N   LIG A   1      -9.028   1.096 125.426  0.00  0.00    -0.355 N 
ATOM     13  H   LIG A   1      -9.721   0.895 126.133  0.00  0.00    +0.166 HD
ATOM     14  C   LIG A   1      -8.099   2.139 125.539  0.00  0.00    +0.047 A 
ATOM     15  C   LIG A   1      -7.212   2.033 124.468  0.00  0.00    +0.003 A 
ATOM     16  C   LIG A   1      -6.074   2.866 124.397  0.00  0.00    +0.010 A 
ATOM     17  C   LIG A   1      -5.816   3.766 125.424  0.00  0.00    +0.001 A 
ATOM     18  C   LIG A   1      -6.716   3.886 126.477  0.00  0.00    +0.002 A 
ATOM     19  C   LIG A   1      -7.888   3.102 126.543  0.00  0.00    +0.026 A 
ATOM     20  C   LIG A   1      -9.438  -3.633 124.318  0.00  0.00    +0.131 C 
ATOM     21  C   LIG A   1      -8.981  -3.676 127.243  0.00  0.00    +0.024 A 
ATOM     22  C   LIG A   1      -8.485  -3.662 128.556  0.00  0.00    +0.002 A 
ATOM     23  C   LIG A   1      -7.880  -2.513 129.063  0.00  0.00    +0.001 A 
ATOM     24  C   LIG A   1      -7.513  -1.502 128.183  0.00  0.00    +0.015 A 
ENDROOT
TORSDOF 0
ENDMDL
MODEL 7
REMARK VINA RESULT:      -7.3      3.711      5.606
REMARK  Name = NuBBE_1336
REMARK  1 active torsions:
REMARK  status: ('A' for Active; 'I' for Inactive)
REMARK    1  A    between atoms: N_5  and  C_20
REMARK                            x       y       z     vdW  Elec       q    Type
REMARK                         _______ _______ _______ _____ _____    ______ ____
ROOT
ATOM      1  O   LIG A   1      -4.727   0.824 126.069  0.00  0.00    -0.270 OA
ATOM      2  C   LIG A   1      -5.861   1.070 126.411  0.00  0.00    +0.250 C 
ATOM      3  C   LIG A   1      -6.684   2.120 125.723  0.00  0.00    +0.058 A 
ATOM      4  C   LIG A   1      -7.676   2.625 126.560  0.00  0.00    +0.043 A 
ATOM      5  N   LIG A   1      -8.457   1.709 127.314  0.00  0.00    -0.309 N 
ATOM      6  C   LIG A   1      -7.942   0.318 127.273  0.00  0.00    +0.212 C 
ATOM      7  N   LIG A   1      -6.526   0.502 127.528  0.00  0.00    -0.273 N 
ATOM      8  C   LIG A   1      -5.919  -0.560 128.309  0.00  0.00    +0.115 C 
ATOM      9  C   LIG A   1      -6.106  -1.937 127.650  0.00  0.00    +0.056 C 
ATOM     10  C   LIG A   1      -6.916  -1.811 126.384  0.00  0.00    -0.014 A 
ATOM     11  C   LIG A   1      -7.845  -0.771 126.189  0.00  0.00    +0.059 A 
ATOM     12  N   LIG A   1      -8.131  -0.755 124.837  0.00  0.00    -0.355 N 
ATOM     13  H   LIG A   1      -8.712  -0.073 124.371  0.00  0.00    +0.166 HD
ATOM     14  C   LIG A   1      -7.210  -1.567 124.162  0.00  0.00    +0.047 A 
ATOM     15  C   LIG A   1      -6.485  -2.272 125.121  0.00  0.00    +0.003 A 
ATOM     16  C   LIG A   1      -5.381  -3.066 124.743  0.00  0.00    +0.010 A 
ATOM     17  C   LIG A   1      -4.989  -3.107 123.410  0.00  0.00    +0.001 A 
ATOM     18  C   LIG A   1      -5.729  -2.422 122.453  0.00  0.00    +0.002 A 
ATOM     19  C   LIG A   1      -6.869  -1.666 122.800  0.00  0.00    +0.026 A 
ATOM     20  C   LIG A   1      -8.633   2.140 128.726  0.00  0.00    +0.131 C 
ATOM     21  C   LIG A   1      -7.758   4.019 126.611  0.00  0.00    +0.024 A 
ATOM     22  C   LIG A   1      -7.078   4.807 125.670  0.00  0.00    +0.002 A 
ATOM     23  C   LIG A   1      -6.422   4.204 124.597  0.00  0.00    +0.001 A 
ATOM     24  C   LIG A   1      -6.199   2.833 124.630  0.00  0.00    +0.015 A 
ENDROOT
TORSDOF 0
ENDMDL
MODEL 8
REMARK VINA RESULT:      -7.3      4.954      5.915
REMARK  Name = NuBBE_1336
REMARK  1 active torsions:
REMARK  status: ('A' for Active; 'I' for Inactive)
REMARK    1  A    between atoms: N_5  and  C_20
REMARK                            x       y       z     vdW  Elec       q    Type
REMARK                         _______ _______ _______ _____ _____    ______ ____
ROOT
ATOM      1  O   LIG A   1      -4.994  -0.667 126.655  0.00  0.00    -0.270 OA
ATOM      2  C   LIG A   1      -5.989  -0.700 125.967  0.00  0.00    +0.250 C 
ATOM      3  C   LIG A   1      -6.229  -1.803 124.976  0.00  0.00    +0.058 A 
ATOM      4  C   LIG A   1      -7.075  -1.394 123.948  0.00  0.00    +0.043 A 
ATOM      5  N   LIG A   1      -8.255  -0.680 124.285  0.00  0.00    -0.309 N 
ATOM      6  C   LIG A   1      -8.309  -0.263 125.709  0.00  0.00    +0.212 C 
ATOM      7  N   LIG A   1      -6.990   0.304 125.917  0.00  0.00    -0.273 N 
ATOM      8  C   LIG A   1      -6.966   1.440 126.820  0.00  0.00    +0.115 C 
ATOM      9  C   LIG A   1      -7.554   1.091 128.198  0.00  0.00    +0.056 C 
ATOM     10  C   LIG A   1      -8.041  -0.337 128.218  0.00  0.00    -0.014 A 
ATOM     11  C   LIG A   1      -8.461  -1.002 127.050  0.00  0.00    +0.059 A 
ATOM     12  N   LIG A   1      -8.498  -2.347 127.363  0.00  0.00    -0.355 N 
ATOM     13  H   LIG A   1      -8.693  -3.094 126.711  0.00  0.00    +0.166 HD
ATOM     14  C   LIG A   1      -7.859  -2.552 128.594  0.00  0.00    +0.047 A 
ATOM     15  C   LIG A   1      -7.621  -1.301 129.160  0.00  0.00    +0.003 A 
ATOM     16  C   LIG A   1      -6.856  -1.183 130.340  0.00  0.00    +0.010 A 
ATOM     17  C   LIG A   1      -6.302  -2.321 130.916  0.00  0.00    +0.001 A 
ATOM     18  C   LIG A   1      -6.562  -3.569 130.362  0.00  0.00    +0.002 A 
ATOM     19  C   LIG A   1      -7.367  -3.716 129.213  0.00  0.00    +0.026 A 
ATOM     20  C   LIG A   1      -8.478   0.497 123.406  0.00  0.00    +0.131 C 
ATOM     21  C   LIG A   1      -6.628  -1.689 122.657  0.00  0.00    +0.024 A 
ATOM     22  C   LIG A   1      -5.557  -2.576 122.460  0.00  0.00    +0.002 A 
ATOM     23  C   LIG A   1      -5.017  -3.270 123.542  0.00  0.00    +0.001 A 
ATOM     24  C   LIG A   1      -5.340  -2.865 124.831  0.00  0.00    +0.015 A 
ENDROOT
TORSDOF 0
ENDMDL
MODEL 9
REMARK VINA RESULT:      -7.3      3.306      5.434
REMARK  Name = NuBBE_1336
REMARK  1 active torsions:
REMARK  status: ('A' for Active; 'I' for Inactive)
REMARK    1  A    between atoms: N_5  and  C_20
REMARK                            x       y       z     vdW  Elec       q    Type
REMARK                         _______ _______ _______ _____ _____    ______ ____
ROOT
ATOM      1  O   LIG A   1      -6.527   0.269 127.275  0.00  0.00    -0.270 OA
ATOM      2  C   LIG A   1      -6.719   1.220 126.553  0.00  0.00    +0.250 C 
ATOM      3  C   LIG A   1      -5.585   2.019 125.978  0.00  0.00    +0.058 A 
ATOM      4  C   LIG A   1      -5.977   3.318 125.669  0.00  0.00    +0.043 A 
ATOM      5  N   LIG A   1      -7.203   3.511 124.977  0.00  0.00    -0.309 N 
ATOM      6  C   LIG A   1      -8.025   2.279 124.875  0.00  0.00    +0.212 C 
ATOM      7  N   LIG A   1      -7.989   1.768 126.231  0.00  0.00    -0.273 N 
ATOM      8  C   LIG A   1      -9.218   1.126 126.659  0.00  0.00    +0.115 C 
ATOM      9  C   LIG A   1      -9.616  -0.032 125.727  0.00  0.00    +0.056 C 
ATOM     10  C   LIG A   1      -8.634  -0.154 124.588  0.00  0.00    -0.014 A 
ATOM     11  C   LIG A   1      -7.891   0.946 124.117  0.00  0.00    +0.059 A 
ATOM     12  N   LIG A   1      -6.873   0.423 123.343  0.00  0.00    -0.355 N 
ATOM     13  H   LIG A   1      -6.125   0.956 122.922  0.00  0.00    +0.166 HD
ATOM     14  C   LIG A   1      -6.806  -0.963 123.543  0.00  0.00    +0.047 A 
ATOM     15  C   LIG A   1      -7.934  -1.339 124.272  0.00  0.00    +0.003 A 
ATOM     16  C   LIG A   1      -8.068  -2.660 124.751  0.00  0.00    +0.010 A 
ATOM     17  C   LIG A   1      -7.048  -3.578 124.530  0.00  0.00    +0.001 A 
ATOM     18  C   LIG A   1      -5.937  -3.205 123.781  0.00  0.00    +0.002 A 
ATOM     19  C   LIG A   1      -5.806  -1.906 123.247  0.00  0.00    +0.026 A 
ATOM     20  C   LIG A   1      -8.015   4.613 125.555  0.00  0.00    +0.131 C 
ATOM     21  C   LIG A   1      -5.127   4.323 126.139  0.00  0.00    +0.024 A 
ATOM     22  C   LIG A   1      -3.850   4.005 126.624  0.00  0.00    +0.002 A 
ATOM     23  C   LIG A   1      -3.367   2.701 126.520  0.00  0.00    +0.001 A 
ATOM     24  C   LIG A   1      -4.256   1.678 126.211  0.00  0.00    +0.015 A 
ENDROOT
TORSDOF 0
ENDMDL
