MODEL 1
REMARK VINA RESULT:      -7.6      0.000      0.000
REMARK  Name = NuBBE_2006
REMARK  7 active torsions:
REMARK  status: ('A' for Active; 'I' for Inactive)
REMARK    1  A    between atoms: O_1  and  C_2
REMARK    2  A    between atoms: C_6  and  C_8
REMARK    3  A    between atoms: C_11  and  O_12
REMARK    4  A    between atoms: O_12  and  C_13
REMARK    5  A    between atoms: C_20  and  O_21
REMARK    6  A    between atoms: O_21  and  C_22
REMARK    7  A    between atoms: C_23  and  C_24
REMARK                            x       y       z     vdW  Elec       q    Type
REMARK                         _______ _______ _______ _____ _____    ______ ____
ROOT
ATOM      1  C   LIG A   1      -7.840  -1.452 123.713  0.00  0.00    +0.137 A 
ATOM      2  C   LIG A   1      -8.437  -0.226 124.028  0.00  0.00    +0.101 A 
ATOM      3  C   LIG A   1      -9.607   0.286 123.293  0.00  0.00    +0.174 C 
ATOM      4  C   LIG A   1     -10.176   1.599 123.761  0.00  0.00    +0.129 C 
ATOM      5  C   LIG A   1      -9.039   2.472 124.283  0.00  0.00    +0.211 C 
ATOM      6  O   LIG A   1      -8.388   1.802 125.381  0.00  0.00    -0.483 OA
ATOM      7  O   LIG A   1     -10.097  -0.363 122.375  0.00  0.00    -0.292 OA
ATOM      8  C   LIG A   1      -7.936   0.542 125.073  0.00  0.00    +0.139 A 
ATOM      9  C   LIG A   1      -6.909   0.048 125.873  0.00  0.00    +0.092 A 
ATOM     10  C   LIG A   1      -6.311  -1.184 125.579  0.00  0.00    +0.130 A 
ATOM     11  C   LIG A   1      -6.767  -1.940 124.478  0.00  0.00    +0.034 A 
ATOM     12  C   LIG A   1      -6.087  -3.222 124.068  0.00  0.00    +0.051 C 
ENDROOT
BRANCH   5  13
ATOM     13  C   LIG A   1      -8.028   2.994 123.259  0.00  0.00    -0.007 A 
ATOM     14  C   LIG A   1      -6.736   3.356 123.676  0.00  0.00    +0.011 A 
ATOM     15  C   LIG A   1      -5.797   3.845 122.758  0.00  0.00    +0.046 A 
ATOM     16  C   LIG A   1      -6.123   3.985 121.408  0.00  0.00    +0.120 A 
ATOM     17  C   LIG A   1      -7.400   3.632 120.985  0.00  0.00    +0.046 A 
ATOM     18  C   LIG A   1      -8.342   3.152 121.900  0.00  0.00    +0.011 A 
BRANCH  16  19
ATOM     19  O   LIG A   1      -5.126   4.475 120.611  0.00  0.00    -0.495 OA
ATOM     20  C   LIG A   1      -5.526   5.325 119.541  0.00  0.00    +0.277 C 
ENDBRANCH  16  19
ENDBRANCH   5  13
BRANCH   1  21
ATOM     21  O   LIG A   1      -8.269  -2.209 122.651  0.00  0.00    -0.506 OA
ATOM     22  H   LIG A   1      -8.628  -1.605 121.962  0.00  0.00    +0.292 HD
ENDBRANCH   1  21
BRANCH  10  23
ATOM     23  O   LIG A   1      -5.271  -1.716 126.297  0.00  0.00    -0.495 OA
ATOM     24  C   LIG A   1      -5.533  -2.089 127.646  0.00  0.00    +0.277 C 
ENDBRANCH  10  23
TORSDOF 4
ENDMDL
MODEL 2
REMARK VINA RESULT:      -7.2      1.838      6.170
REMARK  Name = NuBBE_2006
REMARK  7 active torsions:
REMARK  status: ('A' for Active; 'I' for Inactive)
REMARK    1  A    between atoms: O_1  and  C_2
REMARK    2  A    between atoms: C_6  and  C_8
REMARK    3  A    between atoms: C_11  and  O_12
REMARK    4  A    between atoms: O_12  and  C_13
REMARK    5  A    between atoms: C_20  and  O_21
REMARK    6  A    between atoms: O_21  and  C_22
REMARK    7  A    between atoms: C_23  and  C_24
REMARK                            x       y       z     vdW  Elec       q    Type
REMARK                         _______ _______ _______ _____ _____    ______ ____
ROOT
ATOM      1  C   LIG A   1      -6.537   3.077 124.292  0.00  0.00    +0.137 A 
ATOM      2  C   LIG A   1      -7.609   2.369 124.847  0.00  0.00    +0.101 A 
ATOM      3  C   LIG A   1      -7.627   1.959 126.262  0.00  0.00    +0.174 C 
ATOM      4  C   LIG A   1      -8.860   1.239 126.740  0.00  0.00    +0.129 C 
ATOM      5  C   LIG A   1      -9.416   0.400 125.594  0.00  0.00    +0.211 C 
ATOM      6  O   LIG A   1      -9.752   1.263 124.489  0.00  0.00    -0.483 OA
ATOM      7  O   LIG A   1      -6.690   2.237 127.002  0.00  0.00    -0.292 OA
ATOM      8  C   LIG A   1      -8.709   2.046 124.060  0.00  0.00    +0.139 A 
ATOM      9  C   LIG A   1      -8.792   2.513 122.751  0.00  0.00    +0.092 A 
ATOM     10  C   LIG A   1      -7.733   3.235 122.186  0.00  0.00    +0.130 A 
ATOM     11  C   LIG A   1      -6.582   3.510 122.956  0.00  0.00    +0.034 A 
ATOM     12  C   LIG A   1      -5.381   4.197 122.358  0.00  0.00    +0.051 C 
ENDROOT
BRANCH   5  13
ATOM     13  C   LIG A   1      -8.590  -0.805 125.140  0.00  0.00    -0.007 A 
ATOM     14  C   LIG A   1      -7.625  -1.353 126.003  0.00  0.00    +0.011 A 
ATOM     15  C   LIG A   1      -6.850  -2.452 125.605  0.00  0.00    +0.046 A 
ATOM     16  C   LIG A   1      -7.017  -3.025 124.344  0.00  0.00    +0.120 A 
ATOM     17  C   LIG A   1      -7.966  -2.489 123.482  0.00  0.00    +0.046 A 
ATOM     18  C   LIG A   1      -8.735  -1.387 123.872  0.00  0.00    +0.011 A 
BRANCH  16  19
ATOM     19  O   LIG A   1      -6.201  -4.088 124.070  0.00  0.00    -0.495 OA
ATOM     20  C   LIG A   1      -4.825  -3.794 123.855  0.00  0.00    +0.277 C 
ENDBRANCH  16  19
ENDBRANCH   5  13
BRANCH   1  21
ATOM     21  O   LIG A   1      -5.409   3.362 125.022  0.00  0.00    -0.506 OA
ATOM     22  H   LIG A   1      -5.217   4.323 124.937  0.00  0.00    +0.292 HD
ENDBRANCH   1  21
BRANCH  10  23
ATOM     23  O   LIG A   1      -7.728   3.693 120.894  0.00  0.00    -0.495 OA
ATOM     24  C   LIG A   1      -8.990   3.904 120.272  0.00  0.00    +0.277 C 
ENDBRANCH  10  23
TORSDOF 4
ENDMDL
MODEL 3
REMARK VINA RESULT:      -6.9      1.921      5.870
REMARK  Name = NuBBE_2006
REMARK  7 active torsions:
REMARK  status: ('A' for Active; 'I' for Inactive)
REMARK    1  A    between atoms: O_1  and  C_2
REMARK    2  A    between atoms: C_6  and  C_8
REMARK    3  A    between atoms: C_11  and  O_12
REMARK    4  A    between atoms: O_12  and  C_13
REMARK    5  A    between atoms: C_20  and  O_21
REMARK    6  A    between atoms: O_21  and  C_22
REMARK    7  A    between atoms: C_23  and  C_24
REMARK                            x       y       z     vdW  Elec       q    Type
REMARK                         _______ _______ _______ _____ _____    ______ ____
ROOT
ATOM      1  C   LIG A   1      -6.912   3.023 125.653  0.00  0.00    +0.137 A 
ATOM      2  C   LIG A   1      -7.934   2.320 125.007  0.00  0.00    +0.101 A 
ATOM      3  C   LIG A   1      -8.968   1.580 125.752  0.00  0.00    +0.174 C 
ATOM      4  C   LIG A   1     -10.034   0.901 124.934  0.00  0.00    +0.129 C 
ATOM      5  C   LIG A   1      -9.422   0.433 123.617  0.00  0.00    +0.211 C 
ATOM      6  O   LIG A   1      -8.905   1.572 122.899  0.00  0.00    -0.483 OA
ATOM      7  O   LIG A   1      -8.960   1.566 126.978  0.00  0.00    -0.292 OA
ATOM      8  C   LIG A   1      -8.005   2.319 123.618  0.00  0.00    +0.139 A 
ATOM      9  C   LIG A   1      -7.124   3.099 122.874  0.00  0.00    +0.092 A 
ATOM     10  C   LIG A   1      -6.104   3.819 123.508  0.00  0.00    +0.130 A 
ATOM     11  C   LIG A   1      -5.982   3.772 124.913  0.00  0.00    +0.034 A 
ATOM     12  C   LIG A   1      -4.841   4.452 125.627  0.00  0.00    +0.051 C 
ENDROOT
BRANCH   5  13
ATOM     13  C   LIG A   1      -8.402  -0.706 123.683  0.00  0.00    -0.007 A 
ATOM     14  C   LIG A   1      -8.628  -1.797 124.539  0.00  0.00    +0.011 A 
ATOM     15  C   LIG A   1      -7.703  -2.847 124.622  0.00  0.00    +0.046 A 
ATOM     16  C   LIG A   1      -6.535  -2.832 123.858  0.00  0.00    +0.120 A 
ATOM     17  C   LIG A   1      -6.300  -1.757 123.010  0.00  0.00    +0.046 A 
ATOM     18  C   LIG A   1      -7.217  -0.703 122.931  0.00  0.00    +0.011 A 
BRANCH  16  19
ATOM     19  O   LIG A   1      -5.709  -3.910 124.028  0.00  0.00    -0.495 OA
ATOM     20  C   LIG A   1      -4.376  -3.771 123.549  0.00  0.00    +0.277 C 
ENDBRANCH  16  19
ENDBRANCH   5  13
BRANCH   1  21
ATOM     21  O   LIG A   1      -6.775   2.998 127.020  0.00  0.00    -0.506 OA
ATOM     22  H   LIG A   1      -6.780   3.924 127.351  0.00  0.00    +0.292 HD
ENDBRANCH   1  21
BRANCH  10  23
ATOM     23  O   LIG A   1      -5.179   4.577 122.839  0.00  0.00    -0.495 OA
ATOM     24  C   LIG A   1      -5.033   4.347 121.442  0.00  0.00    +0.277 C 
ENDBRANCH  10  23
TORSDOF 4
ENDMDL
MODEL 4
REMARK VINA RESULT:      -6.9      1.626      2.199
REMARK  Name = NuBBE_2006
REMARK  7 active torsions:
REMARK  status: ('A' for Active; 'I' for Inactive)
REMARK    1  A    between atoms: O_1  and  C_2
REMARK    2  A    between atoms: C_6  and  C_8
REMARK    3  A    between atoms: C_11  and  O_12
REMARK    4  A    between atoms: O_12  and  C_13
REMARK    5  A    between atoms: C_20  and  O_21
REMARK    6  A    between atoms: O_21  and  C_22
REMARK    7  A    between atoms: C_23  and  C_24
REMARK                            x       y       z     vdW  Elec       q    Type
REMARK                         _______ _______ _______ _____ _____    ______ ____
ROOT
ATOM      1  C   LIG A   1      -8.961  -0.439 123.791  0.00  0.00    +0.137 A 
ATOM      2  C   LIG A   1      -8.315   0.717 124.243  0.00  0.00    +0.101 A 
ATOM      3  C   LIG A   1      -9.058   1.930 124.630  0.00  0.00    +0.174 C 
ATOM      4  C   LIG A   1      -8.242   3.088 125.137  0.00  0.00    +0.129 C 
ATOM      5  C   LIG A   1      -6.897   3.097 124.417  0.00  0.00    +0.211 C 
ATOM      6  O   LIG A   1      -6.206   1.860 124.681  0.00  0.00    -0.483 OA
ATOM      7  O   LIG A   1     -10.283   1.953 124.569  0.00  0.00    -0.292 OA
ATOM      8  C   LIG A   1      -6.928   0.740 124.353  0.00  0.00    +0.139 A 
ATOM      9  C   LIG A   1      -6.191  -0.416 124.113  0.00  0.00    +0.092 A 
ATOM     10  C   LIG A   1      -6.825  -1.585 123.674  0.00  0.00    +0.130 A 
ATOM     11  C   LIG A   1      -8.225  -1.599 123.494  0.00  0.00    +0.034 A 
ATOM     12  C   LIG A   1      -8.935  -2.803 122.930  0.00  0.00    +0.051 C 
ENDROOT
BRANCH   5  13
ATOM     13  C   LIG A   1      -6.902   3.436 122.925  0.00  0.00    -0.007 A 
ATOM     14  C   LIG A   1      -5.710   3.830 122.295  0.00  0.00    +0.011 A 
ATOM     15  C   LIG A   1      -5.692   4.154 120.931  0.00  0.00    +0.046 A 
ATOM     16  C   LIG A   1      -6.859   4.093 120.168  0.00  0.00    +0.120 A 
ATOM     17  C   LIG A   1      -8.045   3.707 120.781  0.00  0.00    +0.046 A 
ATOM     18  C   LIG A   1      -8.067   3.392 122.144  0.00  0.00    +0.011 A 
BRANCH  16  19
ATOM     19  O   LIG A   1      -6.716   4.436 118.851  0.00  0.00    -0.495 OA
ATOM     20  C   LIG A   1      -5.962   5.612 118.578  0.00  0.00    +0.277 C 
ENDBRANCH  16  19
ENDBRANCH   5  13
BRANCH   1  21
ATOM     21  O   LIG A   1     -10.323  -0.478 123.614  0.00  0.00    -0.506 OA
ATOM     22  H   LIG A   1     -10.596  -1.417 123.507  0.00  0.00    +0.292 HD
ENDBRANCH   1  21
BRANCH  10  23
ATOM     23  O   LIG A   1      -6.161  -2.749 123.383  0.00  0.00    -0.495 OA
ATOM     24  C   LIG A   1      -4.786  -2.822 123.742  0.00  0.00    +0.277 C 
ENDBRANCH  10  23
TORSDOF 4
ENDMDL
MODEL 5
REMARK VINA RESULT:      -6.8      2.589      6.461
REMARK  Name = NuBBE_2006
REMARK  7 active torsions:
REMARK  status: ('A' for Active; 'I' for Inactive)
REMARK    1  A    between atoms: O_1  and  C_2
REMARK    2  A    between atoms: C_6  and  C_8
REMARK    3  A    between atoms: C_11  and  O_12
REMARK    4  A    between atoms: O_12  and  C_13
REMARK    5  A    between atoms: C_20  and  O_21
REMARK    6  A    between atoms: O_21  and  C_22
REMARK    7  A    between atoms: C_23  and  C_24
REMARK                            x       y       z     vdW  Elec       q    Type
REMARK                         _______ _______ _______ _____ _____    ______ ____
ROOT
ATOM      1  C   LIG A   1      -8.674   1.905 124.404  0.00  0.00    +0.137 A 
ATOM      2  C   LIG A   1      -8.253   0.649 123.953  0.00  0.00    +0.101 A 
ATOM      3  C   LIG A   1      -9.182  -0.310 123.328  0.00  0.00    +0.174 C 
ATOM      4  C   LIG A   1      -8.589  -1.609 122.849  0.00  0.00    +0.129 C 
ATOM      5  C   LIG A   1      -7.444  -2.000 123.778  0.00  0.00    +0.211 C 
ATOM      6  O   LIG A   1      -6.438  -0.967 123.757  0.00  0.00    -0.483 OA
ATOM      7  O   LIG A   1     -10.365  -0.024 123.182  0.00  0.00    -0.292 OA
ATOM      8  C   LIG A   1      -6.917   0.280 124.072  0.00  0.00    +0.139 A 
ATOM      9  C   LIG A   1      -5.981   1.195 124.546  0.00  0.00    +0.092 A 
ATOM     10  C   LIG A   1      -6.385   2.460 124.988  0.00  0.00    +0.130 A 
ATOM     11  C   LIG A   1      -7.749   2.820 124.934  0.00  0.00    +0.034 A 
ATOM     12  C   LIG A   1      -8.239   4.132 125.490  0.00  0.00    +0.051 C 
ENDROOT
BRANCH   5  13
ATOM     13  C   LIG A   1      -7.807  -2.409 125.206  0.00  0.00    -0.007 A 
ATOM     14  C   LIG A   1      -6.938  -2.095 126.264  0.00  0.00    +0.011 A 
ATOM     15  C   LIG A   1      -7.246  -2.467 127.580  0.00  0.00    +0.046 A 
ATOM     16  C   LIG A   1      -8.423  -3.160 127.870  0.00  0.00    +0.120 A 
ATOM     17  C   LIG A   1      -9.288  -3.479 126.830  0.00  0.00    +0.046 A 
ATOM     18  C   LIG A   1      -8.980  -3.116 125.515  0.00  0.00    +0.011 A 
BRANCH  16  19
ATOM     19  O   LIG A   1      -8.610  -3.471 129.189  0.00  0.00    -0.495 OA
ATOM     20  C   LIG A   1      -7.538  -3.165 130.073  0.00  0.00    +0.277 C 
ENDBRANCH  16  19
ENDBRANCH   5  13
BRANCH   1  21
ATOM     21  O   LIG A   1      -9.995   2.280 124.356  0.00  0.00    -0.506 OA
ATOM     22  H   LIG A   1     -10.281   2.295 123.416  0.00  0.00    +0.292 HD
ENDBRANCH   1  21
BRANCH  10  23
ATOM     23  O   LIG A   1      -5.526   3.398 125.501  0.00  0.00    -0.495 OA
ATOM     24  C   LIG A   1      -4.501   2.935 126.374  0.00  0.00    +0.277 C 
ENDBRANCH  10  23
TORSDOF 4
ENDMDL
MODEL 6
REMARK VINA RESULT:      -6.6      1.436      1.934
REMARK  Name = NuBBE_2006
REMARK  7 active torsions:
REMARK  status: ('A' for Active; 'I' for Inactive)
REMARK    1  A    between atoms: O_1  and  C_2
REMARK    2  A    between atoms: C_6  and  C_8
REMARK    3  A    between atoms: C_11  and  O_12
REMARK    4  A    between atoms: O_12  and  C_13
REMARK    5  A    between atoms: C_20  and  O_21
REMARK    6  A    between atoms: O_21  and  C_22
REMARK    7  A    between atoms: C_23  and  C_24
REMARK                            x       y       z     vdW  Elec       q    Type
REMARK                         _______ _______ _______ _____ _____    ______ ____
ROOT
ATOM      1  C   LIG A   1      -7.597  -1.204 125.134  0.00  0.00    +0.137 A 
ATOM      2  C   LIG A   1      -8.492  -0.213 124.717  0.00  0.00    +0.101 A 
ATOM      3  C   LIG A   1      -9.150  -0.256 123.399  0.00  0.00    +0.174 C 
ATOM      4  C   LIG A   1     -10.122   0.852 123.094  0.00  0.00    +0.129 C 
ATOM      5  C   LIG A   1      -9.643   2.130 123.775  0.00  0.00    +0.211 C 
ATOM      6  O   LIG A   1      -9.578   1.916 125.200  0.00  0.00    -0.483 OA
ATOM      7  O   LIG A   1      -8.928  -1.179 122.624  0.00  0.00    -0.292 OA
ATOM      8  C   LIG A   1      -8.798   0.847 125.565  0.00  0.00    +0.139 A 
ATOM      9  C   LIG A   1      -8.296   0.869 126.863  0.00  0.00    +0.092 A 
ATOM     10  C   LIG A   1      -7.410  -0.124 127.299  0.00  0.00    +0.130 A 
ATOM     11  C   LIG A   1      -7.040  -1.167 126.424  0.00  0.00    +0.034 A 
ATOM     12  C   LIG A   1      -6.015  -2.199 126.818  0.00  0.00    +0.051 C 
ENDROOT
BRANCH   5  13
ATOM     13  C   LIG A   1      -8.363   2.774 123.240  0.00  0.00    -0.007 A 
ATOM     14  C   LIG A   1      -8.230   3.021 121.863  0.00  0.00    +0.011 A 
ATOM     15  C   LIG A   1      -7.062   3.602 121.349  0.00  0.00    +0.046 A 
ATOM     16  C   LIG A   1      -6.005   3.948 122.192  0.00  0.00    +0.120 A 
ATOM     17  C   LIG A   1      -6.125   3.705 123.555  0.00  0.00    +0.046 A 
ATOM     18  C   LIG A   1      -7.285   3.118 124.071  0.00  0.00    +0.011 A 
BRANCH  16  19
ATOM     19  O   LIG A   1      -4.918   4.503 121.573  0.00  0.00    -0.495 OA
ATOM     20  C   LIG A   1      -5.124   5.004 120.257  0.00  0.00    +0.277 C 
ENDBRANCH  16  19
ENDBRANCH   5  13
BRANCH   1  21
ATOM     21  O   LIG A   1      -7.226  -2.233 124.303  0.00  0.00    -0.506 OA
ATOM     22  H   LIG A   1      -6.288  -2.462 124.489  0.00  0.00    +0.292 HD
ENDBRANCH   1  21
BRANCH  10  23
ATOM     23  O   LIG A   1      -6.847  -0.146 128.549  0.00  0.00    -0.495 OA
ATOM     24  C   LIG A   1      -7.448   0.668 129.550  0.00  0.00    +0.277 C 
ENDBRANCH  10  23
TORSDOF 4
ENDMDL
MODEL 7
REMARK VINA RESULT:      -6.5      4.145      6.783
REMARK  Name = NuBBE_2006
REMARK  7 active torsions:
REMARK  status: ('A' for Active; 'I' for Inactive)
REMARK    1  A    between atoms: O_1  and  C_2
REMARK    2  A    between atoms: C_6  and  C_8
REMARK    3  A    between atoms: C_11  and  O_12
REMARK    4  A    between atoms: O_12  and  C_13
REMARK    5  A    between atoms: C_20  and  O_21
REMARK    6  A    between atoms: O_21  and  C_22
REMARK    7  A    between atoms: C_23  and  C_24
REMARK                            x       y       z     vdW  Elec       q    Type
REMARK                         _______ _______ _______ _____ _____    ______ ____
ROOT
ATOM      1  C   LIG A   1      -8.901  -2.785 125.717  0.00  0.00    +0.137 A 
ATOM      2  C   LIG A   1      -8.062  -2.868 126.834  0.00  0.00    +0.101 A 
ATOM      3  C   LIG A   1      -8.489  -3.516 128.088  0.00  0.00    +0.174 C 
ATOM      4  C   LIG A   1      -7.473  -3.573 129.197  0.00  0.00    +0.129 C 
ATOM      5  C   LIG A   1      -6.596  -2.326 129.127  0.00  0.00    +0.211 C 
ATOM      6  O   LIG A   1      -5.925  -2.284 127.852  0.00  0.00    -0.483 OA
ATOM      7  O   LIG A   1      -9.607  -4.010 128.183  0.00  0.00    -0.292 OA
ATOM      8  C   LIG A   1      -6.775  -2.344 126.776  0.00  0.00    +0.139 A 
ATOM      9  C   LIG A   1      -6.285  -1.830 125.578  0.00  0.00    +0.092 A 
ATOM     10  C   LIG A   1      -7.109  -1.754 124.448  0.00  0.00    +0.130 A 
ATOM     11  C   LIG A   1      -8.439  -2.221 124.517  0.00  0.00    +0.034 A 
ATOM     12  C   LIG A   1      -9.387  -2.067 123.356  0.00  0.00    +0.051 C 
ENDROOT
BRANCH   5  13
ATOM     13  C   LIG A   1      -7.253  -0.986 129.466  0.00  0.00    -0.007 A 
ATOM     14  C   LIG A   1      -8.039  -0.867 130.624  0.00  0.00    +0.011 A 
ATOM     15  C   LIG A   1      -8.658   0.348 130.949  0.00  0.00    +0.046 A 
ATOM     16  C   LIG A   1      -8.508   1.468 130.129  0.00  0.00    +0.120 A 
ATOM     17  C   LIG A   1      -7.736   1.360 128.979  0.00  0.00    +0.046 A 
ATOM     18  C   LIG A   1      -7.124   0.147 128.647  0.00  0.00    +0.011 A 
BRANCH  16  19
ATOM     19  O   LIG A   1      -9.163   2.594 130.549  0.00  0.00    -0.495 OA
ATOM     20  C   LIG A   1      -9.363   2.727 131.952  0.00  0.00    +0.277 C 
ENDBRANCH  16  19
ENDBRANCH   5  13
BRANCH   1  21
ATOM     21  O   LIG A   1     -10.198  -3.239 125.757  0.00  0.00    -0.506 OA
ATOM     22  H   LIG A   1     -10.359  -3.792 124.960  0.00  0.00    +0.292 HD
ENDBRANCH   1  21
BRANCH  10  23
ATOM     23  O   LIG A   1      -6.707  -1.226 123.248  0.00  0.00    -0.495 OA
ATOM     24  C   LIG A   1      -5.881  -2.038 122.422  0.00  0.00    +0.277 C 
ENDBRANCH  10  23
TORSDOF 4
ENDMDL
MODEL 8
REMARK VINA RESULT:      -6.5      7.813      9.536
REMARK  Name = NuBBE_2006
REMARK  7 active torsions:
REMARK  status: ('A' for Active; 'I' for Inactive)
REMARK    1  A    between atoms: O_1  and  C_2
REMARK    2  A    between atoms: C_6  and  C_8
REMARK    3  A    between atoms: C_11  and  O_12
REMARK    4  A    between atoms: O_12  and  C_13
REMARK    5  A    between atoms: C_20  and  O_21
REMARK    6  A    between atoms: O_21  and  C_22
REMARK    7  A    between atoms: C_23  and  C_24
REMARK                            x       y       z     vdW  Elec       q    Type
REMARK                         _______ _______ _______ _____ _____    ______ ____
ROOT
ATOM      1  C   LIG A   1      -6.425   2.468 131.551  0.00  0.00    +0.137 A 
ATOM      2  C   LIG A   1      -6.915   3.374 132.499  0.00  0.00    +0.101 A 
ATOM      3  C   LIG A   1      -8.139   3.108 133.275  0.00  0.00    +0.174 C 
ATOM      4  C   LIG A   1      -8.532   4.146 134.292  0.00  0.00    +0.129 C 
ATOM      5  C   LIG A   1      -8.123   5.522 133.775  0.00  0.00    +0.211 C 
ATOM      6  O   LIG A   1      -6.695   5.552 133.573  0.00  0.00    -0.483 OA
ATOM      7  O   LIG A   1      -8.766   2.067 133.110  0.00  0.00    -0.292 OA
ATOM      8  C   LIG A   1      -6.232   4.560 132.744  0.00  0.00    +0.139 A 
ATOM      9  C   LIG A   1      -5.010   4.802 132.123  0.00  0.00    +0.092 A 
ATOM     10  C   LIG A   1      -4.500   3.898 131.183  0.00  0.00    +0.130 A 
ATOM     11  C   LIG A   1      -5.219   2.723 130.877  0.00  0.00    +0.034 A 
ATOM     12  C   LIG A   1      -4.756   1.775 129.801  0.00  0.00    +0.051 C 
ENDROOT
BRANCH   5  13
ATOM     13  C   LIG A   1      -8.878   6.069 132.561  0.00  0.00    -0.007 A 
ATOM     14  C   LIG A   1     -10.277   5.951 132.499  0.00  0.00    +0.011 A 
ATOM     15  C   LIG A   1     -10.988   6.436 131.393  0.00  0.00    +0.046 A 
ATOM     16  C   LIG A   1     -10.324   7.048 130.328  0.00  0.00    +0.120 A 
ATOM     17  C   LIG A   1      -8.941   7.168 130.379  0.00  0.00    +0.046 A 
ATOM     18  C   LIG A   1      -8.227   6.677 131.477  0.00  0.00    +0.011 A 
BRANCH  16  19
ATOM     19  O   LIG A   1     -11.126   7.477 129.306  0.00  0.00    -0.495 OA
ATOM     20  C   LIG A   1     -10.510   8.292 128.314  0.00  0.00    +0.277 C 
ENDBRANCH  16  19
ENDBRANCH   5  13
BRANCH   1  21
ATOM     21  O   LIG A   1      -7.104   1.315 131.241  0.00  0.00    -0.506 OA
ATOM     22  H   LIG A   1      -6.524   0.755 130.677  0.00  0.00    +0.292 HD
ENDBRANCH   1  21
BRANCH  10  23
ATOM     23  O   LIG A   1      -3.323   4.088 130.505  0.00  0.00    -0.495 OA
ATOM     24  C   LIG A   1      -2.915   5.432 130.270  0.00  0.00    +0.277 C 
ENDBRANCH  10  23
TORSDOF 4
ENDMDL
MODEL 9
REMARK VINA RESULT:      -6.4      7.462      8.875
REMARK  Name = NuBBE_2006
REMARK  7 active torsions:
REMARK  status: ('A' for Active; 'I' for Inactive)
REMARK    1  A    between atoms: O_1  and  C_2
REMARK    2  A    between atoms: C_6  and  C_8
REMARK    3  A    between atoms: C_11  and  O_12
REMARK    4  A    between atoms: O_12  and  C_13
REMARK    5  A    between atoms: C_20  and  O_21
REMARK    6  A    between atoms: O_21  and  C_22
REMARK    7  A    between atoms: C_23  and  C_24
REMARK                            x       y       z     vdW  Elec       q    Type
REMARK                         _______ _______ _______ _____ _____    ______ ____
ROOT
ATOM      1  C   LIG A   1      -8.915   2.479 130.239  0.00  0.00    +0.137 A 
ATOM      2  C   LIG A   1      -9.169   3.594 131.047  0.00  0.00    +0.101 A 
ATOM      3  C   LIG A   1      -9.676   4.862 130.493  0.00  0.00    +0.174 C 
ATOM      4  C   LIG A   1      -9.945   5.968 131.478  0.00  0.00    +0.129 C 
ATOM      5  C   LIG A   1      -8.937   5.869 132.619  0.00  0.00    +0.211 C 
ATOM      6  O   LIG A   1      -9.077   4.590 133.270  0.00  0.00    -0.483 OA
ATOM      7  O   LIG A   1      -9.895   4.972 129.292  0.00  0.00    -0.292 OA
ATOM      8  C   LIG A   1      -8.959   3.519 132.419  0.00  0.00    +0.139 A 
ATOM      9  C   LIG A   1      -8.595   2.309 133.004  0.00  0.00    +0.092 A 
ATOM     10  C   LIG A   1      -8.352   1.181 132.210  0.00  0.00    +0.130 A 
ATOM     11  C   LIG A   1      -8.496   1.265 130.809  0.00  0.00    +0.034 A 
ATOM     12  C   LIG A   1      -8.149   0.105 129.911  0.00  0.00    +0.051 C 
ENDROOT
BRANCH   5  13
ATOM     13  C   LIG A   1      -7.475   6.182 132.293  0.00  0.00    -0.007 A 
ATOM     14  C   LIG A   1      -7.158   6.894 131.124  0.00  0.00    +0.011 A 
ATOM     15  C   LIG A   1      -5.825   7.184 130.801  0.00  0.00    +0.046 A 
ATOM     16  C   LIG A   1      -4.782   6.772 131.632  0.00  0.00    +0.120 A 
ATOM     17  C   LIG A   1      -5.085   6.065 132.790  0.00  0.00    +0.046 A 
ATOM     18  C   LIG A   1      -6.413   5.766 133.111  0.00  0.00    +0.011 A 
BRANCH  16  19
ATOM     19  O   LIG A   1      -3.526   7.111 131.209  0.00  0.00    -0.495 OA
ATOM     20  C   LIG A   1      -2.960   6.301 130.185  0.00  0.00    +0.277 C 
ENDBRANCH  16  19
ENDBRANCH   5  13
BRANCH   1  21
ATOM     21  O   LIG A   1      -9.055   2.534 128.874  0.00  0.00    -0.506 OA
ATOM     22  H   LIG A   1      -8.900   3.460 128.581  0.00  0.00    +0.292 HD
ENDBRANCH   1  21
BRANCH  10  23
ATOM     23  O   LIG A   1      -7.955  -0.031 132.712  0.00  0.00    -0.495 OA
ATOM     24  C   LIG A   1      -6.646  -0.111 133.267  0.00  0.00    +0.277 C 
ENDBRANCH  10  23
TORSDOF 4
ENDMDL
