MODEL 1
REMARK VINA RESULT:      -6.6      0.000      0.000
REMARK  Name = NuBBE_940
REMARK  5 active torsions:
REMARK  status: ('A' for Active; 'I' for Inactive)
REMARK    1  A    between atoms: C_3  and  C_13
REMARK    2  A    between atoms: C_6  and  C_8
REMARK    3  A    between atoms: C_8  and  C_10
REMARK    4  A    between atoms: C_8  and  C_11
REMARK    5  A    between atoms: C_15  and  C_16
REMARK                            x       y       z     vdW  Elec       q    Type
REMARK                         _______ _______ _______ _____ _____    ______ ____
ROOT
ATOM      1  C   LIG A   1      -7.143  -3.294 124.987  0.00  0.00    +0.003 C 
ATOM      2  C   LIG A   1      -8.623  -2.779 124.704  0.00  0.00    -0.022 C 
ATOM      3  C   LIG A   1      -9.655  -3.155 125.795  0.00  0.00    +0.008 C 
ATOM      4  C   LIG A   1      -8.975  -3.397 127.138  0.00  0.00    +0.004 C 
ATOM      5  C   LIG A   1      -7.841  -2.393 127.402  0.00  0.00    -0.004 C 
ATOM      6  C   LIG A   1      -7.111  -2.138 126.066  0.00  0.00    +0.004 C 
ATOM      7  C   LIG A   1      -9.234  -3.024 123.326  0.00  0.00    +0.012 C 
ATOM      8  C   LIG A   1      -7.989  -1.357 125.004  0.00  0.00    +0.024 C 
ATOM      9  C   LIG A   1      -7.139  -0.800 123.892  0.00  0.00    -0.073 C 
ATOM     10  C   LIG A   1      -7.348   0.614 123.463  0.00  0.00    +0.039 C 
ATOM     11  C   LIG A   1      -6.229  -1.642 123.366  0.00  0.00    -0.027 C 
ATOM     12  C   LIG A   1      -6.112  -3.063 123.864  0.00  0.00    +0.031 C 
ENDROOT
BRANCH   5  13
ATOM     13  C   LIG A   1      -6.852  -2.888 128.496  0.00  0.00    -0.014 C 
ATOM     14  C   LIG A   1      -5.472  -2.229 128.352  0.00  0.00    +0.007 C 
ATOM     15  C   LIG A   1      -7.364  -2.615 129.916  0.00  0.00    +0.007 C 
ENDBRANCH   5  13
TORSDOF 1
ENDMDL
MODEL 2
REMARK VINA RESULT:      -6.6      9.422     11.135
REMARK  Name = NuBBE_940
REMARK  5 active torsions:
REMARK  status: ('A' for Active; 'I' for Inactive)
REMARK    1  A    between atoms: C_3  and  C_13
REMARK    2  A    between atoms: C_6  and  C_8
REMARK    3  A    between atoms: C_8  and  C_10
REMARK    4  A    between atoms: C_8  and  C_11
REMARK    5  A    between atoms: C_15  and  C_16
REMARK                            x       y       z     vdW  Elec       q    Type
REMARK                         _______ _______ _______ _____ _____    ______ ____
ROOT
ATOM      1  C   LIG A   1      -9.885   7.117 130.498  0.00  0.00    +0.003 C 
ATOM      2  C   LIG A   1     -10.669   6.213 131.550  0.00  0.00    -0.022 C 
ATOM      3  C   LIG A   1     -12.113   6.681 131.851  0.00  0.00    +0.008 C 
ATOM      4  C   LIG A   1     -12.679   7.501 130.697  0.00  0.00    +0.004 C 
ATOM      5  C   LIG A   1     -12.280   6.927 129.328  0.00  0.00    -0.004 C 
ATOM      6  C   LIG A   1     -10.825   6.420 129.432  0.00  0.00    +0.004 C 
ATOM      7  C   LIG A   1      -9.975   5.844 132.859  0.00  0.00    +0.012 C 
ATOM      8  C   LIG A   1     -10.661   5.154 130.369  0.00  0.00    +0.024 C 
ATOM      9  C   LIG A   1      -9.337   4.472 130.145  0.00  0.00    -0.073 C 
ATOM     10  C   LIG A   1      -9.307   2.988 129.995  0.00  0.00    +0.039 C 
ATOM     11  C   LIG A   1      -8.260   5.278 130.088  0.00  0.00    -0.027 C 
ATOM     12  C   LIG A   1      -8.401   6.770 130.270  0.00  0.00    +0.031 C 
ENDROOT
BRANCH   5  13
ATOM     13  C   LIG A   1     -12.430   7.967 128.181  0.00  0.00    -0.014 C 
ATOM     14  C   LIG A   1     -12.948   9.315 128.702  0.00  0.00    +0.007 C 
ATOM     15  C   LIG A   1     -11.110   8.218 127.441  0.00  0.00    +0.007 C 
ENDBRANCH   5  13
TORSDOF 1
ENDMDL
MODEL 3
REMARK VINA RESULT:      -6.5      1.775      4.241
REMARK  Name = NuBBE_940
REMARK  5 active torsions:
REMARK  status: ('A' for Active; 'I' for Inactive)
REMARK    1  A    between atoms: C_3  and  C_13
REMARK    2  A    between atoms: C_6  and  C_8
REMARK    3  A    between atoms: C_8  and  C_10
REMARK    4  A    between atoms: C_8  and  C_11
REMARK    5  A    between atoms: C_15  and  C_16
REMARK                            x       y       z     vdW  Elec       q    Type
REMARK                         _______ _______ _______ _____ _____    ______ ____
ROOT
ATOM      1  C   LIG A   1      -7.645  -1.246 125.246  0.00  0.00    +0.003 C 
ATOM      2  C   LIG A   1      -8.096  -2.150 124.014  0.00  0.00    -0.022 C 
ATOM      3  C   LIG A   1      -9.131  -1.487 123.074  0.00  0.00    +0.008 C 
ATOM      4  C   LIG A   1      -9.060   0.034 123.159  0.00  0.00    +0.004 C 
ATOM      5  C   LIG A   1      -7.613   0.542 123.261  0.00  0.00    -0.004 C 
ATOM      6  C   LIG A   1      -6.827  -0.440 124.158  0.00  0.00    +0.004 C 
ATOM      7  C   LIG A   1      -8.507  -3.596 124.278  0.00  0.00    +0.012 C 
ATOM      8  C   LIG A   1      -6.620  -1.867 123.505  0.00  0.00    +0.024 C 
ATOM      9  C   LIG A   1      -5.548  -2.648 124.219  0.00  0.00    -0.073 C 
ATOM     10  C   LIG A   1      -4.507  -3.348 123.412  0.00  0.00    +0.039 C 
ATOM     11  C   LIG A   1      -5.612  -2.644 125.564  0.00  0.00    -0.027 C 
ATOM     12  C   LIG A   1      -6.721  -1.914 126.283  0.00  0.00    +0.031 C 
ENDROOT
BRANCH   5  13
ATOM     13  C   LIG A   1      -7.530   1.994 123.812  0.00  0.00    -0.014 C 
ATOM     14  C   LIG A   1      -8.853   2.432 124.457  0.00  0.00    +0.007 C 
ATOM     15  C   LIG A   1      -6.415   2.163 124.852  0.00  0.00    +0.007 C 
ENDBRANCH   5  13
TORSDOF 1
ENDMDL
MODEL 4
REMARK VINA RESULT:      -6.4      1.199      2.743
REMARK  Name = NuBBE_940
REMARK  5 active torsions:
REMARK  status: ('A' for Active; 'I' for Inactive)
REMARK    1  A    between atoms: C_3  and  C_13
REMARK    2  A    between atoms: C_6  and  C_8
REMARK    3  A    between atoms: C_8  and  C_10
REMARK    4  A    between atoms: C_8  and  C_11
REMARK    5  A    between atoms: C_15  and  C_16
REMARK                            x       y       z     vdW  Elec       q    Type
REMARK                         _______ _______ _______ _____ _____    ______ ____
ROOT
ATOM      1  C   LIG A   1      -8.655  -1.923 125.680  0.00  0.00    +0.003 C 
ATOM      2  C   LIG A   1      -7.513  -0.831 125.477  0.00  0.00    -0.022 C 
ATOM      3  C   LIG A   1      -7.299   0.110 126.688  0.00  0.00    +0.008 C 
ATOM      4  C   LIG A   1      -7.769  -0.543 127.983  0.00  0.00    +0.004 C 
ATOM      5  C   LIG A   1      -7.412  -2.038 128.042  0.00  0.00    -0.004 C 
ATOM      6  C   LIG A   1      -7.601  -2.627 126.627  0.00  0.00    +0.004 C 
ATOM      7  C   LIG A   1      -7.507  -0.008 124.191  0.00  0.00    +0.012 C 
ATOM      8  C   LIG A   1      -6.550  -2.088 125.572  0.00  0.00    +0.024 C 
ATOM      9  C   LIG A   1      -6.520  -2.950 124.337  0.00  0.00    -0.073 C 
ATOM     10  C   LIG A   1      -5.199  -3.372 123.784  0.00  0.00    +0.039 C 
ATOM     11  C   LIG A   1      -7.717  -3.288 123.823  0.00  0.00    -0.027 C 
ATOM     12  C   LIG A   1      -8.996  -2.791 124.453  0.00  0.00    +0.031 C 
ENDROOT
BRANCH   5  13
ATOM     13  C   LIG A   1      -8.262  -2.811 129.089  0.00  0.00    -0.014 C 
ATOM     14  C   LIG A   1      -8.948  -4.037 128.468  0.00  0.00    +0.007 C 
ATOM     15  C   LIG A   1      -7.428  -3.288 130.285  0.00  0.00    +0.007 C 
ENDBRANCH   5  13
TORSDOF 1
ENDMDL
MODEL 5
REMARK VINA RESULT:      -6.3      1.809      4.684
REMARK  Name = NuBBE_940
REMARK  5 active torsions:
REMARK  status: ('A' for Active; 'I' for Inactive)
REMARK    1  A    between atoms: C_3  and  C_13
REMARK    2  A    between atoms: C_6  and  C_8
REMARK    3  A    between atoms: C_8  and  C_10
REMARK    4  A    between atoms: C_8  and  C_11
REMARK    5  A    between atoms: C_15  and  C_16
REMARK                            x       y       z     vdW  Elec       q    Type
REMARK                         _______ _______ _______ _____ _____    ______ ____
ROOT
ATOM      1  C   LIG A   1      -7.947  -1.257 123.710  0.00  0.00    +0.003 C 
ATOM      2  C   LIG A   1      -6.794  -1.460 124.790  0.00  0.00    -0.022 C 
ATOM      3  C   LIG A   1      -5.966  -0.188 125.095  0.00  0.00    +0.008 C 
ATOM      4  C   LIG A   1      -6.760   1.075 124.780  0.00  0.00    +0.004 C 
ATOM      5  C   LIG A   1      -8.237   0.948 125.188  0.00  0.00    -0.004 C 
ATOM      6  C   LIG A   1      -8.694  -0.494 124.876  0.00  0.00    +0.004 C 
ATOM      7  C   LIG A   1      -5.851  -2.651 124.640  0.00  0.00    +0.012 C 
ATOM      8  C   LIG A   1      -8.012  -1.587 125.797  0.00  0.00    +0.024 C 
ATOM      9  C   LIG A   1      -8.750  -2.899 125.730  0.00  0.00    -0.073 C 
ATOM     10  C   LIG A   1      -9.061  -3.617 127.000  0.00  0.00    +0.039 C 
ATOM     11  C   LIG A   1      -9.085  -3.325 124.498  0.00  0.00    -0.027 C 
ATOM     12  C   LIG A   1      -8.706  -2.526 123.274  0.00  0.00    +0.031 C 
ENDROOT
BRANCH   5  13
ATOM     13  C   LIG A   1      -9.143   1.991 124.473  0.00  0.00    -0.014 C 
ATOM     14  C   LIG A   1      -8.446   2.603 123.249  0.00  0.00    +0.007 C 
ATOM     15  C   LIG A   1     -10.476   1.389 124.010  0.00  0.00    +0.007 C 
ENDBRANCH   5  13
TORSDOF 1
ENDMDL
MODEL 6
REMARK VINA RESULT:      -6.2      9.365     11.391
REMARK  Name = NuBBE_940
REMARK  5 active torsions:
REMARK  status: ('A' for Active; 'I' for Inactive)
REMARK    1  A    between atoms: C_3  and  C_13
REMARK    2  A    between atoms: C_6  and  C_8
REMARK    3  A    between atoms: C_8  and  C_10
REMARK    4  A    between atoms: C_8  and  C_11
REMARK    5  A    between atoms: C_15  and  C_16
REMARK                            x       y       z     vdW  Elec       q    Type
REMARK                         _______ _______ _______ _____ _____    ______ ____
ROOT
ATOM      1  C   LIG A   1      -9.013   4.515 131.862  0.00  0.00    +0.003 C 
ATOM      2  C   LIG A   1      -7.883   5.637 131.909  0.00  0.00    -0.022 C 
ATOM      3  C   LIG A   1      -8.086   6.798 130.905  0.00  0.00    +0.008 C 
ATOM      4  C   LIG A   1      -9.554   6.944 130.521  0.00  0.00    +0.004 C 
ATOM      5  C   LIG A   1     -10.491   6.736 131.721  0.00  0.00    -0.004 C 
ATOM      6  C   LIG A   1      -9.906   5.600 132.589  0.00  0.00    +0.004 C 
ATOM      7  C   LIG A   1      -6.419   5.205 131.891  0.00  0.00    +0.012 C 
ATOM      8  C   LIG A   1      -8.548   5.988 133.306  0.00  0.00    +0.024 C 
ATOM      9  C   LIG A   1      -8.220   5.025 134.417  0.00  0.00    -0.073 C 
ATOM     10  C   LIG A   1      -7.789   5.568 135.739  0.00  0.00    +0.039 C 
ATOM     11  C   LIG A   1      -8.353   3.718 134.125  0.00  0.00    -0.027 C 
ATOM     12  C   LIG A   1      -8.781   3.274 132.746  0.00  0.00    +0.031 C 
ENDROOT
BRANCH   5  13
ATOM     13  C   LIG A   1     -11.950   6.415 131.288  0.00  0.00    -0.014 C 
ATOM     14  C   LIG A   1     -12.870   7.635 131.444  0.00  0.00    +0.007 C 
ATOM     15  C   LIG A   1     -12.037   5.935 129.834  0.00  0.00    +0.007 C 
ENDBRANCH   5  13
TORSDOF 1
ENDMDL
MODEL 7
REMARK VINA RESULT:      -6.0      1.215      4.712
REMARK  Name = NuBBE_940
REMARK  5 active torsions:
REMARK  status: ('A' for Active; 'I' for Inactive)
REMARK    1  A    between atoms: C_3  and  C_13
REMARK    2  A    between atoms: C_6  and  C_8
REMARK    3  A    between atoms: C_8  and  C_10
REMARK    4  A    between atoms: C_8  and  C_11
REMARK    5  A    between atoms: C_15  and  C_16
REMARK                            x       y       z     vdW  Elec       q    Type
REMARK                         _______ _______ _______ _____ _____    ______ ____
ROOT
ATOM      1  C   LIG A   1      -7.687  -1.293 127.941  0.00  0.00    +0.003 C 
ATOM      2  C   LIG A   1      -7.753  -2.628 128.808  0.00  0.00    -0.022 C 
ATOM      3  C   LIG A   1      -8.798  -3.661 128.322  0.00  0.00    +0.008 C 
ATOM      4  C   LIG A   1      -9.110  -3.475 126.841  0.00  0.00    +0.004 C 
ATOM      5  C   LIG A   1      -7.852  -3.144 126.022  0.00  0.00    -0.004 C 
ATOM      6  C   LIG A   1      -6.965  -2.207 126.871  0.00  0.00    +0.004 C 
ATOM      7  C   LIG A   1      -7.829  -2.511 130.329  0.00  0.00    +0.012 C 
ATOM      8  C   LIG A   1      -6.340  -2.911 128.145  0.00  0.00    +0.024 C 
ATOM      9  C   LIG A   1      -5.204  -2.103 128.716  0.00  0.00    -0.073 C 
ATOM     10  C   LIG A   1      -3.935  -2.799 129.078  0.00  0.00    +0.039 C 
ATOM     11  C   LIG A   1      -5.428  -0.782 128.850  0.00  0.00    -0.027 C 
ATOM     12  C   LIG A   1      -6.759  -0.181 128.468  0.00  0.00    +0.031 C 
ENDROOT
BRANCH   5  13
ATOM     13  C   LIG A   1      -8.191  -2.500 124.647  0.00  0.00    -0.014 C 
ATOM     14  C   LIG A   1      -6.945  -2.370 123.759  0.00  0.00    +0.007 C 
ATOM     15  C   LIG A   1      -9.247  -3.298 123.871  0.00  0.00    +0.007 C 
ENDBRANCH   5  13
TORSDOF 1
ENDMDL
MODEL 8
REMARK VINA RESULT:      -5.9      3.682      6.051
REMARK  Name = NuBBE_940
REMARK  5 active torsions:
REMARK  status: ('A' for Active; 'I' for Inactive)
REMARK    1  A    between atoms: C_3  and  C_13
REMARK    2  A    between atoms: C_6  and  C_8
REMARK    3  A    between atoms: C_8  and  C_10
REMARK    4  A    between atoms: C_8  and  C_11
REMARK    5  A    between atoms: C_15  and  C_16
REMARK                            x       y       z     vdW  Elec       q    Type
REMARK                         _______ _______ _______ _____ _____    ______ ____
ROOT
ATOM      1  C   LIG A   1      -6.117  -2.125 130.750  0.00  0.00    +0.003 C 
ATOM      2  C   LIG A   1      -5.430  -3.042 129.644  0.00  0.00    -0.022 C 
ATOM      3  C   LIG A   1      -4.267  -3.920 130.165  0.00  0.00    +0.008 C 
ATOM      4  C   LIG A   1      -4.399  -4.177 131.663  0.00  0.00    +0.004 C 
ATOM      5  C   LIG A   1      -5.857  -4.427 132.081  0.00  0.00    -0.004 C 
ATOM      6  C   LIG A   1      -6.757  -3.481 131.256  0.00  0.00    +0.004 C 
ATOM      7  C   LIG A   1      -5.027  -2.409 128.314  0.00  0.00    +0.012 C 
ATOM      8  C   LIG A   1      -6.802  -3.836 129.714  0.00  0.00    +0.024 C 
ATOM      9  C   LIG A   1      -7.958  -3.156 129.028  0.00  0.00    -0.073 C 
ATOM     10  C   LIG A   1      -8.819  -3.953 128.106  0.00  0.00    +0.039 C 
ATOM     11  C   LIG A   1      -8.130  -1.852 129.314  0.00  0.00    -0.027 C 
ATOM     12  C   LIG A   1      -7.187  -1.135 130.250  0.00  0.00    +0.031 C 
ENDROOT
BRANCH   5  13
ATOM     13  C   LIG A   1      -6.080  -4.223 133.607  0.00  0.00    -0.014 C 
ATOM     14  C   LIG A   1      -7.404  -3.500 133.895  0.00  0.00    +0.007 C 
ATOM     15  C   LIG A   1      -6.083  -5.548 134.381  0.00  0.00    +0.007 C 
ENDBRANCH   5  13
TORSDOF 1
ENDMDL
MODEL 9
REMARK VINA RESULT:      -5.9      7.646      9.794
REMARK  Name = NuBBE_940
REMARK  5 active torsions:
REMARK  status: ('A' for Active; 'I' for Inactive)
REMARK    1  A    between atoms: C_3  and  C_13
REMARK    2  A    between atoms: C_6  and  C_8
REMARK    3  A    between atoms: C_8  and  C_10
REMARK    4  A    between atoms: C_8  and  C_11
REMARK    5  A    between atoms: C_15  and  C_16
REMARK                            x       y       z     vdW  Elec       q    Type
REMARK                         _______ _______ _______ _____ _____    ______ ____
ROOT
ATOM      1  C   LIG A   1      -3.441   5.825 128.928  0.00  0.00    +0.003 C 
ATOM      2  C   LIG A   1      -4.527   5.453 130.033  0.00  0.00    -0.022 C 
ATOM      3  C   LIG A   1      -5.729   4.632 129.504  0.00  0.00    +0.008 C 
ATOM      4  C   LIG A   1      -5.358   3.864 128.240  0.00  0.00    +0.004 C 
ATOM      5  C   LIG A   1      -3.941   3.273 128.316  0.00  0.00    -0.004 C 
ATOM      6  C   LIG A   1      -3.036   4.299 129.033  0.00  0.00    +0.004 C 
ATOM      7  C   LIG A   1      -5.037   6.554 130.960  0.00  0.00    +0.012 C 
ATOM      8  C   LIG A   1      -3.386   4.489 130.566  0.00  0.00    +0.024 C 
ATOM      9  C   LIG A   1      -2.269   5.183 131.302  0.00  0.00    -0.073 C 
ATOM     10  C   LIG A   1      -1.815   4.629 132.611  0.00  0.00    +0.039 C 
ATOM     11  C   LIG A   1      -1.752   6.270 130.700  0.00  0.00    -0.027 C 
ATOM     12  C   LIG A   1      -2.298   6.756 129.379  0.00  0.00    +0.031 C 
ENDROOT
BRANCH   5  13
ATOM     13  C   LIG A   1      -3.373   2.909 126.914  0.00  0.00    -0.014 C 
ATOM     14  C   LIG A   1      -4.023   3.748 125.804  0.00  0.00    +0.007 C 
ATOM     15  C   LIG A   1      -1.854   3.103 126.828  0.00  0.00    +0.007 C 
ENDBRANCH   5  13
TORSDOF 1
ENDMDL
