MODEL 1
REMARK VINA RESULT:      -7.4      0.000      0.000
REMARK  Name = NuBBE_2427
REMARK  8 active torsions:
REMARK  status: ('A' for Active; 'I' for Inactive)
REMARK    1  A    between atoms: C_7  and  C_8
REMARK    2  A    between atoms: C_10  and  O_11
REMARK    3  A    between atoms: O_11  and  C_12
REMARK    4  A    between atoms: C_13  and  O_14
REMARK    5  A    between atoms: C_15  and  O_16
REMARK    6  A    between atoms: O_16  and  C_17
REMARK    7  A    between atoms: C_19  and  O_20
REMARK    8  A    between atoms: C_22  and  O_23
REMARK                            x       y       z     vdW  Elec       q    Type
REMARK                         _______ _______ _______ _____ _____    ______ ____
ROOT
ATOM      1  O   LIG A   1      -7.878   7.338 130.284  0.00  0.00    -0.454 OA
ATOM      2  C   LIG A   1      -9.252   7.346 130.215  0.00  0.00    +0.146 A 
ATOM      3  C   LIG A   1     -10.062   6.688 131.140  0.00  0.00    +0.105 A 
ATOM      4  C   LIG A   1      -9.414   5.964 132.233  0.00  0.00    +0.197 A 
ATOM      5  O   LIG A   1     -10.071   5.360 133.078  0.00  0.00    -0.287 OA
ATOM      6  C   LIG A   1      -7.950   5.996 132.282  0.00  0.00    +0.098 A 
ATOM      7  C   LIG A   1      -7.269   6.663 131.336  0.00  0.00    +0.140 A 
ATOM      8  C   LIG A   1     -11.456   6.727 131.015  0.00  0.00    +0.135 A 
ATOM      9  C   LIG A   1     -12.046   7.428 129.968  0.00  0.00    +0.091 A 
ATOM     10  C   LIG A   1     -11.230   8.085 129.050  0.00  0.00    +0.124 A 
ATOM     11  C   LIG A   1      -9.841   8.050 129.163  0.00  0.00    +0.092 A 
ENDROOT
BRANCH   7  12
ATOM     12  C   LIG A   1      -5.785   6.722 131.345  0.00  0.00    +0.025 A 
ATOM     13  C   LIG A   1      -5.053   6.344 132.487  0.00  0.00    +0.061 A 
ATOM     14  C   LIG A   1      -3.659   6.395 132.499  0.00  0.00    +0.166 A 
ATOM     15  C   LIG A   1      -2.973   6.851 131.364  0.00  0.00    +0.201 A 
ATOM     16  C   LIG A   1      -3.667   7.257 130.224  0.00  0.00    +0.166 A 
ATOM     17  C   LIG A   1      -5.069   7.174 130.222  0.00  0.00    +0.061 A 
BRANCH  14  18
ATOM     18  O   LIG A   1      -2.853   6.024 133.548  0.00  0.00    -0.491 OA
ATOM     19  C   LIG A   1      -3.303   4.942 134.354  0.00  0.00    +0.277 C 
ENDBRANCH  14  18
BRANCH  15  20
ATOM     20  O   LIG A   1      -1.602   6.850 131.417  0.00  0.00    -0.501 OA
ATOM     21  H   LIG A   1      -1.376   6.378 132.242  0.00  0.00    +0.292 HD
ENDBRANCH  15  20
BRANCH  16  22
ATOM     22  O   LIG A   1      -3.126   7.700 129.045  0.00  0.00    -0.491 OA
ATOM     23  C   LIG A   1      -2.868   6.706 128.057  0.00  0.00    +0.277 C 
ENDBRANCH  16  22
ENDBRANCH   7  12
BRANCH   8  24
ATOM     24  O   LIG A   1     -12.302   6.100 131.891  0.00  0.00    -0.506 OA
ATOM     25  H   LIG A   1     -13.226   6.253 131.589  0.00  0.00    +0.292 HD
ENDBRANCH   8  24
BRANCH  10  26
ATOM     26  O   LIG A   1     -11.765   8.786 128.010  0.00  0.00    -0.506 OA
ATOM     27  H   LIG A   1     -12.162   9.605 128.354  0.00  0.00    +0.292 HD
ENDBRANCH  10  26
TORSDOF 6
ENDMDL
MODEL 2
REMARK VINA RESULT:      -7.3      1.848      3.628
REMARK  Name = NuBBE_2427
REMARK  8 active torsions:
REMARK  status: ('A' for Active; 'I' for Inactive)
REMARK    1  A    between atoms: C_7  and  C_8
REMARK    2  A    between atoms: C_10  and  O_11
REMARK    3  A    between atoms: O_11  and  C_12
REMARK    4  A    between atoms: C_13  and  O_14
REMARK    5  A    between atoms: C_15  and  O_16
REMARK    6  A    between atoms: O_16  and  C_17
REMARK    7  A    between atoms: C_19  and  O_20
REMARK    8  A    between atoms: C_22  and  O_23
REMARK                            x       y       z     vdW  Elec       q    Type
REMARK                         _______ _______ _______ _____ _____    ______ ____
ROOT
ATOM      1  O   LIG A   1      -9.037   6.788 129.611  0.00  0.00    -0.454 OA
ATOM      2  C   LIG A   1     -10.210   6.969 128.914  0.00  0.00    +0.146 A 
ATOM      3  C   LIG A   1     -11.467   6.903 129.513  0.00  0.00    +0.105 A 
ATOM      4  C   LIG A   1     -11.534   6.633 130.949  0.00  0.00    +0.197 A 
ATOM      5  O   LIG A   1     -12.611   6.557 131.536  0.00  0.00    -0.287 OA
ATOM      6  C   LIG A   1     -10.262   6.466 131.659  0.00  0.00    +0.098 A 
ATOM      7  C   LIG A   1      -9.107   6.551 130.979  0.00  0.00    +0.140 A 
ATOM      8  C   LIG A   1     -12.626   7.091 128.751  0.00  0.00    +0.135 A 
ATOM      9  C   LIG A   1     -12.533   7.350 127.387  0.00  0.00    +0.091 A 
ATOM     10  C   LIG A   1     -11.274   7.418 126.797  0.00  0.00    +0.124 A 
ATOM     11  C   LIG A   1     -10.113   7.230 127.546  0.00  0.00    +0.092 A 
ENDROOT
BRANCH   7  12
ATOM     12  C   LIG A   1      -7.795   6.386 131.656  0.00  0.00    +0.025 A 
ATOM     13  C   LIG A   1      -6.609   6.849 131.055  0.00  0.00    +0.061 A 
ATOM     14  C   LIG A   1      -5.375   6.698 131.687  0.00  0.00    +0.166 A 
ATOM     15  C   LIG A   1      -5.308   6.057 132.933  0.00  0.00    +0.201 A 
ATOM     16  C   LIG A   1      -6.461   5.563 133.545  0.00  0.00    +0.166 A 
ATOM     17  C   LIG A   1      -7.697   5.748 132.905  0.00  0.00    +0.061 A 
BRANCH  14  18
ATOM     18  O   LIG A   1      -4.166   7.137 131.202  0.00  0.00    -0.491 OA
ATOM     19  C   LIG A   1      -4.204   8.042 130.105  0.00  0.00    +0.277 C 
ENDBRANCH  14  18
BRANCH  15  20
ATOM     20  O   LIG A   1      -4.075   5.964 133.526  0.00  0.00    -0.501 OA
ATOM     21  H   LIG A   1      -3.526   6.644 133.088  0.00  0.00    +0.292 HD
ENDBRANCH  15  20
BRANCH  16  22
ATOM     22  O   LIG A   1      -6.543   4.940 134.763  0.00  0.00    -0.491 OA
ATOM     23  C   LIG A   1      -7.221   5.654 135.793  0.00  0.00    +0.277 C 
ENDBRANCH  16  22
ENDBRANCH   7  12
BRANCH   8  24
ATOM     24  O   LIG A   1     -13.887   7.035 129.283  0.00  0.00    -0.506 OA
ATOM     25  H   LIG A   1     -13.819   6.673 130.196  0.00  0.00    +0.292 HD
ENDBRANCH   8  24
BRANCH  10  26
ATOM     26  O   LIG A   1     -11.135   7.673 125.464  0.00  0.00    -0.506 OA
ATOM     27  H   LIG A   1     -12.016   7.819 125.079  0.00  0.00    +0.292 HD
ENDBRANCH  10  26
TORSDOF 6
ENDMDL
MODEL 3
REMARK VINA RESULT:      -7.2      7.539      9.030
REMARK  Name = NuBBE_2427
REMARK  8 active torsions:
REMARK  status: ('A' for Active; 'I' for Inactive)
REMARK    1  A    between atoms: C_7  and  C_8
REMARK    2  A    between atoms: C_10  and  O_11
REMARK    3  A    between atoms: O_11  and  C_12
REMARK    4  A    between atoms: C_13  and  O_14
REMARK    5  A    between atoms: C_15  and  O_16
REMARK    6  A    between atoms: O_16  and  C_17
REMARK    7  A    between atoms: C_19  and  O_20
REMARK    8  A    between atoms: C_22  and  O_23
REMARK                            x       y       z     vdW  Elec       q    Type
REMARK                         _______ _______ _______ _____ _____    ______ ____
ROOT
ATOM      1  O   LIG A   1      -5.639   3.518 123.100  0.00  0.00    -0.454 OA
ATOM      2  C   LIG A   1      -6.206   3.850 121.891  0.00  0.00    +0.146 A 
ATOM      3  C   LIG A   1      -7.520   3.527 121.555  0.00  0.00    +0.105 A 
ATOM      4  C   LIG A   1      -8.327   2.807 122.539  0.00  0.00    +0.197 A 
ATOM      5  O   LIG A   1      -9.491   2.489 122.303  0.00  0.00    -0.287 OA
ATOM      6  C   LIG A   1      -7.694   2.490 123.822  0.00  0.00    +0.098 A 
ATOM      7  C   LIG A   1      -6.418   2.851 124.039  0.00  0.00    +0.140 A 
ATOM      8  C   LIG A   1      -8.040   3.887 120.306  0.00  0.00    +0.135 A 
ATOM      9  C   LIG A   1      -7.251   4.575 119.390  0.00  0.00    +0.091 A 
ATOM     10  C   LIG A   1      -5.941   4.897 119.735  0.00  0.00    +0.124 A 
ATOM     11  C   LIG A   1      -5.411   4.541 120.975  0.00  0.00    +0.092 A 
ENDROOT
BRANCH   7  12
ATOM     12  C   LIG A   1      -5.735   2.549 125.323  0.00  0.00    +0.025 A 
ATOM     13  C   LIG A   1      -6.259   1.592 126.213  0.00  0.00    +0.061 A 
ATOM     14  C   LIG A   1      -5.620   1.303 127.419  0.00  0.00    +0.166 A 
ATOM     15  C   LIG A   1      -4.447   1.991 127.763  0.00  0.00    +0.201 A 
ATOM     16  C   LIG A   1      -3.914   2.964 126.916  0.00  0.00    +0.166 A 
ATOM     17  C   LIG A   1      -4.557   3.222 125.694  0.00  0.00    +0.061 A 
BRANCH  14  18
ATOM     18  O   LIG A   1      -6.031   0.372 128.341  0.00  0.00    -0.491 OA
ATOM     19  C   LIG A   1      -6.272  -0.945 127.861  0.00  0.00    +0.277 C 
ENDBRANCH  14  18
BRANCH  15  20
ATOM     20  O   LIG A   1      -3.840   1.646 128.944  0.00  0.00    -0.501 OA
ATOM     21  H   LIG A   1      -4.418   2.004 129.646  0.00  0.00    +0.292 HD
ENDBRANCH  15  20
BRANCH  16  22
ATOM     22  O   LIG A   1      -2.770   3.691 127.116  0.00  0.00    -0.491 OA
ATOM     23  C   LIG A   1      -1.556   3.094 126.669  0.00  0.00    +0.277 C 
ENDBRANCH  16  22
ENDBRANCH   7  12
BRANCH   8  24
ATOM     24  O   LIG A   1      -9.322   3.595 119.919  0.00  0.00    -0.506 OA
ATOM     25  H   LIG A   1      -9.779   4.441 119.707  0.00  0.00    +0.292 HD
ENDBRANCH   8  24
BRANCH  10  26
ATOM     26  O   LIG A   1      -5.132   5.573 118.870  0.00  0.00    -0.506 OA
ATOM     27  H   LIG A   1      -4.609   6.223 119.371  0.00  0.00    +0.292 HD
ENDBRANCH  10  26
TORSDOF 6
ENDMDL
MODEL 4
REMARK VINA RESULT:      -7.1      1.827      2.699
REMARK  Name = NuBBE_2427
REMARK  8 active torsions:
REMARK  status: ('A' for Active; 'I' for Inactive)
REMARK    1  A    between atoms: C_7  and  C_8
REMARK    2  A    between atoms: C_10  and  O_11
REMARK    3  A    between atoms: O_11  and  C_12
REMARK    4  A    between atoms: C_13  and  O_14
REMARK    5  A    between atoms: C_15  and  O_16
REMARK    6  A    between atoms: O_16  and  C_17
REMARK    7  A    between atoms: C_19  and  O_20
REMARK    8  A    between atoms: C_22  and  O_23
REMARK                            x       y       z     vdW  Elec       q    Type
REMARK                         _______ _______ _______ _____ _____    ______ ____
ROOT
ATOM      1  O   LIG A   1      -9.042   6.777 129.591  0.00  0.00    -0.454 OA
ATOM      2  C   LIG A   1     -10.214   6.978 128.900  0.00  0.00    +0.146 A 
ATOM      3  C   LIG A   1     -11.469   6.937 129.505  0.00  0.00    +0.105 A 
ATOM      4  C   LIG A   1     -11.534   6.672 130.942  0.00  0.00    +0.197 A 
ATOM      5  O   LIG A   1     -12.609   6.617 131.534  0.00  0.00    -0.287 OA
ATOM      6  C   LIG A   1     -10.262   6.483 131.646  0.00  0.00    +0.098 A 
ATOM      7  C   LIG A   1      -9.109   6.545 130.961  0.00  0.00    +0.140 A 
ATOM      8  C   LIG A   1     -12.628   7.144 128.747  0.00  0.00    +0.135 A 
ATOM      9  C   LIG A   1     -12.537   7.398 127.383  0.00  0.00    +0.091 A 
ATOM     10  C   LIG A   1     -11.279   7.442 126.786  0.00  0.00    +0.124 A 
ATOM     11  C   LIG A   1     -10.118   7.234 127.530  0.00  0.00    +0.092 A 
ENDROOT
BRANCH   7  12
ATOM     12  C   LIG A   1      -7.797   6.358 131.632  0.00  0.00    +0.025 A 
ATOM     13  C   LIG A   1      -7.726   5.942 132.975  0.00  0.00    +0.061 A 
ATOM     14  C   LIG A   1      -6.496   5.764 133.610  0.00  0.00    +0.166 A 
ATOM     15  C   LIG A   1      -5.310   6.022 132.907  0.00  0.00    +0.201 A 
ATOM     16  C   LIG A   1      -5.345   6.460 131.582  0.00  0.00    +0.166 A 
ATOM     17  C   LIG A   1      -6.592   6.609 130.953  0.00  0.00    +0.061 A 
BRANCH  14  18
ATOM     18  O   LIG A   1      -6.316   5.336 134.903  0.00  0.00    -0.491 OA
ATOM     19  C   LIG A   1      -7.358   5.625 135.827  0.00  0.00    +0.277 C 
ENDBRANCH  14  18
BRANCH  15  20
ATOM     20  O   LIG A   1      -4.128   5.799 133.566  0.00  0.00    -0.501 OA
ATOM     21  H   LIG A   1      -3.522   5.432 132.893  0.00  0.00    +0.292 HD
ENDBRANCH  15  20
BRANCH  16  22
ATOM     22  O   LIG A   1      -4.269   6.726 130.775  0.00  0.00    -0.491 OA
ATOM     23  C   LIG A   1      -4.181   8.052 130.260  0.00  0.00    +0.277 C 
ENDBRANCH  16  22
ENDBRANCH   7  12
BRANCH   8  24
ATOM     24  O   LIG A   1     -13.887   7.113 129.286  0.00  0.00    -0.506 OA
ATOM     25  H   LIG A   1     -14.537   7.075 128.547  0.00  0.00    +0.292 HD
ENDBRANCH   8  24
BRANCH  10  26
ATOM     26  O   LIG A   1     -11.142   7.690 125.452  0.00  0.00    -0.506 OA
ATOM     27  H   LIG A   1     -10.200   7.633 125.217  0.00  0.00    +0.292 HD
ENDBRANCH  10  26
TORSDOF 6
ENDMDL
MODEL 5
REMARK VINA RESULT:      -7.0      7.451      9.123
REMARK  Name = NuBBE_2427
REMARK  8 active torsions:
REMARK  status: ('A' for Active; 'I' for Inactive)
REMARK    1  A    between atoms: C_7  and  C_8
REMARK    2  A    between atoms: C_10  and  O_11
REMARK    3  A    between atoms: O_11  and  C_12
REMARK    4  A    between atoms: C_13  and  O_14
REMARK    5  A    between atoms: C_15  and  O_16
REMARK    6  A    between atoms: O_16  and  C_17
REMARK    7  A    between atoms: C_19  and  O_20
REMARK    8  A    between atoms: C_22  and  O_23
REMARK                            x       y       z     vdW  Elec       q    Type
REMARK                         _______ _______ _______ _____ _____    ______ ____
ROOT
ATOM      1  O   LIG A   1      -5.596   3.607 123.002  0.00  0.00    -0.454 OA
ATOM      2  C   LIG A   1      -6.185   3.912 121.796  0.00  0.00    +0.146 A 
ATOM      3  C   LIG A   1      -7.502   3.575 121.488  0.00  0.00    +0.105 A 
ATOM      4  C   LIG A   1      -8.289   2.870 122.499  0.00  0.00    +0.197 A 
ATOM      5  O   LIG A   1      -9.454   2.541 122.287  0.00  0.00    -0.287 OA
ATOM      6  C   LIG A   1      -7.632   2.581 123.777  0.00  0.00    +0.098 A 
ATOM      7  C   LIG A   1      -6.355   2.953 123.966  0.00  0.00    +0.140 A 
ATOM      8  C   LIG A   1      -8.045   3.909 120.241  0.00  0.00    +0.135 A 
ATOM      9  C   LIG A   1      -7.275   4.584 119.299  0.00  0.00    +0.091 A 
ATOM     10  C   LIG A   1      -5.961   4.920 119.617  0.00  0.00    +0.124 A 
ATOM     11  C   LIG A   1      -5.410   4.590 120.854  0.00  0.00    +0.092 A 
ENDROOT
BRANCH   7  12
ATOM     12  C   LIG A   1      -5.649   2.679 125.243  0.00  0.00    +0.025 A 
ATOM     13  C   LIG A   1      -4.544   3.458 125.639  0.00  0.00    +0.061 A 
ATOM     14  C   LIG A   1      -3.878   3.206 126.839  0.00  0.00    +0.166 A 
ATOM     15  C   LIG A   1      -4.301   2.146 127.656  0.00  0.00    +0.201 A 
ATOM     16  C   LIG A   1      -5.376   1.339 127.282  0.00  0.00    +0.166 A 
ATOM     17  C   LIG A   1      -6.050   1.625 126.083  0.00  0.00    +0.061 A 
BRANCH  14  18
ATOM     18  O   LIG A   1      -2.812   3.919 127.329  0.00  0.00    -0.491 OA
ATOM     19  C   LIG A   1      -3.071   5.251 127.757  0.00  0.00    +0.277 C 
ENDBRANCH  14  18
BRANCH  15  20
ATOM     20  O   LIG A   1      -3.633   1.963 128.840  0.00  0.00    -0.501 OA
ATOM     21  H   LIG A   1      -2.801   1.509 128.600  0.00  0.00    +0.292 HD
ENDBRANCH  15  20
BRANCH  16  22
ATOM     22  O   LIG A   1      -5.904   0.292 127.991  0.00  0.00    -0.491 OA
ATOM     23  C   LIG A   1      -7.300   0.058 127.825  0.00  0.00    +0.277 C 
ENDBRANCH  16  22
ENDBRANCH   7  12
BRANCH   8  24
ATOM     24  O   LIG A   1      -9.331   3.602 119.881  0.00  0.00    -0.506 OA
ATOM     25  H   LIG A   1      -9.782   4.435 119.615  0.00  0.00    +0.292 HD
ENDBRANCH   8  24
BRANCH  10  26
ATOM     26  O   LIG A   1      -5.171   5.584 118.725  0.00  0.00    -0.506 OA
ATOM     27  H   LIG A   1      -5.727   5.917 117.999  0.00  0.00    +0.292 HD
ENDBRANCH  10  26
TORSDOF 6
ENDMDL
MODEL 6
REMARK VINA RESULT:      -6.7      6.251      7.448
REMARK  Name = NuBBE_2427
REMARK  8 active torsions:
REMARK  status: ('A' for Active; 'I' for Inactive)
REMARK    1  A    between atoms: C_7  and  C_8
REMARK    2  A    between atoms: C_10  and  O_11
REMARK    3  A    between atoms: O_11  and  C_12
REMARK    4  A    between atoms: C_13  and  O_14
REMARK    5  A    between atoms: C_15  and  O_16
REMARK    6  A    between atoms: O_16  and  C_17
REMARK    7  A    between atoms: C_19  and  O_20
REMARK    8  A    between atoms: C_22  and  O_23
REMARK                            x       y       z     vdW  Elec       q    Type
REMARK                         _______ _______ _______ _____ _____    ______ ____
ROOT
ATOM      1  O   LIG A   1      -9.431   2.895 129.217  0.00  0.00    -0.454 OA
ATOM      2  C   LIG A   1      -9.463   4.087 129.904  0.00  0.00    +0.146 A 
ATOM      3  C   LIG A   1      -8.377   4.959 129.960  0.00  0.00    +0.105 A 
ATOM      4  C   LIG A   1      -7.154   4.586 129.250  0.00  0.00    +0.197 A 
ATOM      5  O   LIG A   1      -6.161   5.309 129.264  0.00  0.00    -0.287 OA
ATOM      6  C   LIG A   1      -7.168   3.318 128.514  0.00  0.00    +0.098 A 
ATOM      7  C   LIG A   1      -8.272   2.555 128.529  0.00  0.00    +0.140 A 
ATOM      8  C   LIG A   1      -8.467   6.157 130.679  0.00  0.00    +0.135 A 
ATOM      9  C   LIG A   1      -9.644   6.490 131.342  0.00  0.00    +0.091 A 
ATOM     10  C   LIG A   1     -10.726   5.614 131.278  0.00  0.00    +0.124 A 
ATOM     11  C   LIG A   1     -10.646   4.418 130.567  0.00  0.00    +0.092 A 
ENDROOT
BRANCH   7  12
ATOM     12  C   LIG A   1      -8.331   1.262 127.800  0.00  0.00    +0.025 A 
ATOM     13  C   LIG A   1      -7.740   0.102 128.338  0.00  0.00    +0.061 A 
ATOM     14  C   LIG A   1      -7.794  -1.115 127.658  0.00  0.00    +0.166 A 
ATOM     15  C   LIG A   1      -8.427  -1.183 126.408  0.00  0.00    +0.201 A 
ATOM     16  C   LIG A   1      -9.000  -0.048 125.834  0.00  0.00    +0.166 A 
ATOM     17  C   LIG A   1      -8.959   1.163 126.546  0.00  0.00    +0.061 A 
BRANCH  14  18
ATOM     18  O   LIG A   1      -7.276  -2.307 128.105  0.00  0.00    -0.491 OA
ATOM     19  C   LIG A   1      -7.871  -2.870 129.268  0.00  0.00    +0.277 C 
ENDBRANCH  14  18
BRANCH  15  20
ATOM     20  O   LIG A   1      -8.481  -2.410 125.798  0.00  0.00    -0.501 OA
ATOM     21  H   LIG A   1      -9.317  -2.814 126.101  0.00  0.00    +0.292 HD
ENDBRANCH  15  20
BRANCH  16  22
ATOM     22  O   LIG A   1      -9.666   0.023 124.638  0.00  0.00    -0.491 OA
ATOM     23  C   LIG A   1     -10.103   1.318 124.235  0.00  0.00    +0.277 C 
ENDBRANCH  16  22
ENDBRANCH   7  12
BRANCH   8  24
ATOM     24  O   LIG A   1      -7.434   7.052 130.771  0.00  0.00    -0.506 OA
ATOM     25  H   LIG A   1      -6.597   6.545 130.879  0.00  0.00    +0.292 HD
ENDBRANCH   8  24
BRANCH  10  26
ATOM     26  O   LIG A   1     -11.900   5.901 131.910  0.00  0.00    -0.506 OA
ATOM     27  H   LIG A   1     -12.606   5.354 131.524  0.00  0.00    +0.292 HD
ENDBRANCH  10  26
TORSDOF 6
ENDMDL
MODEL 7
REMARK VINA RESULT:      -6.7      8.387      9.914
REMARK  Name = NuBBE_2427
REMARK  8 active torsions:
REMARK  status: ('A' for Active; 'I' for Inactive)
REMARK    1  A    between atoms: C_7  and  C_8
REMARK    2  A    between atoms: C_10  and  O_11
REMARK    3  A    between atoms: O_11  and  C_12
REMARK    4  A    between atoms: C_13  and  O_14
REMARK    5  A    between atoms: C_15  and  O_16
REMARK    6  A    between atoms: O_16  and  C_17
REMARK    7  A    between atoms: C_19  and  O_20
REMARK    8  A    between atoms: C_22  and  O_23
REMARK                            x       y       z     vdW  Elec       q    Type
REMARK                         _______ _______ _______ _____ _____    ______ ____
ROOT
ATOM      1  O   LIG A   1      -6.657  -0.067 126.972  0.00  0.00    -0.454 OA
ATOM      2  C   LIG A   1      -7.014  -1.195 127.674  0.00  0.00    +0.146 A 
ATOM      3  C   LIG A   1      -8.039  -2.049 127.269  0.00  0.00    +0.105 A 
ATOM      4  C   LIG A   1      -8.759  -1.727 126.037  0.00  0.00    +0.197 A 
ATOM      5  O   LIG A   1      -9.675  -2.437 125.628  0.00  0.00    -0.287 OA
ATOM      6  C   LIG A   1      -8.335  -0.529 125.307  0.00  0.00    +0.098 A 
ATOM      7  C   LIG A   1      -7.333   0.223 125.791  0.00  0.00    +0.140 A 
ATOM      8  C   LIG A   1      -8.361  -3.180 128.028  0.00  0.00    +0.135 A 
ATOM      9  C   LIG A   1      -7.657  -3.465 129.194  0.00  0.00    +0.091 A 
ATOM     10  C   LIG A   1      -6.632  -2.609 129.590  0.00  0.00    +0.124 A 
ATOM     11  C   LIG A   1      -6.305  -1.478 128.843  0.00  0.00    +0.092 A 
ENDROOT
BRANCH   7  12
ATOM     12  C   LIG A   1      -6.871   1.446 125.087  0.00  0.00    +0.025 A 
ATOM     13  C   LIG A   1      -7.303   1.734 123.778  0.00  0.00    +0.061 A 
ATOM     14  C   LIG A   1      -6.874   2.882 123.113  0.00  0.00    +0.166 A 
ATOM     15  C   LIG A   1      -5.980   3.757 123.749  0.00  0.00    +0.201 A 
ATOM     16  C   LIG A   1      -5.512   3.490 125.036  0.00  0.00    +0.166 A 
ATOM     17  C   LIG A   1      -5.976   2.342 125.699  0.00  0.00    +0.061 A 
BRANCH  14  18
ATOM     18  O   LIG A   1      -7.256   3.268 121.851  0.00  0.00    -0.491 OA
ATOM     19  C   LIG A   1      -8.652   3.288 121.579  0.00  0.00    +0.277 C 
ENDBRANCH  14  18
BRANCH  15  20
ATOM     20  O   LIG A   1      -5.616   4.888 123.064  0.00  0.00    -0.501 OA
ATOM     21  H   LIG A   1      -5.493   5.576 123.748  0.00  0.00    +0.292 HD
ENDBRANCH  15  20
BRANCH  16  22
ATOM     22  O   LIG A   1      -4.659   4.265 125.778  0.00  0.00    -0.491 OA
ATOM     23  C   LIG A   1      -3.484   3.622 126.265  0.00  0.00    +0.277 C 
ENDBRANCH  16  22
ENDBRANCH   7  12
BRANCH   8  24
ATOM     24  O   LIG A   1      -9.358  -4.053 127.681  0.00  0.00    -0.506 OA
ATOM     25  H   LIG A   1      -8.943  -4.910 127.431  0.00  0.00    +0.292 HD
ENDBRANCH   8  24
BRANCH  10  26
ATOM     26  O   LIG A   1      -5.914  -2.850 130.724  0.00  0.00    -0.506 OA
ATOM     27  H   LIG A   1      -5.783  -3.810 130.814  0.00  0.00    +0.292 HD
ENDBRANCH  10  26
TORSDOF 6
ENDMDL
MODEL 8
REMARK VINA RESULT:      -6.7      9.890     11.024
REMARK  Name = NuBBE_2427
REMARK  8 active torsions:
REMARK  status: ('A' for Active; 'I' for Inactive)
REMARK    1  A    between atoms: C_7  and  C_8
REMARK    2  A    between atoms: C_10  and  O_11
REMARK    3  A    between atoms: O_11  and  C_12
REMARK    4  A    between atoms: C_13  and  O_14
REMARK    5  A    between atoms: C_15  and  O_16
REMARK    6  A    between atoms: O_16  and  C_17
REMARK    7  A    between atoms: C_19  and  O_20
REMARK    8  A    between atoms: C_22  and  O_23
REMARK                            x       y       z     vdW  Elec       q    Type
REMARK                         _______ _______ _______ _____ _____    ______ ____
ROOT
ATOM      1  O   LIG A   1      -8.095  -2.770 127.227  0.00  0.00    -0.454 OA
ATOM      2  C   LIG A   1      -8.123  -2.704 125.853  0.00  0.00    +0.146 A 
ATOM      3  C   LIG A   1      -7.087  -2.157 125.099  0.00  0.00    +0.105 A 
ATOM      4  C   LIG A   1      -5.918  -1.637 125.806  0.00  0.00    +0.197 A 
ATOM      5  O   LIG A   1      -4.973  -1.137 125.199  0.00  0.00    -0.287 OA
ATOM      6  C   LIG A   1      -5.917  -1.744 127.268  0.00  0.00    +0.098 A 
ATOM      7  C   LIG A   1      -6.972  -2.291 127.893  0.00  0.00    +0.140 A 
ATOM      8  C   LIG A   1      -7.175  -2.112 123.702  0.00  0.00    +0.135 A 
ATOM      9  C   LIG A   1      -8.297  -2.618 123.054  0.00  0.00    +0.091 A 
ATOM     10  C   LIG A   1      -9.327  -3.166 123.815  0.00  0.00    +0.124 A 
ATOM     11  C   LIG A   1      -9.251  -3.213 125.207  0.00  0.00    +0.092 A 
ENDROOT
BRANCH   7  12
ATOM     12  C   LIG A   1      -7.016  -2.419 129.372  0.00  0.00    +0.025 A 
ATOM     13  C   LIG A   1      -7.719  -1.485 130.158  0.00  0.00    +0.061 A 
ATOM     14  C   LIG A   1      -7.765  -1.602 131.547  0.00  0.00    +0.166 A 
ATOM     15  C   LIG A   1      -7.083  -2.654 132.177  0.00  0.00    +0.201 A 
ATOM     16  C   LIG A   1      -6.357  -3.583 131.431  0.00  0.00    +0.166 A 
ATOM     17  C   LIG A   1      -6.344  -3.463 130.032  0.00  0.00    +0.061 A 
BRANCH  14  18
ATOM     18  O   LIG A   1      -8.441  -0.764 132.400  0.00  0.00    -0.491 OA
ATOM     19  C   LIG A   1      -8.793   0.519 131.896  0.00  0.00    +0.277 C 
ENDBRANCH  14  18
BRANCH  15  20
ATOM     20  O   LIG A   1      -7.188  -2.741 133.541  0.00  0.00    -0.501 OA
ATOM     21  H   LIG A   1      -6.392  -3.229 133.831  0.00  0.00    +0.292 HD
ENDBRANCH  15  20
BRANCH  16  22
ATOM     22  O   LIG A   1      -5.667  -4.665 131.912  0.00  0.00    -0.491 OA
ATOM     23  C   LIG A   1      -4.309  -4.436 132.278  0.00  0.00    +0.277 C 
ENDBRANCH  16  22
ENDBRANCH   7  12
BRANCH   8  24
ATOM     24  O   LIG A   1      -6.190  -1.585 122.908  0.00  0.00    -0.506 OA
ATOM     25  H   LIG A   1      -5.864  -2.296 122.311  0.00  0.00    +0.292 HD
ENDBRANCH   8  24
BRANCH  10  26
ATOM     26  O   LIG A   1     -10.444  -3.676 123.223  0.00  0.00    -0.506 OA
ATOM     27  H   LIG A   1     -10.228  -4.544 122.839  0.00  0.00    +0.292 HD
ENDBRANCH  10  26
TORSDOF 6
ENDMDL
MODEL 9
REMARK VINA RESULT:      -6.6      6.314      7.834
REMARK  Name = NuBBE_2427
REMARK  8 active torsions:
REMARK  status: ('A' for Active; 'I' for Inactive)
REMARK    1  A    between atoms: C_7  and  C_8
REMARK    2  A    between atoms: C_10  and  O_11
REMARK    3  A    between atoms: O_11  and  C_12
REMARK    4  A    between atoms: C_13  and  O_14
REMARK    5  A    between atoms: C_15  and  O_16
REMARK    6  A    between atoms: O_16  and  C_17
REMARK    7  A    between atoms: C_19  and  O_20
REMARK    8  A    between atoms: C_22  and  O_23
REMARK                            x       y       z     vdW  Elec       q    Type
REMARK                         _______ _______ _______ _____ _____    ______ ____
ROOT
ATOM      1  O   LIG A   1      -9.406   2.864 129.232  0.00  0.00    -0.454 OA
ATOM      2  C   LIG A   1      -9.453   4.065 129.901  0.00  0.00    +0.146 A 
ATOM      3  C   LIG A   1      -8.376   4.948 129.951  0.00  0.00    +0.105 A 
ATOM      4  C   LIG A   1      -7.146   4.577 129.254  0.00  0.00    +0.197 A 
ATOM      5  O   LIG A   1      -6.159   5.309 129.263  0.00  0.00    -0.287 OA
ATOM      6  C   LIG A   1      -7.143   3.299 128.536  0.00  0.00    +0.098 A 
ATOM      7  C   LIG A   1      -8.240   2.525 128.554  0.00  0.00    +0.140 A 
ATOM      8  C   LIG A   1      -8.481   6.155 130.654  0.00  0.00    +0.135 A 
ATOM      9  C   LIG A   1      -9.665   6.485 131.305  0.00  0.00    +0.091 A 
ATOM     10  C   LIG A   1     -10.738   5.599 131.248  0.00  0.00    +0.124 A 
ATOM     11  C   LIG A   1     -10.643   4.393 130.553  0.00  0.00    +0.092 A 
ENDROOT
BRANCH   7  12
ATOM     12  C   LIG A   1      -8.282   1.222 127.843  0.00  0.00    +0.025 A 
ATOM     13  C   LIG A   1      -8.930   1.099 126.599  0.00  0.00    +0.061 A 
ATOM     14  C   LIG A   1      -8.971  -0.123 125.926  0.00  0.00    +0.166 A 
ATOM     15  C   LIG A   1      -8.376  -1.253 126.506  0.00  0.00    +0.201 A 
ATOM     16  C   LIG A   1      -7.749  -1.172 127.750  0.00  0.00    +0.166 A 
ATOM     17  C   LIG A   1      -7.695   0.072 128.399  0.00  0.00    +0.061 A 
BRANCH  14  18
ATOM     18  O   LIG A   1      -9.550  -0.344 124.700  0.00  0.00    -0.491 OA
ATOM     19  C   LIG A   1      -9.301   0.624 123.688  0.00  0.00    +0.277 C 
ENDBRANCH  14  18
BRANCH  15  20
ATOM     20  O   LIG A   1      -8.416  -2.421 125.788  0.00  0.00    -0.501 OA
ATOM     21  H   LIG A   1      -9.339  -2.502 125.476  0.00  0.00    +0.292 HD
ENDBRANCH  15  20
BRANCH  16  22
ATOM     22  O   LIG A   1      -7.112  -2.186 128.417  0.00  0.00    -0.491 OA
ATOM     23  C   LIG A   1      -7.918  -2.966 129.296  0.00  0.00    +0.277 C 
ENDBRANCH  16  22
ENDBRANCH   7  12
BRANCH   8  24
ATOM     24  O   LIG A   1      -7.457   7.061 130.740  0.00  0.00    -0.506 OA
ATOM     25  H   LIG A   1      -6.855   6.776 131.464  0.00  0.00    +0.292 HD
ENDBRANCH   8  24
BRANCH  10  26
ATOM     26  O   LIG A   1     -11.918   5.883 131.869  0.00  0.00    -0.506 OA
ATOM     27  H   LIG A   1     -12.419   5.056 131.986  0.00  0.00    +0.292 HD
ENDBRANCH  10  26
TORSDOF 6
ENDMDL
