MODEL 1
REMARK VINA RESULT:      -7.6      0.000      0.000
REMARK  Name = NuBBE_563
REMARK  4 active torsions:
REMARK  status: ('A' for Active; 'I' for Inactive)
REMARK    1  A    between atoms: O_1  and  C_2
REMARK    2  A    between atoms: C_8  and  C_10
REMARK    3  A    between atoms: C_12  and  O_13
REMARK    4  A    between atoms: C_14  and  O_15
REMARK                            x       y       z     vdW  Elec       q    Type
REMARK                         _______ _______ _______ _____ _____    ______ ____
ROOT
ATOM      1  C   LIG A   1     -11.610   7.424 126.774  0.00  0.00    +0.120 A 
ATOM      2  C   LIG A   1     -12.831   7.494 127.441  0.00  0.00    +0.046 A 
ATOM      3  C   LIG A   1     -12.874   7.272 128.818  0.00  0.00    +0.018 A 
ATOM      4  C   LIG A   1     -11.691   6.991 129.512  0.00  0.00    +0.059 A 
ATOM      5  C   LIG A   1     -11.719   6.693 130.957  0.00  0.00    +0.171 C 
ATOM      6  C   LIG A   1     -10.417   6.276 131.578  0.00  0.00    +0.129 C 
ATOM      7  C   LIG A   1      -9.289   7.004 130.860  0.00  0.00    +0.211 C 
ATOM      8  O   LIG A   1      -9.277   6.681 129.459  0.00  0.00    -0.483 OA
ATOM      9  O   LIG A   1     -12.771   6.727 131.587  0.00  0.00    -0.292 OA
ATOM     10  C   LIG A   1     -10.469   6.947 128.839  0.00  0.00    +0.135 A 
ATOM     11  C   LIG A   1     -10.430   7.148 127.462  0.00  0.00    +0.091 A 
ENDROOT
BRANCH   7  12
ATOM     12  C   LIG A   1      -7.947   6.628 131.466  0.00  0.00    -0.003 A 
ATOM     13  C   LIG A   1      -7.864   5.871 132.650  0.00  0.00    +0.056 A 
ATOM     14  C   LIG A   1      -6.617   5.568 133.189  0.00  0.00    +0.159 A 
ATOM     15  C   LIG A   1      -5.454   6.016 132.572  0.00  0.00    +0.158 A 
ATOM     16  C   LIG A   1      -5.512   6.769 131.410  0.00  0.00    +0.049 A 
ATOM     17  C   LIG A   1      -6.758   7.076 130.857  0.00  0.00    +0.011 A 
BRANCH  14  18
ATOM     18  O   LIG A   1      -6.487   4.829 134.332  0.00  0.00    -0.503 OA
ATOM     19  H   LIG A   1      -7.368   4.503 134.583  0.00  0.00    +0.292 HD
ENDBRANCH  14  18
BRANCH  15  20
ATOM     20  O   LIG A   1      -4.236   5.715 133.111  0.00  0.00    -0.503 OA
ATOM     21  H   LIG A   1      -3.723   5.352 132.363  0.00  0.00    +0.292 HD
ENDBRANCH  15  20
ENDBRANCH   7  12
BRANCH   1  22
ATOM     22  O   LIG A   1     -11.525   7.624 125.428  0.00  0.00    -0.507 OA
ATOM     23  H   LIG A   1     -11.743   8.549 125.231  0.00  0.00    +0.292 HD
ENDBRANCH   1  22
TORSDOF 4
ENDMDL
MODEL 2
REMARK VINA RESULT:      -7.4      8.102     10.300
REMARK  Name = NuBBE_563
REMARK  4 active torsions:
REMARK  status: ('A' for Active; 'I' for Inactive)
REMARK    1  A    between atoms: O_1  and  C_2
REMARK    2  A    between atoms: C_8  and  C_10
REMARK    3  A    between atoms: C_12  and  O_13
REMARK    4  A    between atoms: C_14  and  O_15
REMARK                            x       y       z     vdW  Elec       q    Type
REMARK                         _______ _______ _______ _____ _____    ______ ____
ROOT
ATOM      1  C   LIG A   1      -8.697  -1.171 124.930  0.00  0.00    +0.120 A 
ATOM      2  C   LIG A   1      -8.423  -0.846 126.256  0.00  0.00    +0.046 A 
ATOM      3  C   LIG A   1      -7.681   0.301 126.543  0.00  0.00    +0.018 A 
ATOM      4  C   LIG A   1      -7.231   1.114 125.496  0.00  0.00    +0.059 A 
ATOM      5  C   LIG A   1      -6.394   2.298 125.770  0.00  0.00    +0.171 C 
ATOM      6  C   LIG A   1      -5.854   3.026 124.572  0.00  0.00    +0.129 C 
ATOM      7  C   LIG A   1      -6.876   2.921 123.447  0.00  0.00    +0.211 C 
ATOM      8  O   LIG A   1      -7.123   1.547 123.103  0.00  0.00    -0.483 OA
ATOM      9  O   LIG A   1      -6.112   2.618 126.920  0.00  0.00    -0.292 OA
ATOM     10  C   LIG A   1      -7.531   0.794 124.171  0.00  0.00    +0.135 A 
ATOM     11  C   LIG A   1      -8.253  -0.362 123.886  0.00  0.00    +0.091 A 
ENDROOT
BRANCH   7  12
ATOM     12  C   LIG A   1      -6.383   3.660 122.215  0.00  0.00    -0.003 A 
ATOM     13  C   LIG A   1      -5.287   4.542 122.278  0.00  0.00    +0.056 A 
ATOM     14  C   LIG A   1      -4.880   5.220 121.134  0.00  0.00    +0.159 A 
ATOM     15  C   LIG A   1      -5.554   5.041 119.930  0.00  0.00    +0.158 A 
ATOM     16  C   LIG A   1      -6.639   4.183 119.846  0.00  0.00    +0.049 A 
ATOM     17  C   LIG A   1      -7.055   3.494 120.989  0.00  0.00    +0.011 A 
BRANCH  14  18
ATOM     18  O   LIG A   1      -3.817   6.080 121.145  0.00  0.00    -0.503 OA
ATOM     19  H   LIG A   1      -3.768   6.510 120.274  0.00  0.00    +0.292 HD
ENDBRANCH  14  18
BRANCH  15  20
ATOM     20  O   LIG A   1      -5.148   5.713 118.814  0.00  0.00    -0.503 OA
ATOM     21  H   LIG A   1      -5.969   5.855 118.303  0.00  0.00    +0.292 HD
ENDBRANCH  15  20
ENDBRANCH   7  12
BRANCH   1  22
ATOM     22  O   LIG A   1      -9.408  -2.288 124.606  0.00  0.00    -0.507 OA
ATOM     23  H   LIG A   1      -9.964  -2.539 125.361  0.00  0.00    +0.292 HD
ENDBRANCH   1  22
TORSDOF 4
ENDMDL
MODEL 3
REMARK VINA RESULT:      -7.3      2.805      6.725
REMARK  Name = NuBBE_563
REMARK  4 active torsions:
REMARK  status: ('A' for Active; 'I' for Inactive)
REMARK    1  A    between atoms: O_1  and  C_2
REMARK    2  A    between atoms: C_8  and  C_10
REMARK    3  A    between atoms: C_12  and  O_13
REMARK    4  A    between atoms: C_14  and  O_15
REMARK                            x       y       z     vdW  Elec       q    Type
REMARK                         _______ _______ _______ _____ _____    ______ ____
ROOT
ATOM      1  C   LIG A   1      -9.130   1.354 132.065  0.00  0.00    +0.120 A 
ATOM      2  C   LIG A   1      -8.085   1.655 132.935  0.00  0.00    +0.046 A 
ATOM      3  C   LIG A   1      -7.722   2.988 133.134  0.00  0.00    +0.018 A 
ATOM      4  C   LIG A   1      -8.418   4.003 132.467  0.00  0.00    +0.059 A 
ATOM      5  C   LIG A   1      -8.014   5.415 132.615  0.00  0.00    +0.171 C 
ATOM      6  C   LIG A   1      -8.739   6.411 131.755  0.00  0.00    +0.129 C 
ATOM      7  C   LIG A   1     -10.172   5.928 131.568  0.00  0.00    +0.211 C 
ATOM      8  O   LIG A   1     -10.202   4.637 130.936  0.00  0.00    -0.483 OA
ATOM      9  O   LIG A   1      -7.090   5.732 133.357  0.00  0.00    -0.292 OA
ATOM     10  C   LIG A   1      -9.480   3.692 131.616  0.00  0.00    +0.135 A 
ATOM     11  C   LIG A   1      -9.827   2.361 131.402  0.00  0.00    +0.091 A 
ENDROOT
BRANCH   7  12
ATOM     12  C   LIG A   1     -10.955   6.914 130.718  0.00  0.00    -0.003 A 
ATOM     13  C   LIG A   1     -10.424   7.434 129.523  0.00  0.00    +0.056 A 
ATOM     14  C   LIG A   1     -11.160   8.355 128.783  0.00  0.00    +0.159 A 
ATOM     15  C   LIG A   1     -12.412   8.772 129.223  0.00  0.00    +0.158 A 
ATOM     16  C   LIG A   1     -12.951   8.279 130.400  0.00  0.00    +0.049 A 
ATOM     17  C   LIG A   1     -12.222   7.351 131.148  0.00  0.00    +0.011 A 
BRANCH  14  18
ATOM     18  O   LIG A   1     -10.689   8.881 127.612  0.00  0.00    -0.503 OA
ATOM     19  H   LIG A   1     -10.518   9.828 127.754  0.00  0.00    +0.292 HD
ENDBRANCH  14  18
BRANCH  15  20
ATOM     20  O   LIG A   1     -13.125   9.678 128.491  0.00  0.00    -0.503 OA
ATOM     21  H   LIG A   1     -12.652   9.726 127.637  0.00  0.00    +0.292 HD
ENDBRANCH  15  20
ENDBRANCH   7  12
BRANCH   1  22
ATOM     22  O   LIG A   1      -9.510   0.065 131.833  0.00  0.00    -0.507 OA
ATOM     23  H   LIG A   1     -10.267  -0.150 132.402  0.00  0.00    +0.292 HD
ENDBRANCH   1  22
TORSDOF 4
ENDMDL
MODEL 4
REMARK VINA RESULT:      -7.2      8.407     10.126
REMARK  Name = NuBBE_563
REMARK  4 active torsions:
REMARK  status: ('A' for Active; 'I' for Inactive)
REMARK    1  A    between atoms: O_1  and  C_2
REMARK    2  A    between atoms: C_8  and  C_10
REMARK    3  A    between atoms: C_12  and  O_13
REMARK    4  A    between atoms: C_14  and  O_15
REMARK                            x       y       z     vdW  Elec       q    Type
REMARK                         _______ _______ _______ _____ _____    ______ ____
ROOT
ATOM      1  C   LIG A   1      -7.922  -3.007 129.204  0.00  0.00    +0.120 A 
ATOM      2  C   LIG A   1      -8.608  -3.966 128.462  0.00  0.00    +0.046 A 
ATOM      3  C   LIG A   1      -8.971  -3.683 127.145  0.00  0.00    +0.018 A 
ATOM      4  C   LIG A   1      -8.633  -2.447 126.583  0.00  0.00    +0.059 A 
ATOM      5  C   LIG A   1      -9.057  -2.101 125.212  0.00  0.00    +0.171 C 
ATOM      6  C   LIG A   1      -8.758  -0.703 124.753  0.00  0.00    +0.129 C 
ATOM      7  C   LIG A   1      -7.456  -0.254 125.401  0.00  0.00    +0.211 C 
ATOM      8  O   LIG A   1      -7.560  -0.276 126.835  0.00  0.00    -0.483 OA
ATOM      9  O   LIG A   1      -9.677  -2.905 124.523  0.00  0.00    -0.292 OA
ATOM     10  C   LIG A   1      -7.923  -1.501 127.326  0.00  0.00    +0.135 A 
ATOM     11  C   LIG A   1      -7.581  -1.776 128.647  0.00  0.00    +0.091 A 
ENDROOT
BRANCH   7  12
ATOM     12  C   LIG A   1      -7.100   1.153 124.952  0.00  0.00    -0.003 A 
ATOM     13  C   LIG A   1      -7.841   1.814 123.954  0.00  0.00    +0.056 A 
ATOM     14  C   LIG A   1      -7.469   3.092 123.550  0.00  0.00    +0.159 A 
ATOM     15  C   LIG A   1      -6.364   3.718 124.119  0.00  0.00    +0.158 A 
ATOM     16  C   LIG A   1      -5.616   3.084 125.098  0.00  0.00    +0.049 A 
ATOM     17  C   LIG A   1      -5.983   1.801 125.514  0.00  0.00    +0.011 A 
BRANCH  14  18
ATOM     18  O   LIG A   1      -8.163   3.776 122.591  0.00  0.00    -0.503 OA
ATOM     19  H   LIG A   1      -7.645   3.750 121.767  0.00  0.00    +0.292 HD
ENDBRANCH  14  18
BRANCH  15  20
ATOM     20  O   LIG A   1      -6.006   4.972 123.714  0.00  0.00    -0.503 OA
ATOM     21  H   LIG A   1      -5.499   5.335 124.466  0.00  0.00    +0.292 HD
ENDBRANCH  15  20
ENDBRANCH   7  12
BRANCH   1  22
ATOM     22  O   LIG A   1      -7.558  -3.238 130.497  0.00  0.00    -0.507 OA
ATOM     23  H   LIG A   1      -6.830  -2.640 130.733  0.00  0.00    +0.292 HD
ENDBRANCH   1  22
TORSDOF 4
ENDMDL
MODEL 5
REMARK VINA RESULT:      -7.1      1.634      6.809
REMARK  Name = NuBBE_563
REMARK  4 active torsions:
REMARK  status: ('A' for Active; 'I' for Inactive)
REMARK    1  A    between atoms: O_1  and  C_2
REMARK    2  A    between atoms: C_8  and  C_10
REMARK    3  A    between atoms: C_12  and  O_13
REMARK    4  A    between atoms: C_14  and  O_15
REMARK                            x       y       z     vdW  Elec       q    Type
REMARK                         _______ _______ _______ _____ _____    ______ ____
ROOT
ATOM      1  C   LIG A   1      -4.098   6.810 131.370  0.00  0.00    +0.120 A 
ATOM      2  C   LIG A   1      -4.055   5.995 132.500  0.00  0.00    +0.046 A 
ATOM      3  C   LIG A   1      -5.249   5.576 133.088  0.00  0.00    +0.018 A 
ATOM      4  C   LIG A   1      -6.471   5.971 132.532  0.00  0.00    +0.059 A 
ATOM      5  C   LIG A   1      -7.746   5.590 133.170  0.00  0.00    +0.171 C 
ATOM      6  C   LIG A   1      -8.994   6.174 132.571  0.00  0.00    +0.129 C 
ATOM      7  C   LIG A   1      -8.780   6.321 131.070  0.00  0.00    +0.211 C 
ATOM      8  O   LIG A   1      -7.665   7.185 130.792  0.00  0.00    -0.483 OA
ATOM      9  O   LIG A   1      -7.763   4.887 134.175  0.00  0.00    -0.292 OA
ATOM     10  C   LIG A   1      -6.504   6.767 131.385  0.00  0.00    +0.135 A 
ATOM     11  C   LIG A   1      -5.312   7.202 130.812  0.00  0.00    +0.091 A 
ENDROOT
BRANCH   7  12
ATOM     12  C   LIG A   1     -10.025   6.892 130.413  0.00  0.00    -0.003 A 
ATOM     13  C   LIG A   1      -9.952   7.616 129.208  0.00  0.00    +0.056 A 
ATOM     14  C   LIG A   1     -11.111   8.146 128.649  0.00  0.00    +0.159 A 
ATOM     15  C   LIG A   1     -12.340   7.973 129.278  0.00  0.00    +0.158 A 
ATOM     16  C   LIG A   1     -12.434   7.270 130.468  0.00  0.00    +0.049 A 
ATOM     17  C   LIG A   1     -11.278   6.731 131.037  0.00  0.00    +0.011 A 
BRANCH  14  18
ATOM     18  O   LIG A   1     -11.090   8.849 127.476  0.00  0.00    -0.503 OA
ATOM     19  H   LIG A   1     -10.400   9.532 127.546  0.00  0.00    +0.292 HD
ENDBRANCH  14  18
BRANCH  15  20
ATOM     20  O   LIG A   1     -13.470   8.500 128.722  0.00  0.00    -0.503 OA
ATOM     21  H   LIG A   1     -13.955   8.885 129.478  0.00  0.00    +0.292 HD
ENDBRANCH  15  20
ENDBRANCH   7  12
BRANCH   1  22
ATOM     22  O   LIG A   1      -2.955   7.251 130.771  0.00  0.00    -0.507 OA
ATOM     23  H   LIG A   1      -2.787   8.167 131.046  0.00  0.00    +0.292 HD
ENDBRANCH   1  22
TORSDOF 4
ENDMDL
MODEL 6
REMARK VINA RESULT:      -7.1      9.044     10.845
REMARK  Name = NuBBE_563
REMARK  4 active torsions:
REMARK  status: ('A' for Active; 'I' for Inactive)
REMARK    1  A    between atoms: O_1  and  C_2
REMARK    2  A    between atoms: C_8  and  C_10
REMARK    3  A    between atoms: C_12  and  O_13
REMARK    4  A    between atoms: C_14  and  O_15
REMARK                            x       y       z     vdW  Elec       q    Type
REMARK                         _______ _______ _______ _____ _____    ______ ____
ROOT
ATOM      1  C   LIG A   1      -7.179  -2.614 123.980  0.00  0.00    +0.120 A 
ATOM      2  C   LIG A   1      -8.547  -2.606 124.245  0.00  0.00    +0.046 A 
ATOM      3  C   LIG A   1      -9.262  -1.415 124.116  0.00  0.00    +0.018 A 
ATOM      4  C   LIG A   1      -8.600  -0.249 123.715  0.00  0.00    +0.059 A 
ATOM      5  C   LIG A   1      -9.322   1.036 123.630  0.00  0.00    +0.171 C 
ATOM      6  C   LIG A   1      -8.494   2.249 123.319  0.00  0.00    +0.129 C 
ATOM      7  C   LIG A   1      -7.353   1.828 122.402  0.00  0.00    +0.211 C 
ATOM      8  O   LIG A   1      -6.528   0.832 123.030  0.00  0.00    -0.483 OA
ATOM      9  O   LIG A   1     -10.525   1.099 123.867  0.00  0.00    -0.292 OA
ATOM     10  C   LIG A   1      -7.234  -0.272 123.429  0.00  0.00    +0.135 A 
ATOM     11  C   LIG A   1      -6.517  -1.457 123.578  0.00  0.00    +0.091 A 
ENDROOT
BRANCH   7  12
ATOM     12  C   LIG A   1      -6.493   3.028 122.042  0.00  0.00    -0.003 A 
ATOM     13  C   LIG A   1      -6.429   3.515 120.723  0.00  0.00    +0.056 A 
ATOM     14  C   LIG A   1      -5.611   4.601 120.428  0.00  0.00    +0.159 A 
ATOM     15  C   LIG A   1      -4.849   5.202 121.424  0.00  0.00    +0.158 A 
ATOM     16  C   LIG A   1      -4.891   4.735 122.728  0.00  0.00    +0.049 A 
ATOM     17  C   LIG A   1      -5.712   3.647 123.037  0.00  0.00    +0.011 A 
BRANCH  14  18
ATOM     18  O   LIG A   1      -5.522   5.114 119.163  0.00  0.00    -0.503 OA
ATOM     19  H   LIG A   1      -4.583   5.285 118.972  0.00  0.00    +0.292 HD
ENDBRANCH  14  18
BRANCH  15  20
ATOM     20  O   LIG A   1      -4.047   6.265 121.123  0.00  0.00    -0.503 OA
ATOM     21  H   LIG A   1      -3.641   6.027 120.266  0.00  0.00    +0.292 HD
ENDBRANCH  15  20
ENDBRANCH   7  12
BRANCH   1  22
ATOM     22  O   LIG A   1      -6.440  -3.754 124.105  0.00  0.00    -0.507 OA
ATOM     23  H   LIG A   1      -6.281  -3.926 125.047  0.00  0.00    +0.292 HD
ENDBRANCH   1  22
TORSDOF 4
ENDMDL
MODEL 7
REMARK VINA RESULT:      -6.9      6.842     10.107
REMARK  Name = NuBBE_563
REMARK  4 active torsions:
REMARK  status: ('A' for Active; 'I' for Inactive)
REMARK    1  A    between atoms: O_1  and  C_2
REMARK    2  A    between atoms: C_8  and  C_10
REMARK    3  A    between atoms: C_12  and  O_13
REMARK    4  A    between atoms: C_14  and  O_15
REMARK                            x       y       z     vdW  Elec       q    Type
REMARK                         _______ _______ _______ _____ _____    ______ ____
ROOT
ATOM      1  C   LIG A   1      -3.548   3.544 127.439  0.00  0.00    +0.120 A 
ATOM      2  C   LIG A   1      -4.488   3.023 128.325  0.00  0.00    +0.046 A 
ATOM      3  C   LIG A   1      -5.786   2.773 127.878  0.00  0.00    +0.018 A 
ATOM      4  C   LIG A   1      -6.123   3.039 126.546  0.00  0.00    +0.059 A 
ATOM      5  C   LIG A   1      -7.504   2.840 126.065  0.00  0.00    +0.171 C 
ATOM      6  C   LIG A   1      -7.792   3.279 124.657  0.00  0.00    +0.129 C 
ATOM      7  C   LIG A   1      -6.537   3.061 123.822  0.00  0.00    +0.211 C 
ATOM      8  O   LIG A   1      -5.432   3.818 124.345  0.00  0.00    -0.483 OA
ATOM      9  O   LIG A   1      -8.373   2.397 126.809  0.00  0.00    -0.292 OA
ATOM     10  C   LIG A   1      -5.168   3.539 125.659  0.00  0.00    +0.135 A 
ATOM     11  C   LIG A   1      -3.879   3.808 126.112  0.00  0.00    +0.091 A 
ENDROOT
BRANCH   7  12
ATOM     12  C   LIG A   1      -6.784   3.475 122.381  0.00  0.00    -0.003 A 
ATOM     13  C   LIG A   1      -8.075   3.449 121.821  0.00  0.00    +0.056 A 
ATOM     14  C   LIG A   1      -8.258   3.811 120.490  0.00  0.00    +0.159 A 
ATOM     15  C   LIG A   1      -7.172   4.188 119.706  0.00  0.00    +0.158 A 
ATOM     16  C   LIG A   1      -5.891   4.214 120.235  0.00  0.00    +0.049 A 
ATOM     17  C   LIG A   1      -5.696   3.856 121.571  0.00  0.00    +0.011 A 
BRANCH  14  18
ATOM     18  O   LIG A   1      -9.494   3.810 119.906  0.00  0.00    -0.503 OA
ATOM     19  H   LIG A   1     -10.142   4.101 120.571  0.00  0.00    +0.292 HD
ENDBRANCH  14  18
BRANCH  15  20
ATOM     20  O   LIG A   1      -7.362   4.539 118.401  0.00  0.00    -0.503 OA
ATOM     21  H   LIG A   1      -6.485   4.417 117.987  0.00  0.00    +0.292 HD
ENDBRANCH  15  20
ENDBRANCH   7  12
BRANCH   1  22
ATOM     22  O   LIG A   1      -2.272   3.814 127.838  0.00  0.00    -0.507 OA
ATOM     23  H   LIG A   1      -2.162   3.530 128.760  0.00  0.00    +0.292 HD
ENDBRANCH   1  22
TORSDOF 4
ENDMDL
MODEL 8
REMARK VINA RESULT:      -6.9      2.429      7.119
REMARK  Name = NuBBE_563
REMARK  4 active torsions:
REMARK  status: ('A' for Active; 'I' for Inactive)
REMARK    1  A    between atoms: O_1  and  C_2
REMARK    2  A    between atoms: C_8  and  C_10
REMARK    3  A    between atoms: C_12  and  O_13
REMARK    4  A    between atoms: C_14  and  O_15
REMARK                            x       y       z     vdW  Elec       q    Type
REMARK                         _______ _______ _______ _____ _____    ______ ____
ROOT
ATOM      1  C   LIG A   1      -7.214   5.011 135.232  0.00  0.00    +0.120 A 
ATOM      2  C   LIG A   1      -6.955   3.696 134.856  0.00  0.00    +0.046 A 
ATOM      3  C   LIG A   1      -7.571   3.174 133.718  0.00  0.00    +0.018 A 
ATOM      4  C   LIG A   1      -8.432   3.981 132.965  0.00  0.00    +0.059 A 
ATOM      5  C   LIG A   1      -9.142   3.435 131.792  0.00  0.00    +0.171 C 
ATOM      6  C   LIG A   1     -10.142   4.343 131.134  0.00  0.00    +0.129 C 
ATOM      7  C   LIG A   1      -9.644   5.776 131.262  0.00  0.00    +0.211 C 
ATOM      8  O   LIG A   1      -9.495   6.148 132.643  0.00  0.00    -0.483 OA
ATOM      9  O   LIG A   1      -8.961   2.277 131.428  0.00  0.00    -0.292 OA
ATOM     10  C   LIG A   1      -8.667   5.307 133.336  0.00  0.00    +0.135 A 
ATOM     11  C   LIG A   1      -8.068   5.819 134.484  0.00  0.00    +0.091 A 
ENDROOT
BRANCH   7  12
ATOM     12  C   LIG A   1     -10.615   6.734 130.593  0.00  0.00    -0.003 A 
ATOM     13  C   LIG A   1     -10.284   7.397 129.396  0.00  0.00    +0.056 A 
ATOM     14  C   LIG A   1     -11.189   8.287 128.826  0.00  0.00    +0.159 A 
ATOM     15  C   LIG A   1     -12.414   8.533 129.436  0.00  0.00    +0.158 A 
ATOM     16  C   LIG A   1     -12.759   7.898 130.618  0.00  0.00    +0.049 A 
ATOM     17  C   LIG A   1     -11.859   6.999 131.198  0.00  0.00    +0.011 A 
BRANCH  14  18
ATOM     18  O   LIG A   1     -10.915   8.947 127.660  0.00  0.00    -0.503 OA
ATOM     19  H   LIG A   1     -10.292   9.667 127.861  0.00  0.00    +0.292 HD
ENDBRANCH  14  18
BRANCH  15  20
ATOM     20  O   LIG A   1     -13.294   9.411 128.870  0.00  0.00    -0.503 OA
ATOM     21  H   LIG A   1     -14.172   9.101 129.168  0.00  0.00    +0.292 HD
ENDBRANCH  15  20
ENDBRANCH   7  12
BRANCH   1  22
ATOM     22  O   LIG A   1      -6.642   5.556 136.344  0.00  0.00    -0.507 OA
ATOM     23  H   LIG A   1      -5.685   5.637 136.199  0.00  0.00    +0.292 HD
ENDBRANCH   1  22
TORSDOF 4
ENDMDL
MODEL 9
REMARK VINA RESULT:      -6.6      2.876      7.778
REMARK  Name = NuBBE_563
REMARK  4 active torsions:
REMARK  status: ('A' for Active; 'I' for Inactive)
REMARK    1  A    between atoms: O_1  and  C_2
REMARK    2  A    between atoms: C_8  and  C_10
REMARK    3  A    between atoms: C_12  and  O_13
REMARK    4  A    between atoms: C_14  and  O_15
REMARK                            x       y       z     vdW  Elec       q    Type
REMARK                         _______ _______ _______ _____ _____    ______ ____
ROOT
ATOM      1  C   LIG A   1      -1.698   6.371 133.667  0.00  0.00    +0.120 A 
ATOM      2  C   LIG A   1      -1.026   6.412 132.448  0.00  0.00    +0.046 A 
ATOM      3  C   LIG A   1      -1.754   6.334 131.261  0.00  0.00    +0.018 A 
ATOM      4  C   LIG A   1      -3.149   6.226 131.309  0.00  0.00    +0.059 A 
ATOM      5  C   LIG A   1      -3.936   6.082 130.069  0.00  0.00    +0.171 C 
ATOM      6  C   LIG A   1      -5.410   5.841 130.237  0.00  0.00    +0.129 C 
ATOM      7  C   LIG A   1      -5.876   6.578 131.486  0.00  0.00    +0.211 C 
ATOM      8  O   LIG A   1      -5.177   6.109 132.652  0.00  0.00    -0.483 OA
ATOM      9  O   LIG A   1      -3.390   6.097 128.971  0.00  0.00    -0.292 OA
ATOM     10  C   LIG A   1      -3.816   6.210 132.536  0.00  0.00    +0.135 A 
ATOM     11  C   LIG A   1      -3.086   6.266 133.720  0.00  0.00    +0.091 A 
ENDROOT
BRANCH   7  12
ATOM     12  C   LIG A   1      -7.368   6.379 131.690  0.00  0.00    -0.003 A 
ATOM     13  C   LIG A   1      -7.864   5.558 132.720  0.00  0.00    +0.056 A 
ATOM     14  C   LIG A   1      -9.237   5.380 132.860  0.00  0.00    +0.159 A 
ATOM     15  C   LIG A   1     -10.122   5.999 131.983  0.00  0.00    +0.158 A 
ATOM     16  C   LIG A   1      -9.656   6.805 130.957  0.00  0.00    +0.049 A 
ATOM     17  C   LIG A   1      -8.279   6.994 130.809  0.00  0.00    +0.011 A 
BRANCH  14  18
ATOM     18  O   LIG A   1      -9.766   4.599 133.851  0.00  0.00    -0.503 OA
ATOM     19  H   LIG A   1     -10.684   4.384 133.608  0.00  0.00    +0.292 HD
ENDBRANCH  14  18
BRANCH  15  20
ATOM     20  O   LIG A   1     -11.467   5.815 132.128  0.00  0.00    -0.503 OA
ATOM     21  H   LIG A   1     -11.809   5.797 131.212  0.00  0.00    +0.292 HD
ENDBRANCH  15  20
ENDBRANCH   7  12
BRANCH   1  22
ATOM     22  O   LIG A   1      -1.024   6.432 134.851  0.00  0.00    -0.507 OA
ATOM     23  H   LIG A   1      -0.188   5.946 134.765  0.00  0.00    +0.292 HD
ENDBRANCH   1  22
TORSDOF 4
ENDMDL
