MODEL 1
REMARK VINA RESULT:      -9.1      0.000      0.000
REMARK  Name = NuBBE_104
REMARK  15 active torsions:
REMARK  status: ('A' for Active; 'I' for Inactive)
REMARK    1  A    between atoms: C_2  and  C_3
REMARK    2  A    between atoms: C_4  and  O_31
REMARK    3  A    between atoms: C_8  and  C_27
REMARK    4  A    between atoms: C_9  and  C_10
REMARK    5  A    between atoms: C_10  and  C_11
REMARK    6  A    between atoms: CA_13  and  C_14
REMARK    7  A    between atoms: C_14  and  O_15
REMARK    8  A    between atoms: C_27  and  O_28
REMARK    9  A    between atoms: O_28  and  C_29
REMARK   10  A    between atoms: O_31  and  C_32
REMARK   11  A    between atoms: C_35  and  C_43
REMARK   12  A    between atoms: C_37  and  O_42
REMARK   13  A    between atoms: C_39  and  O_41
REMARK   14  A    between atoms: C_43  and  O_44
REMARK   15  A    between atoms: C_45  and  O_47
REMARK                            x       y       z     vdW  Elec       q    Type
REMARK                         _______ _______ _______ _____ _____    ______ ____
ROOT
ATOM      1  C   LIG A   1      -7.440   3.379 127.306  0.00  0.00    +0.088 C 
ATOM      2  C   LIG A   1      -7.752   3.156 128.822  0.00  0.00    +0.316 C 
ATOM      3  O   LIG A   1      -6.631   2.540 129.464  0.00  0.00    -0.470 OA
ATOM      4  C   LIG A   1      -6.295   1.348 128.896  0.00  0.00    +0.201 C 
ATOM      5  C   LIG A   1      -6.558   0.992 127.626  0.00  0.00    +0.075 C 
ATOM      6  C   LIG A   1      -7.178   1.964 126.632  0.00  0.00    +0.048 C 
ENDROOT
BRANCH   1   8
ATOM      7  C   LIG A   1      -5.095   4.313 126.849  0.00  0.00    +0.004 C 
ATOM      8  C   LIG A   1      -6.393   4.467 127.139  0.00  0.00    -0.025 C 
ENDBRANCH   1   8
BRANCH   5   9
ATOM      9  C   LIG A   1      -6.324  -0.427 127.258  0.00  0.00    +0.338 C 
ATOM     10  O   LIG A   1      -5.213  -0.881 126.981  0.00  0.00    -0.245 OA
BRANCH   9  11
ATOM     11  O   LIG A   1      -7.492  -1.109 127.217  0.00  0.00    -0.465 OA
ATOM     12  C   LIG A   1      -7.467  -2.422 127.762  0.00  0.00    +0.280 C 
ENDBRANCH   9  11
ENDBRANCH   5   9
BRANCH   6  13
ATOM     13  C   LIG A   1      -6.395   1.985 125.290  0.00  0.00    +0.067 C 
BRANCH  13  14
ATOM     14  C   LIG A   1      -7.250   2.158 124.064  0.00  0.00    +0.067 A 
ATOM     15  N   LIG A   1      -8.460   1.550 124.071  0.00  0.00    -0.243 NA
ATOM     16  CA  LIG A   1      -9.295   1.662 123.010  0.00  0.00    +0.148 A 
ATOM     17  C   LIG A   1      -9.002   2.374 121.857  0.00  0.00    +0.045 A 
ATOM     18  C   LIG A   1      -7.757   3.022 121.824  0.00  0.00    +0.011 A 
ATOM     19  C   LIG A   1      -6.914   2.910 122.931  0.00  0.00    +0.069 A 
ATOM     20  N   LIG A   1      -5.794   3.667 122.660  0.00  0.00    -0.353 N 
ATOM     21  C   LIG A   1      -5.868   4.225 121.405  0.00  0.00    +0.048 A 
ATOM     22  C   LIG A   1      -4.957   5.045 120.727  0.00  0.00    +0.026 A 
ATOM     23  C   LIG A   1      -5.300   5.466 119.439  0.00  0.00    +0.002 A 
ATOM     24  C   LIG A   1      -6.507   5.088 118.857  0.00  0.00    +0.001 A 
ATOM     25  C   LIG A   1      -7.410   4.276 119.554  0.00  0.00    +0.010 A 
ATOM     26  C   LIG A   1      -7.087   3.833 120.853  0.00  0.00    +0.007 A 
ATOM     27  H   LIG A   1      -5.023   3.805 123.299  0.00  0.00    +0.166 HD
BRANCH  16  28
ATOM     28  C   LIG A   1     -10.610   0.967 123.120  0.00  0.00    +0.355 C 
ATOM     29  OXT LIG A   1     -10.978   0.024 122.451  0.00  0.00    -0.243 OA
BRANCH  28  30
ATOM     30  O   LIG A   1     -11.379   1.475 124.108  0.00  0.00    -0.476 OA
ATOM     31  H   LIG A   1     -10.751   1.889 124.731  0.00  0.00    +0.295 HD
ENDBRANCH  28  30
ENDBRANCH  16  28
ENDBRANCH  13  14
ENDBRANCH   6  13
BRANCH   2  32
ATOM     32  O   LIG A   1      -8.153   4.355 129.527  0.00  0.00    -0.309 OA
BRANCH  32  33
ATOM     33  C   LIG A   1      -9.273   4.080 130.392  0.00  0.00    +0.286 C 
ATOM     34  O   LIG A   1     -10.508   4.509 129.804  0.00  0.00    -0.340 OA
ATOM     35  C   LIG A   1     -10.889   5.882 129.946  0.00  0.00    +0.178 C 
ATOM     36  C   LIG A   1     -10.697   6.453 131.363  0.00  0.00    +0.177 C 
ATOM     37  C   LIG A   1      -9.348   6.080 131.988  0.00  0.00    +0.179 C 
ATOM     38  C   LIG A   1      -9.103   4.574 131.854  0.00  0.00    +0.201 C 
BRANCH  37  39
ATOM     39  O   LIG A   1      -8.263   6.853 131.488  0.00  0.00    -0.386 OA
ATOM     40  H   LIG A   1      -8.602   7.520 130.851  0.00  0.00    +0.210 HD
ENDBRANCH  37  39
BRANCH  36  41
ATOM     41  O   LIG A   1     -11.760   5.950 132.198  0.00  0.00    -0.387 OA
ATOM     42  H   LIG A   1     -12.532   5.795 131.611  0.00  0.00    +0.210 HD
ENDBRANCH  36  41
BRANCH  38  43
ATOM     43  O   LIG A   1     -10.082   3.887 132.678  0.00  0.00    -0.384 OA
ATOM     44  H   LIG A   1     -10.174   4.396 133.506  0.00  0.00    +0.210 HD
ENDBRANCH  38  43
BRANCH  35  45
ATOM     45  C   LIG A   1     -10.302   6.778 128.847  0.00  0.00    +0.190 C 
BRANCH  45  46
ATOM     46  O   LIG A   1      -9.686   6.048 127.798  0.00  0.00    -0.392 OA
ATOM     47  H   LIG A   1     -10.405   5.720 127.225  0.00  0.00    +0.209 HD
ENDBRANCH  45  46
ENDBRANCH  35  45
ENDBRANCH  32  33
ENDBRANCH   2  32
TORSDOF 14
ENDMDL
MODEL 2
REMARK VINA RESULT:      -8.9      3.546      8.637
REMARK  Name = NuBBE_104
REMARK  15 active torsions:
REMARK  status: ('A' for Active; 'I' for Inactive)
REMARK    1  A    between atoms: C_2  and  C_3
REMARK    2  A    between atoms: C_4  and  O_31
REMARK    3  A    between atoms: C_8  and  C_27
REMARK    4  A    between atoms: C_9  and  C_10
REMARK    5  A    between atoms: C_10  and  C_11
REMARK    6  A    between atoms: CA_13  and  C_14
REMARK    7  A    between atoms: C_14  and  O_15
REMARK    8  A    between atoms: C_27  and  O_28
REMARK    9  A    between atoms: O_28  and  C_29
REMARK   10  A    between atoms: O_31  and  C_32
REMARK   11  A    between atoms: C_35  and  C_43
REMARK   12  A    between atoms: C_37  and  O_42
REMARK   13  A    between atoms: C_39  and  O_41
REMARK   14  A    between atoms: C_43  and  O_44
REMARK   15  A    between atoms: C_45  and  O_47
REMARK                            x       y       z     vdW  Elec       q    Type
REMARK                         _______ _______ _______ _____ _____    ______ ____
ROOT
ATOM      1  C   LIG A   1      -7.780   1.677 127.800  0.00  0.00    +0.088 C 
ATOM      2  C   LIG A   1      -7.648   0.924 126.436  0.00  0.00    +0.316 C 
ATOM      3  O   LIG A   1      -6.304   1.023 125.954  0.00  0.00    -0.470 OA
ATOM      4  C   LIG A   1      -5.902   2.315 125.794  0.00  0.00    +0.201 C 
ATOM      5  C   LIG A   1      -6.405   3.373 126.454  0.00  0.00    +0.075 C 
ATOM      6  C   LIG A   1      -7.433   3.210 127.566  0.00  0.00    +0.048 C 
ENDROOT
BRANCH   1   8
ATOM      7  C   LIG A   1      -7.565   0.256 129.924  0.00  0.00    +0.004 C 
ATOM      8  C   LIG A   1      -7.038   0.924 128.891  0.00  0.00    -0.025 C 
ENDBRANCH   1   8
BRANCH   5   9
ATOM      9  C   LIG A   1      -6.005   4.722 125.979  0.00  0.00    +0.338 C 
ATOM     10  O   LIG A   1      -6.802   5.545 125.528  0.00  0.00    -0.245 OA
BRANCH   9  11
ATOM     11  O   LIG A   1      -4.663   4.878 126.059  0.00  0.00    -0.465 OA
ATOM     12  C   LIG A   1      -4.167   5.384 127.292  0.00  0.00    +0.280 C 
ENDBRANCH   9  11
ENDBRANCH   5   9
BRANCH   6  13
ATOM     13  C   LIG A   1      -7.035   4.018 128.832  0.00  0.00    +0.067 C 
BRANCH  13  14
ATOM     14  C   LIG A   1      -8.181   4.365 129.744  0.00  0.00    +0.067 A 
ATOM     15  N   LIG A   1      -8.252   3.697 130.919  0.00  0.00    -0.243 NA
ATOM     16  CA  LIG A   1      -9.247   3.955 131.801  0.00  0.00    +0.148 A 
ATOM     17  C   LIG A   1     -10.253   4.886 131.593  0.00  0.00    +0.045 A 
ATOM     18  C   LIG A   1     -10.201   5.601 130.385  0.00  0.00    +0.011 A 
ATOM     19  C   LIG A   1      -9.160   5.334 129.493  0.00  0.00    +0.069 A 
ATOM     20  N   LIG A   1      -9.318   6.193 128.427  0.00  0.00    -0.353 N 
ATOM     21  C   LIG A   1     -10.442   6.970 128.581  0.00  0.00    +0.048 A 
ATOM     22  C   LIG A   1     -10.981   7.954 127.743  0.00  0.00    +0.026 A 
ATOM     23  C   LIG A   1     -12.155   8.587 128.158  0.00  0.00    +0.002 A 
ATOM     24  C   LIG A   1     -12.761   8.254 129.367  0.00  0.00    +0.001 A 
ATOM     25  C   LIG A   1     -12.204   7.274 130.197  0.00  0.00    +0.010 A 
ATOM     26  C   LIG A   1     -11.021   6.616 129.799  0.00  0.00    +0.007 A 
ATOM     27  H   LIG A   1      -8.688   6.255 127.639  0.00  0.00    +0.166 HD
BRANCH  16  28
ATOM     28  C   LIG A   1      -9.231   3.176 133.073  0.00  0.00    +0.355 C 
ATOM     29  OXT LIG A   1      -8.657   2.123 133.259  0.00  0.00    -0.243 OA
BRANCH  28  30
ATOM     30  O   LIG A   1      -9.907   3.797 134.065  0.00  0.00    -0.476 OA
ATOM     31  H   LIG A   1     -10.318   4.575 133.642  0.00  0.00    +0.295 HD
ENDBRANCH  28  30
ENDBRANCH  16  28
ENDBRANCH  13  14
ENDBRANCH   6  13
BRANCH   2  32
ATOM     32  O   LIG A   1      -8.079  -0.457 126.478  0.00  0.00    -0.309 OA
BRANCH  32  33
ATOM     33  C   LIG A   1      -9.120  -0.689 125.508  0.00  0.00    +0.286 C 
ATOM     34  O   LIG A   1      -9.964  -1.781 125.895  0.00  0.00    -0.340 OA
ATOM     35  C   LIG A   1      -9.540  -3.113 125.583  0.00  0.00    +0.178 C 
ATOM     36  C   LIG A   1      -8.991  -3.288 124.155  0.00  0.00    +0.177 C 
ATOM     37  C   LIG A   1      -8.018  -2.179 123.740  0.00  0.00    +0.179 C 
ATOM     38  C   LIG A   1      -8.627  -0.806 124.040  0.00  0.00    +0.201 C 
BRANCH  37  39
ATOM     39  O   LIG A   1      -6.719  -2.330 124.301  0.00  0.00    -0.386 OA
ATOM     40  H   LIG A   1      -6.470  -1.508 124.778  0.00  0.00    +0.210 HD
ENDBRANCH  37  39
BRANCH  36  41
ATOM     41  O   LIG A   1     -10.108  -3.304 123.243  0.00  0.00    -0.387 OA
ATOM     42  H   LIG A   1     -10.068  -4.159 122.762  0.00  0.00    +0.210 HD
ENDBRANCH  36  41
BRANCH  38  43
ATOM     43  O   LIG A   1      -9.773  -0.624 123.165  0.00  0.00    -0.384 OA
ATOM     44  H   LIG A   1     -10.575  -0.731 123.710  0.00  0.00    +0.210 HD
ENDBRANCH  38  43
BRANCH  35  45
ATOM     45  C   LIG A   1      -8.629  -3.715 126.661  0.00  0.00    +0.190 C 
BRANCH  45  46
ATOM     46  O   LIG A   1      -8.645  -2.987 127.879  0.00  0.00    -0.392 OA
ATOM     47  H   LIG A   1      -8.404  -2.067 127.658  0.00  0.00    +0.209 HD
ENDBRANCH  45  46
ENDBRANCH  35  45
ENDBRANCH  32  33
ENDBRANCH   2  32
TORSDOF 14
ENDMDL
MODEL 3
REMARK VINA RESULT:      -8.6      1.092      1.992
REMARK  Name = NuBBE_104
REMARK  15 active torsions:
REMARK  status: ('A' for Active; 'I' for Inactive)
REMARK    1  A    between atoms: C_2  and  C_3
REMARK    2  A    between atoms: C_4  and  O_31
REMARK    3  A    between atoms: C_8  and  C_27
REMARK    4  A    between atoms: C_9  and  C_10
REMARK    5  A    between atoms: C_10  and  C_11
REMARK    6  A    between atoms: CA_13  and  C_14
REMARK    7  A    between atoms: C_14  and  O_15
REMARK    8  A    between atoms: C_27  and  O_28
REMARK    9  A    between atoms: O_28  and  C_29
REMARK   10  A    between atoms: O_31  and  C_32
REMARK   11  A    between atoms: C_35  and  C_43
REMARK   12  A    between atoms: C_37  and  O_42
REMARK   13  A    between atoms: C_39  and  O_41
REMARK   14  A    between atoms: C_43  and  O_44
REMARK   15  A    between atoms: C_45  and  O_47
REMARK                            x       y       z     vdW  Elec       q    Type
REMARK                         _______ _______ _______ _____ _____    ______ ____
ROOT
ATOM      1  C   LIG A   1      -6.440   3.287 127.546  0.00  0.00    +0.088 C 
ATOM      2  C   LIG A   1      -6.685   2.816 129.017  0.00  0.00    +0.316 C 
ATOM      3  O   LIG A   1      -5.745   1.795 129.364  0.00  0.00    -0.470 OA
ATOM      4  C   LIG A   1      -5.814   0.718 128.532  0.00  0.00    +0.201 C 
ATOM      5  C   LIG A   1      -6.266   0.743 127.265  0.00  0.00    +0.075 C 
ATOM      6  C   LIG A   1      -6.652   2.046 126.577  0.00  0.00    +0.048 C 
ENDROOT
BRANCH   1   8
ATOM      7  C   LIG A   1      -4.913   5.201 126.782  0.00  0.00    +0.004 C 
ATOM      8  C   LIG A   1      -5.138   4.065 127.453  0.00  0.00    -0.025 C 
ENDBRANCH   1   8
BRANCH   5   9
ATOM      9  C   LIG A   1      -6.482  -0.564 126.597  0.00  0.00    +0.338 C 
ATOM     10  O   LIG A   1      -5.571  -1.238 126.115  0.00  0.00    -0.245 OA
BRANCH   9  11
ATOM     11  O   LIG A   1      -7.801  -0.863 126.547  0.00  0.00    -0.465 OA
ATOM     12  C   LIG A   1      -8.143  -2.220 126.800  0.00  0.00    +0.280 C 
ENDBRANCH   9  11
ENDBRANCH   5   9
BRANCH   6  13
ATOM     13  C   LIG A   1      -6.003   2.162 125.170  0.00  0.00    +0.067 C 
BRANCH  13  14
ATOM     14  C   LIG A   1      -6.980   2.295 124.034  0.00  0.00    +0.067 A 
ATOM     15  N   LIG A   1      -8.180   1.687 124.184  0.00  0.00    -0.243 NA
ATOM     16  CA  LIG A   1      -9.120   1.765 123.212  0.00  0.00    +0.148 A 
ATOM     17  C   LIG A   1      -8.950   2.441 122.013  0.00  0.00    +0.045 A 
ATOM     18  C   LIG A   1      -7.717   3.089 121.832  0.00  0.00    +0.011 A 
ATOM     19  C   LIG A   1      -6.764   3.012 122.850  0.00  0.00    +0.069 A 
ATOM     20  N   LIG A   1      -5.681   3.761 122.441  0.00  0.00    -0.353 N 
ATOM     21  C   LIG A   1      -5.887   4.279 121.184  0.00  0.00    +0.048 A 
ATOM     22  C   LIG A   1      -5.053   5.078 120.390  0.00  0.00    +0.026 A 
ATOM     23  C   LIG A   1      -5.528   5.458 119.132  0.00  0.00    +0.002 A 
ATOM     24  C   LIG A   1      -6.787   5.061 118.690  0.00  0.00    +0.001 A 
ATOM     25  C   LIG A   1      -7.610   4.270 119.500  0.00  0.00    +0.010 A 
ATOM     26  C   LIG A   1      -7.154   3.869 120.773  0.00  0.00    +0.007 A 
ATOM     27  H   LIG A   1      -4.849   3.919 122.993  0.00  0.00    +0.166 HD
BRANCH  16  28
ATOM     28  C   LIG A   1     -10.414   1.073 123.477  0.00  0.00    +0.355 C 
ATOM     29  OXT LIG A   1     -11.089   1.179 124.480  0.00  0.00    -0.243 OA
BRANCH  28  30
ATOM     30  O   LIG A   1     -10.815   0.315 122.434  0.00  0.00    -0.476 OA
ATOM     31  H   LIG A   1     -10.267  -0.492 122.481  0.00  0.00    +0.295 HD
ENDBRANCH  28  30
ENDBRANCH  16  28
ENDBRANCH  13  14
ENDBRANCH   6  13
BRANCH   2  32
ATOM     32  O   LIG A   1      -6.666   3.886 129.992  0.00  0.00    -0.309 OA
BRANCH  32  33
ATOM     33  C   LIG A   1      -7.772   4.785 129.775  0.00  0.00    +0.286 C 
ATOM     34  O   LIG A   1      -7.473   6.106 130.244  0.00  0.00    -0.340 OA
ATOM     35  C   LIG A   1      -7.665   6.395 131.634  0.00  0.00    +0.178 C 
ATOM     36  C   LIG A   1      -8.985   5.862 132.218  0.00  0.00    +0.177 C 
ATOM     37  C   LIG A   1      -9.293   4.419 131.802  0.00  0.00    +0.179 C 
ATOM     38  C   LIG A   1      -9.143   4.265 130.286  0.00  0.00    +0.201 C 
BRANCH  37  39
ATOM     39  O   LIG A   1      -8.537   3.452 132.523  0.00  0.00    -0.386 OA
ATOM     40  H   LIG A   1      -7.842   3.078 131.939  0.00  0.00    +0.210 HD
ENDBRANCH  37  39
BRANCH  36  41
ATOM     41  O   LIG A   1     -10.055   6.721 131.772  0.00  0.00    -0.387 OA
ATOM     42  H   LIG A   1      -9.700   7.636 131.768  0.00  0.00    +0.210 HD
ENDBRANCH  36  41
BRANCH  38  43
ATOM     43  O   LIG A   1     -10.187   5.051 129.651  0.00  0.00    -0.384 OA
ATOM     44  H   LIG A   1     -10.700   5.481 130.362  0.00  0.00    +0.210 HD
ENDBRANCH  38  43
BRANCH  35  45
ATOM     45  C   LIG A   1      -6.439   6.047 132.488  0.00  0.00    +0.190 C 
BRANCH  45  46
ATOM     46  O   LIG A   1      -6.772   5.420 133.717  0.00  0.00    -0.392 OA
ATOM     47  H   LIG A   1      -7.732   5.539 133.841  0.00  0.00    +0.209 HD
ENDBRANCH  45  46
ENDBRANCH  35  45
ENDBRANCH  32  33
ENDBRANCH   2  32
TORSDOF 14
ENDMDL
MODEL 4
REMARK VINA RESULT:      -8.5      2.358      3.229
REMARK  Name = NuBBE_104
REMARK  15 active torsions:
REMARK  status: ('A' for Active; 'I' for Inactive)
REMARK    1  A    between atoms: C_2  and  C_3
REMARK    2  A    between atoms: C_4  and  O_31
REMARK    3  A    between atoms: C_8  and  C_27
REMARK    4  A    between atoms: C_9  and  C_10
REMARK    5  A    between atoms: C_10  and  C_11
REMARK    6  A    between atoms: CA_13  and  C_14
REMARK    7  A    between atoms: C_14  and  O_15
REMARK    8  A    between atoms: C_27  and  O_28
REMARK    9  A    between atoms: O_28  and  C_29
REMARK   10  A    between atoms: O_31  and  C_32
REMARK   11  A    between atoms: C_35  and  C_43
REMARK   12  A    between atoms: C_37  and  O_42
REMARK   13  A    between atoms: C_39  and  O_41
REMARK   14  A    between atoms: C_43  and  O_44
REMARK   15  A    between atoms: C_45  and  O_47
REMARK                            x       y       z     vdW  Elec       q    Type
REMARK                         _______ _______ _______ _____ _____    ______ ____
ROOT
ATOM      1  C   LIG A   1      -7.166   1.231 129.427  0.00  0.00    +0.088 C 
ATOM      2  C   LIG A   1      -7.828   1.415 130.831  0.00  0.00    +0.316 C 
ATOM      3  O   LIG A   1      -7.239   0.509 131.770  0.00  0.00    -0.470 OA
ATOM      4  C   LIG A   1      -7.361  -0.792 131.385  0.00  0.00    +0.201 C 
ATOM      5  C   LIG A   1      -7.504  -1.217 130.117  0.00  0.00    +0.075 C 
ATOM      6  C   LIG A   1      -7.430  -0.257 128.936  0.00  0.00    +0.048 C 
ENDROOT
BRANCH   1   8
ATOM      7  C   LIG A   1      -5.282   2.911 128.978  0.00  0.00    +0.004 C 
ATOM      8  C   LIG A   1      -5.736   1.744 129.448  0.00  0.00    -0.025 C 
ENDBRANCH   1   8
BRANCH   5   9
ATOM      9  C   LIG A   1      -7.854  -2.646 129.916  0.00  0.00    +0.338 C 
ATOM     10  O   LIG A   1      -8.692  -3.030 129.100  0.00  0.00    -0.245 OA
BRANCH   9  11
ATOM     11  O   LIG A   1      -7.172  -3.430 130.783  0.00  0.00    -0.465 OA
ATOM     12  C   LIG A   1      -6.059  -4.132 130.245  0.00  0.00    +0.280 C 
ENDBRANCH   9  11
ENDBRANCH   5   9
BRANCH   6  13
ATOM     13  C   LIG A   1      -6.477  -0.788 127.830  0.00  0.00    +0.067 C 
BRANCH  13  14
ATOM     14  C   LIG A   1      -6.976  -0.598 126.423  0.00  0.00    +0.067 A 
ATOM     15  N   LIG A   1      -7.757  -1.579 125.913  0.00  0.00    -0.243 NA
ATOM     16  CA  LIG A   1      -8.255  -1.482 124.657  0.00  0.00    +0.148 A 
ATOM     17  C   LIG A   1      -8.018  -0.416 123.803  0.00  0.00    +0.045 A 
ATOM     18  C   LIG A   1      -7.217   0.621 124.308  0.00  0.00    +0.011 A 
ATOM     19  C   LIG A   1      -6.724   0.514 125.610  0.00  0.00    +0.069 A 
ATOM     20  N   LIG A   1      -6.018   1.670 125.866  0.00  0.00    -0.353 N 
ATOM     21  C   LIG A   1      -6.006   2.495 124.766  0.00  0.00    +0.048 A 
ATOM     22  C   LIG A   1      -5.404   3.747 124.584  0.00  0.00    +0.026 A 
ATOM     23  C   LIG A   1      -5.554   4.362 123.338  0.00  0.00    +0.002 A 
ATOM     24  C   LIG A   1      -6.282   3.752 122.319  0.00  0.00    +0.001 A 
ATOM     25  C   LIG A   1      -6.885   2.505 122.523  0.00  0.00    +0.010 A 
ATOM     26  C   LIG A   1      -6.745   1.860 123.769  0.00  0.00    +0.007 A 
ATOM     27  H   LIG A   1      -5.577   1.892 126.748  0.00  0.00    +0.166 HD
BRANCH  16  28
ATOM     28  C   LIG A   1      -9.114  -2.608 124.191  0.00  0.00    +0.355 C 
ATOM     29  OXT LIG A   1      -9.081  -3.127 123.095  0.00  0.00    -0.243 OA
BRANCH  28  30
ATOM     30  O   LIG A   1      -9.945  -3.056 125.158  0.00  0.00    -0.476 OA
ATOM     31  H   LIG A   1      -9.605  -3.940 125.395  0.00  0.00    +0.295 HD
ENDBRANCH  28  30
ENDBRANCH  16  28
ENDBRANCH  13  14
ENDBRANCH   6  13
BRANCH   2  32
ATOM     32  O   LIG A   1      -7.787   2.773 131.332  0.00  0.00    -0.309 OA
BRANCH  32  33
ATOM     33  C   LIG A   1      -9.008   3.088 132.031  0.00  0.00    +0.286 C 
ATOM     34  O   LIG A   1     -10.008   3.593 131.136  0.00  0.00    -0.340 OA
ATOM     35  C   LIG A   1      -9.981   4.985 130.799  0.00  0.00    +0.178 C 
ATOM     36  C   LIG A   1      -9.752   5.925 131.996  0.00  0.00    +0.177 C 
ATOM     37  C   LIG A   1      -8.630   5.456 132.928  0.00  0.00    +0.179 C 
ATOM     38  C   LIG A   1      -8.826   3.981 133.288  0.00  0.00    +0.201 C 
BRANCH  37  39
ATOM     39  O   LIG A   1      -7.328   5.722 132.420  0.00  0.00    -0.386 OA
ATOM     40  H   LIG A   1      -6.903   4.879 132.150  0.00  0.00    +0.210 HD
ENDBRANCH  37  39
BRANCH  36  41
ATOM     41  O   LIG A   1     -10.983   6.010 132.742  0.00  0.00    -0.387 OA
ATOM     42  H   LIG A   1     -10.827   5.558 133.599  0.00  0.00    +0.210 HD
ENDBRANCH  36  41
BRANCH  38  43
ATOM     43  O   LIG A   1     -10.030   3.873 134.094  0.00  0.00    -0.384 OA
ATOM     44  H   LIG A   1     -10.203   2.923 134.234  0.00  0.00    +0.210 HD
ENDBRANCH  38  43
BRANCH  35  45
ATOM     45  C   LIG A   1      -9.067   5.289 129.605  0.00  0.00    +0.190 C 
BRANCH  45  46
ATOM     46  O   LIG A   1      -8.859   4.169 128.758  0.00  0.00    -0.392 OA
ATOM     47  H   LIG A   1      -9.727   3.946 128.372  0.00  0.00    +0.209 HD
ENDBRANCH  45  46
ENDBRANCH  35  45
ENDBRANCH  32  33
ENDBRANCH   2  32
TORSDOF 14
ENDMDL
MODEL 5
REMARK VINA RESULT:      -8.5      3.264      7.000
REMARK  Name = NuBBE_104
REMARK  15 active torsions:
REMARK  status: ('A' for Active; 'I' for Inactive)
REMARK    1  A    between atoms: C_2  and  C_3
REMARK    2  A    between atoms: C_4  and  O_31
REMARK    3  A    between atoms: C_8  and  C_27
REMARK    4  A    between atoms: C_9  and  C_10
REMARK    5  A    between atoms: C_10  and  C_11
REMARK    6  A    between atoms: CA_13  and  C_14
REMARK    7  A    between atoms: C_14  and  O_15
REMARK    8  A    between atoms: C_27  and  O_28
REMARK    9  A    between atoms: O_28  and  C_29
REMARK   10  A    between atoms: O_31  and  C_32
REMARK   11  A    between atoms: C_35  and  C_43
REMARK   12  A    between atoms: C_37  and  O_42
REMARK   13  A    between atoms: C_39  and  O_41
REMARK   14  A    between atoms: C_43  and  O_44
REMARK   15  A    between atoms: C_45  and  O_47
REMARK                            x       y       z     vdW  Elec       q    Type
REMARK                         _______ _______ _______ _____ _____    ______ ____
ROOT
ATOM      1  C   LIG A   1      -6.873   3.411 127.156  0.00  0.00    +0.088 C 
ATOM      2  C   LIG A   1      -5.711   4.421 126.883  0.00  0.00    +0.316 C 
ATOM      3  O   LIG A   1      -6.069   5.295 125.807  0.00  0.00    -0.470 OA
ATOM      4  C   LIG A   1      -6.355   4.619 124.660  0.00  0.00    +0.201 C 
ATOM      5  C   LIG A   1      -6.782   3.345 124.594  0.00  0.00    +0.075 C 
ATOM      6  C   LIG A   1      -7.105   2.542 125.846  0.00  0.00    +0.048 C 
ENDROOT
BRANCH   1   8
ATOM      7  C   LIG A   1      -8.383   4.220 129.065  0.00  0.00    +0.004 C 
ATOM      8  C   LIG A   1      -8.062   4.131 127.769  0.00  0.00    -0.025 C 
ENDBRANCH   1   8
BRANCH   5   9
ATOM      9  C   LIG A   1      -6.817   2.711 123.252  0.00  0.00    +0.338 C 
ATOM     10  O   LIG A   1      -6.539   1.527 123.055  0.00  0.00    -0.245 OA
BRANCH   9  11
ATOM     11  O   LIG A   1      -7.132   3.621 122.301  0.00  0.00    -0.465 OA
ATOM     12  C   LIG A   1      -8.342   3.388 121.592  0.00  0.00    +0.280 C 
ENDBRANCH   9  11
ENDBRANCH   5   9
BRANCH   6  13
ATOM     13  C   LIG A   1      -8.487   1.839 125.732  0.00  0.00    +0.067 C 
BRANCH  13  14
ATOM     14  C   LIG A   1      -8.443   0.340 125.854  0.00  0.00    +0.067 A 
ATOM     15  N   LIG A   1      -8.713  -0.373 124.735  0.00  0.00    -0.243 NA
ATOM     16  CA  LIG A   1      -8.687  -1.727 124.757  0.00  0.00    +0.148 A 
ATOM     17  C   LIG A   1      -8.401  -2.485 125.882  0.00  0.00    +0.045 A 
ATOM     18  C   LIG A   1      -8.109  -1.772 127.056  0.00  0.00    +0.011 A 
ATOM     19  C   LIG A   1      -8.125  -0.377 127.014  0.00  0.00    +0.069 A 
ATOM     20  N   LIG A   1      -7.764   0.065 128.269  0.00  0.00    -0.353 N 
ATOM     21  C   LIG A   1      -7.558  -0.992 129.124  0.00  0.00    +0.048 A 
ATOM     22  C   LIG A   1      -7.196  -1.001 130.478  0.00  0.00    +0.026 A 
ATOM     23  C   LIG A   1      -7.062  -2.243 131.104  0.00  0.00    +0.002 A 
ATOM     24  C   LIG A   1      -7.275  -3.427 130.403  0.00  0.00    +0.001 A 
ATOM     25  C   LIG A   1      -7.628  -3.399 129.048  0.00  0.00    +0.010 A 
ATOM     26  C   LIG A   1      -7.774  -2.159 128.393  0.00  0.00    +0.007 A 
ATOM     27  H   LIG A   1      -7.653   1.036 128.529  0.00  0.00    +0.166 HD
BRANCH  16  28
ATOM     28  C   LIG A   1      -8.985  -2.421 123.471  0.00  0.00    +0.355 C 
ATOM     29  OXT LIG A   1      -8.364  -2.305 122.435  0.00  0.00    -0.243 OA
BRANCH  28  30
ATOM     30  O   LIG A   1     -10.032  -3.269 123.576  0.00  0.00    -0.476 OA
ATOM     31  H   LIG A   1     -10.782  -2.713 123.862  0.00  0.00    +0.295 HD
ENDBRANCH  28  30
ENDBRANCH  16  28
ENDBRANCH  13  14
ENDBRANCH   6  13
BRANCH   2  32
ATOM     32  O   LIG A   1      -5.299   5.178 128.045  0.00  0.00    -0.309 OA
BRANCH  32  33
ATOM     33  C   LIG A   1      -3.866   5.337 128.059  0.00  0.00    +0.286 C 
ATOM     34  O   LIG A   1      -3.252   4.474 129.026  0.00  0.00    -0.340 OA
ATOM     35  C   LIG A   1      -3.195   4.911 130.389  0.00  0.00    +0.178 C 
ATOM     36  C   LIG A   1      -2.764   6.377 130.571  0.00  0.00    +0.177 C 
ATOM     37  C   LIG A   1      -3.466   7.339 129.605  0.00  0.00    +0.179 C 
ATOM     38  C   LIG A   1      -3.375   6.806 128.172  0.00  0.00    +0.201 C 
BRANCH  37  39
ATOM     39  O   LIG A   1      -4.802   7.643 129.987  0.00  0.00    -0.386 OA
ATOM     40  H   LIG A   1      -4.796   8.126 130.843  0.00  0.00    +0.210 HD
ENDBRANCH  37  39
BRANCH  36  41
ATOM     41  O   LIG A   1      -1.338   6.455 130.363  0.00  0.00    -0.387 OA
ATOM     42  H   LIG A   1      -1.200   6.610 129.404  0.00  0.00    +0.210 HD
ENDBRANCH  36  41
BRANCH  38  43
ATOM     43  O   LIG A   1      -1.980   6.847 127.768  0.00  0.00    -0.384 OA
ATOM     44  H   LIG A   1      -1.543   7.538 128.300  0.00  0.00    +0.210 HD
ENDBRANCH  38  43
BRANCH  35  45
ATOM     45  C   LIG A   1      -4.457   4.547 131.183  0.00  0.00    +0.190 C 
BRANCH  45  46
ATOM     46  O   LIG A   1      -5.221   3.515 130.578  0.00  0.00    -0.392 OA
ATOM     47  H   LIG A   1      -4.740   2.681 130.736  0.00  0.00    +0.209 HD
ENDBRANCH  45  46
ENDBRANCH  35  45
ENDBRANCH  32  33
ENDBRANCH   2  32
TORSDOF 14
ENDMDL
MODEL 6
REMARK VINA RESULT:      -8.4      2.373      4.209
REMARK  Name = NuBBE_104
REMARK  15 active torsions:
REMARK  status: ('A' for Active; 'I' for Inactive)
REMARK    1  A    between atoms: C_2  and  C_3
REMARK    2  A    between atoms: C_4  and  O_31
REMARK    3  A    between atoms: C_8  and  C_27
REMARK    4  A    between atoms: C_9  and  C_10
REMARK    5  A    between atoms: C_10  and  C_11
REMARK    6  A    between atoms: CA_13  and  C_14
REMARK    7  A    between atoms: C_14  and  O_15
REMARK    8  A    between atoms: C_27  and  O_28
REMARK    9  A    between atoms: O_28  and  C_29
REMARK   10  A    between atoms: O_31  and  C_32
REMARK   11  A    between atoms: C_35  and  C_43
REMARK   12  A    between atoms: C_37  and  O_42
REMARK   13  A    between atoms: C_39  and  O_41
REMARK   14  A    between atoms: C_43  and  O_44
REMARK   15  A    between atoms: C_45  and  O_47
REMARK                            x       y       z     vdW  Elec       q    Type
REMARK                         _______ _______ _______ _____ _____    ______ ____
ROOT
ATOM      1  C   LIG A   1      -6.292   2.621 129.233  0.00  0.00    +0.088 C 
ATOM      2  C   LIG A   1      -6.746   2.368 130.708  0.00  0.00    +0.316 C 
ATOM      3  O   LIG A   1      -5.750   1.608 131.400  0.00  0.00    -0.470 OA
ATOM      4  C   LIG A   1      -5.494   0.413 130.798  0.00  0.00    +0.201 C 
ATOM      5  C   LIG A   1      -5.689   0.142 129.495  0.00  0.00    +0.075 C 
ATOM      6  C   LIG A   1      -6.124   1.217 128.508  0.00  0.00    +0.048 C 
ENDROOT
BRANCH   1   8
ATOM      7  C   LIG A   1      -5.002   4.693 128.445  0.00  0.00    +0.004 C 
ATOM      8  C   LIG A   1      -5.128   3.597 129.202  0.00  0.00    -0.025 C 
ENDBRANCH   1   8
BRANCH   5   9
ATOM      9  C   LIG A   1      -5.574  -1.277 129.074  0.00  0.00    +0.338 C 
ATOM     10  O   LIG A   1      -4.504  -1.884 129.023  0.00  0.00    -0.245 OA
BRANCH   9  11
ATOM     11  O   LIG A   1      -6.782  -1.766 128.707  0.00  0.00    -0.465 OA
ATOM     12  C   LIG A   1      -7.087  -3.078 129.162  0.00  0.00    +0.280 C 
ENDBRANCH   9  11
ENDBRANCH   5   9
BRANCH   6  13
ATOM     13  C   LIG A   1      -5.237   1.212 127.232  0.00  0.00    +0.067 C 
BRANCH  13  14
ATOM     14  C   LIG A   1      -6.000   1.206 125.935  0.00  0.00    +0.067 A 
ATOM     15  N   LIG A   1      -5.953   2.338 125.193  0.00  0.00    -0.243 NA
ATOM     16  CA  LIG A   1      -6.605   2.413 124.008  0.00  0.00    +0.148 A 
ATOM     17  C   LIG A   1      -7.358   1.383 123.464  0.00  0.00    +0.045 A 
ATOM     18  C   LIG A   1      -7.418   0.194 124.208  0.00  0.00    +0.011 A 
ATOM     19  C   LIG A   1      -6.728   0.127 125.420  0.00  0.00    +0.069 A 
ATOM     20  N   LIG A   1      -6.913  -1.146 125.915  0.00  0.00    -0.353 N 
ATOM     21  C   LIG A   1      -7.728  -1.884 125.088  0.00  0.00    +0.048 A 
ATOM     22  C   LIG A   1      -8.182  -3.203 125.212  0.00  0.00    +0.026 A 
ATOM     23  C   LIG A   1      -9.018  -3.697 124.207  0.00  0.00    +0.002 A 
ATOM     24  C   LIG A   1      -9.378  -2.905 123.119  0.00  0.00    +0.001 A 
ATOM     25  C   LIG A   1      -8.908  -1.591 123.008  0.00  0.00    +0.010 A 
ATOM     26  C   LIG A   1      -8.066  -1.067 124.011  0.00  0.00    +0.007 A 
ATOM     27  H   LIG A   1      -6.498  -1.499 126.767  0.00  0.00    +0.166 HD
BRANCH  16  28
ATOM     28  C   LIG A   1      -6.483   3.696 123.259  0.00  0.00    +0.355 C 
ATOM     29  OXT LIG A   1      -5.706   4.596 123.503  0.00  0.00    -0.243 OA
BRANCH  28  30
ATOM     30  O   LIG A   1      -7.322   3.757 122.202  0.00  0.00    -0.476 OA
ATOM     31  H   LIG A   1      -6.764   4.035 121.450  0.00  0.00    +0.295 HD
ENDBRANCH  28  30
ENDBRANCH  16  28
ENDBRANCH  13  14
ENDBRANCH   6  13
BRANCH   2  32
ATOM     32  O   LIG A   1      -7.076   3.571 131.441  0.00  0.00    -0.309 OA
BRANCH  32  33
ATOM     33  C   LIG A   1      -8.420   3.493 131.958  0.00  0.00    +0.286 C 
ATOM     34  O   LIG A   1      -9.386   3.443 130.900  0.00  0.00    -0.340 OA
ATOM     35  C   LIG A   1      -9.813   4.676 130.309  0.00  0.00    +0.178 C 
ATOM     36  C   LIG A   1     -10.124   5.793 131.321  0.00  0.00    +0.177 C 
ATOM     37  C   LIG A   1      -9.064   5.927 132.420  0.00  0.00    +0.179 C 
ATOM     38  C   LIG A   1      -8.766   4.556 133.035  0.00  0.00    +0.201 C 
BRANCH  37  39
ATOM     39  O   LIG A   1      -7.885   6.595 131.986  0.00  0.00    -0.386 OA
ATOM     40  H   LIG A   1      -7.141   5.955 131.948  0.00  0.00    +0.210 HD
ENDBRANCH  37  39
BRANCH  36  41
ATOM     41  O   LIG A   1     -11.401   5.507 131.928  0.00  0.00    -0.387 OA
ATOM     42  H   LIG A   1     -11.391   4.557 132.175  0.00  0.00    +0.210 HD
ENDBRANCH  36  41
BRANCH  38  43
ATOM     43  O   LIG A   1      -9.958   4.113 133.738  0.00  0.00    -0.384 OA
ATOM     44  H   LIG A   1     -10.027   3.147 133.613  0.00  0.00    +0.210 HD
ENDBRANCH  38  43
BRANCH  35  45
ATOM     45  C   LIG A   1      -8.900   5.133 129.163  0.00  0.00    +0.190 C 
BRANCH  45  46
ATOM     46  O   LIG A   1      -9.539   6.016 128.255  0.00  0.00    -0.392 OA
ATOM     47  H   LIG A   1      -9.172   5.822 127.372  0.00  0.00    +0.209 HD
ENDBRANCH  45  46
ENDBRANCH  35  45
ENDBRANCH  32  33
ENDBRANCH   2  32
TORSDOF 14
ENDMDL
MODEL 7
REMARK VINA RESULT:      -8.4      3.401      5.386
REMARK  Name = NuBBE_104
REMARK  15 active torsions:
REMARK  status: ('A' for Active; 'I' for Inactive)
REMARK    1  A    between atoms: C_2  and  C_3
REMARK    2  A    between atoms: C_4  and  O_31
REMARK    3  A    between atoms: C_8  and  C_27
REMARK    4  A    between atoms: C_9  and  C_10
REMARK    5  A    between atoms: C_10  and  C_11
REMARK    6  A    between atoms: CA_13  and  C_14
REMARK    7  A    between atoms: C_14  and  O_15
REMARK    8  A    between atoms: C_27  and  O_28
REMARK    9  A    between atoms: O_28  and  C_29
REMARK   10  A    between atoms: O_31  and  C_32
REMARK   11  A    between atoms: C_35  and  C_43
REMARK   12  A    between atoms: C_37  and  O_42
REMARK   13  A    between atoms: C_39  and  O_41
REMARK   14  A    between atoms: C_43  and  O_44
REMARK   15  A    between atoms: C_45  and  O_47
REMARK                            x       y       z     vdW  Elec       q    Type
REMARK                         _______ _______ _______ _____ _____    ______ ____
ROOT
ATOM      1  C   LIG A   1      -7.611   3.015 127.924  0.00  0.00    +0.088 C 
ATOM      2  C   LIG A   1      -7.968   4.127 128.964  0.00  0.00    +0.316 C 
ATOM      3  O   LIG A   1      -7.003   5.182 128.899  0.00  0.00    -0.470 OA
ATOM      4  C   LIG A   1      -5.734   4.742 129.131  0.00  0.00    +0.201 C 
ATOM      5  C   LIG A   1      -5.298   3.486 128.928  0.00  0.00    +0.075 C 
ATOM      6  C   LIG A   1      -6.182   2.423 128.289  0.00  0.00    +0.048 C 
ENDROOT
BRANCH   1   8
ATOM      7  C   LIG A   1      -7.094   4.381 125.816  0.00  0.00    +0.004 C 
ATOM      8  C   LIG A   1      -7.847   3.520 126.511  0.00  0.00    -0.025 C 
ENDBRANCH   1   8
BRANCH   5   9
ATOM      9  C   LIG A   1      -3.953   3.142 129.455  0.00  0.00    +0.338 C 
ATOM     10  O   LIG A   1      -3.747   2.201 130.222  0.00  0.00    -0.245 OA
BRANCH   9  11
ATOM     11  O   LIG A   1      -3.029   4.032 129.024  0.00  0.00    -0.465 OA
ATOM     12  C   LIG A   1      -2.512   3.810 127.718  0.00  0.00    +0.280 C 
ENDBRANCH   9  11
ENDBRANCH   5   9
BRANCH   6  13
ATOM     13  C   LIG A   1      -5.441   1.679 127.144  0.00  0.00    +0.067 C 
BRANCH  13  14
ATOM     14  C   LIG A   1      -5.691   0.196 127.092  0.00  0.00    +0.067 A 
ATOM     15  N   LIG A   1      -5.053  -0.565 128.012  0.00  0.00    -0.243 NA
ATOM     16  CA  LIG A   1      -5.229  -1.908 128.040  0.00  0.00    +0.148 A 
ATOM     17  C   LIG A   1      -6.041  -2.607 127.160  0.00  0.00    +0.045 A 
ATOM     18  C   LIG A   1      -6.723  -1.844 126.199  0.00  0.00    +0.011 A 
ATOM     19  C   LIG A   1      -6.542  -0.459 126.193  0.00  0.00    +0.069 A 
ATOM     20  N   LIG A   1      -7.349   0.045 125.195  0.00  0.00    -0.353 N 
ATOM     21  C   LIG A   1      -8.006  -0.966 124.535  0.00  0.00    +0.048 A 
ATOM     22  C   LIG A   1      -8.904  -0.909 123.460  0.00  0.00    +0.026 A 
ATOM     23  C   LIG A   1      -9.420  -2.116 122.982  0.00  0.00    +0.002 A 
ATOM     24  C   LIG A   1      -9.059  -3.330 123.560  0.00  0.00    +0.001 A 
ATOM     25  C   LIG A   1      -8.168  -3.368 124.639  0.00  0.00    +0.010 A 
ATOM     26  C   LIG A   1      -7.628  -2.165 125.139  0.00  0.00    +0.007 A 
ATOM     27  H   LIG A   1      -7.455   1.027 124.980  0.00  0.00    +0.166 HD
BRANCH  16  28
ATOM     28  C   LIG A   1      -4.493  -2.656 129.099  0.00  0.00    +0.355 C 
ATOM     29  OXT LIG A   1      -4.807  -3.732 129.565  0.00  0.00    -0.243 OA
BRANCH  28  30
ATOM     30  O   LIG A   1      -3.362  -2.024 129.484  0.00  0.00    -0.476 OA
ATOM     31  H   LIG A   1      -3.533  -1.735 130.401  0.00  0.00    +0.295 HD
ENDBRANCH  28  30
ENDBRANCH  16  28
ENDBRANCH  13  14
ENDBRANCH   6  13
BRANCH   2  32
ATOM     32  O   LIG A   1      -9.311   4.651 128.833  0.00  0.00    -0.309 OA
BRANCH  32  33
ATOM     33  C   LIG A   1     -10.095   4.322 129.997  0.00  0.00    +0.286 C 
ATOM     34  O   LIG A   1     -11.449   4.772 129.862  0.00  0.00    -0.340 OA
ATOM     35  C   LIG A   1     -11.750   6.134 130.192  0.00  0.00    +0.178 C 
ATOM     36  C   LIG A   1     -11.106   6.630 131.498  0.00  0.00    +0.177 C 
ATOM     37  C   LIG A   1      -9.631   6.235 131.635  0.00  0.00    +0.179 C 
ATOM     38  C   LIG A   1      -9.458   4.740 131.350  0.00  0.00    +0.201 C 
BRANCH  37  39
ATOM     39  O   LIG A   1      -8.758   7.041 130.852  0.00  0.00    -0.386 OA
ATOM     40  H   LIG A   1      -7.848   6.673 130.893  0.00  0.00    +0.210 HD
ENDBRANCH  37  39
BRANCH  36  41
ATOM     41  O   LIG A   1     -11.848   6.076 132.604  0.00  0.00    -0.387 OA
ATOM     42  H   LIG A   1     -11.944   6.792 133.268  0.00  0.00    +0.210 HD
ENDBRANCH  36  41
BRANCH  38  43
ATOM     43  O   LIG A   1     -10.125   4.003 132.409  0.00  0.00    -0.384 OA
ATOM     44  H   LIG A   1     -10.206   4.602 133.175  0.00  0.00    +0.210 HD
ENDBRANCH  38  43
BRANCH  35  45
ATOM     45  C   LIG A   1     -11.540   7.090 129.010  0.00  0.00    +0.190 C 
BRANCH  45  46
ATOM     46  O   LIG A   1     -11.626   6.449 127.747  0.00  0.00    -0.392 OA
ATOM     47  H   LIG A   1     -11.046   6.947 127.141  0.00  0.00    +0.209 HD
ENDBRANCH  45  46
ENDBRANCH  35  45
ENDBRANCH  32  33
ENDBRANCH   2  32
TORSDOF 14
ENDMDL
MODEL 8
REMARK VINA RESULT:      -8.4      3.370      6.374
REMARK  Name = NuBBE_104
REMARK  15 active torsions:
REMARK  status: ('A' for Active; 'I' for Inactive)
REMARK    1  A    between atoms: C_2  and  C_3
REMARK    2  A    between atoms: C_4  and  O_31
REMARK    3  A    between atoms: C_8  and  C_27
REMARK    4  A    between atoms: C_9  and  C_10
REMARK    5  A    between atoms: C_10  and  C_11
REMARK    6  A    between atoms: CA_13  and  C_14
REMARK    7  A    between atoms: C_14  and  O_15
REMARK    8  A    between atoms: C_27  and  O_28
REMARK    9  A    between atoms: O_28  and  C_29
REMARK   10  A    between atoms: O_31  and  C_32
REMARK   11  A    between atoms: C_35  and  C_43
REMARK   12  A    between atoms: C_37  and  O_42
REMARK   13  A    between atoms: C_39  and  O_41
REMARK   14  A    between atoms: C_43  and  O_44
REMARK   15  A    between atoms: C_45  and  O_47
REMARK                            x       y       z     vdW  Elec       q    Type
REMARK                         _______ _______ _______ _____ _____    ______ ____
ROOT
ATOM      1  C   LIG A   1      -7.746   2.823 127.902  0.00  0.00    +0.088 C 
ATOM      2  C   LIG A   1      -7.794   4.133 128.755  0.00  0.00    +0.316 C 
ATOM      3  O   LIG A   1      -6.709   4.993 128.389  0.00  0.00    -0.470 OA
ATOM      4  C   LIG A   1      -5.495   4.397 128.550  0.00  0.00    +0.201 C 
ATOM      5  C   LIG A   1      -5.271   3.070 128.531  0.00  0.00    +0.075 C 
ATOM      6  C   LIG A   1      -6.376   2.075 128.203  0.00  0.00    +0.048 C 
ENDROOT
BRANCH   1   8
ATOM      7  C   LIG A   1      -8.700   2.308 125.578  0.00  0.00    +0.004 C 
ATOM      8  C   LIG A   1      -8.106   3.124 126.457  0.00  0.00    -0.025 C 
ENDBRANCH   1   8
BRANCH   5   9
ATOM      9  C   LIG A   1      -3.927   2.604 128.955  0.00  0.00    +0.338 C 
ATOM     10  O   LIG A   1      -3.747   1.619 129.673  0.00  0.00    -0.245 OA
BRANCH   9  11
ATOM     11  O   LIG A   1      -2.965   3.436 128.494  0.00  0.00    -0.465 OA
ATOM     12  C   LIG A   1      -2.380   3.084 127.247  0.00  0.00    +0.280 C 
ENDBRANCH   9  11
ENDBRANCH   5   9
BRANCH   6  13
ATOM     13  C   LIG A   1      -5.916   1.044 127.135  0.00  0.00    +0.067 C 
BRANCH  13  14
ATOM     14  C   LIG A   1      -6.455  -0.347 127.329  0.00  0.00    +0.067 A 
ATOM     15  N   LIG A   1      -7.400  -0.765 126.453  0.00  0.00    -0.243 NA
ATOM     16  CA  LIG A   1      -7.931  -2.007 126.552  0.00  0.00    +0.148 A 
ATOM     17  C   LIG A   1      -7.581  -2.932 127.524  0.00  0.00    +0.045 A 
ATOM     18  C   LIG A   1      -6.597  -2.529 128.442  0.00  0.00    +0.011 A 
ATOM     19  C   LIG A   1      -6.048  -1.251 128.318  0.00  0.00    +0.069 A 
ATOM     20  N   LIG A   1      -5.089  -1.131 129.301  0.00  0.00    -0.353 N 
ATOM     21  C   LIG A   1      -5.032  -2.266 130.076  0.00  0.00    +0.048 A 
ATOM     22  C   LIG A   1      -4.221  -2.566 131.178  0.00  0.00    +0.026 A 
ATOM     23  C   LIG A   1      -4.387  -3.814 131.783  0.00  0.00    +0.002 A 
ATOM     24  C   LIG A   1      -5.320  -4.728 131.300  0.00  0.00    +0.001 A 
ATOM     25  C   LIG A   1      -6.116  -4.414 130.191  0.00  0.00    +0.010 A 
ATOM     26  C   LIG A   1      -5.972  -3.159 129.565  0.00  0.00    +0.007 A 
ATOM     27  H   LIG A   1      -4.497  -0.322 129.432  0.00  0.00    +0.166 HD
BRANCH  16  28
ATOM     28  C   LIG A   1      -8.954  -2.378 125.533  0.00  0.00    +0.355 C 
ATOM     29  OXT LIG A   1     -10.025  -2.905 125.754  0.00  0.00    -0.243 OA
BRANCH  28  30
ATOM     30  O   LIG A   1      -8.590  -2.018 124.283  0.00  0.00    -0.476 OA
ATOM     31  H   LIG A   1      -7.826  -1.421 124.404  0.00  0.00    +0.295 HD
ENDBRANCH  28  30
ENDBRANCH  16  28
ENDBRANCH  13  14
ENDBRANCH   6  13
BRANCH   2  32
ATOM     32  O   LIG A   1      -9.056   4.839 128.686  0.00  0.00    -0.309 OA
BRANCH  32  33
ATOM     33  C   LIG A   1      -9.906   4.459 129.787  0.00  0.00    +0.286 C 
ATOM     34  O   LIG A   1     -11.263   4.862 129.564  0.00  0.00    -0.340 OA
ATOM     35  C   LIG A   1     -11.638   6.205 129.893  0.00  0.00    +0.178 C 
ATOM     36  C   LIG A   1     -11.106   6.700 131.250  0.00  0.00    +0.177 C 
ATOM     37  C   LIG A   1      -9.630   6.357 131.484  0.00  0.00    +0.179 C 
ATOM     38  C   LIG A   1      -9.381   4.875 131.187  0.00  0.00    +0.201 C 
BRANCH  37  39
ATOM     39  O   LIG A   1      -8.735   7.209 130.778  0.00  0.00    -0.386 OA
ATOM     40  H   LIG A   1      -8.264   6.691 130.090  0.00  0.00    +0.210 HD
ENDBRANCH  37  39
BRANCH  36  41
ATOM     41  O   LIG A   1     -11.902   6.099 132.292  0.00  0.00    -0.387 OA
ATOM     42  H   LIG A   1     -12.078   6.800 132.955  0.00  0.00    +0.210 HD
ENDBRANCH  36  41
BRANCH  38  43
ATOM     43  O   LIG A   1     -10.093   4.094 132.185  0.00  0.00    -0.384 OA
ATOM     44  H   LIG A   1     -10.894   4.595 132.428  0.00  0.00    +0.210 HD
ENDBRANCH  38  43
BRANCH  35  45
ATOM     45  C   LIG A   1     -11.383   7.192 128.746  0.00  0.00    +0.190 C 
BRANCH  45  46
ATOM     46  O   LIG A   1     -11.308   6.565 127.474  0.00  0.00    -0.392 OA
ATOM     47  H   LIG A   1     -12.178   6.689 127.050  0.00  0.00    +0.209 HD
ENDBRANCH  45  46
ENDBRANCH  35  45
ENDBRANCH  32  33
ENDBRANCH   2  32
TORSDOF 14
ENDMDL
MODEL 9
REMARK VINA RESULT:      -8.3      4.067      6.199
REMARK  Name = NuBBE_104
REMARK  15 active torsions:
REMARK  status: ('A' for Active; 'I' for Inactive)
REMARK    1  A    between atoms: C_2  and  C_3
REMARK    2  A    between atoms: C_4  and  O_31
REMARK    3  A    between atoms: C_8  and  C_27
REMARK    4  A    between atoms: C_9  and  C_10
REMARK    5  A    between atoms: C_10  and  C_11
REMARK    6  A    between atoms: CA_13  and  C_14
REMARK    7  A    between atoms: C_14  and  O_15
REMARK    8  A    between atoms: C_27  and  O_28
REMARK    9  A    between atoms: O_28  and  C_29
REMARK   10  A    between atoms: O_31  and  C_32
REMARK   11  A    between atoms: C_35  and  C_43
REMARK   12  A    between atoms: C_37  and  O_42
REMARK   13  A    between atoms: C_39  and  O_41
REMARK   14  A    between atoms: C_43  and  O_44
REMARK   15  A    between atoms: C_45  and  O_47
REMARK                            x       y       z     vdW  Elec       q    Type
REMARK                         _______ _______ _______ _____ _____    ______ ____
ROOT
ATOM      1  C   LIG A   1      -8.413   2.638 129.218  0.00  0.00    +0.088 C 
ATOM      2  C   LIG A   1      -9.254   3.645 130.069  0.00  0.00    +0.316 C 
ATOM      3  O   LIG A   1      -8.406   4.323 131.001  0.00  0.00    -0.470 OA
ATOM      4  C   LIG A   1      -7.757   3.463 131.836  0.00  0.00    +0.201 C 
ATOM      5  C   LIG A   1      -7.477   2.176 131.562  0.00  0.00    +0.075 C 
ATOM      6  C   LIG A   1      -7.769   1.565 130.197  0.00  0.00    +0.048 C 
ENDROOT
BRANCH   1   8
ATOM      7  C   LIG A   1      -7.550   3.407 126.928  0.00  0.00    +0.004 C 
ATOM      8  C   LIG A   1      -7.499   3.391 128.266  0.00  0.00    -0.025 C 
ENDBRANCH   1   8
BRANCH   5   9
ATOM      9  C   LIG A   1      -6.976   1.338 132.680  0.00  0.00    +0.338 C 
ATOM     10  O   LIG A   1      -7.591   0.372 133.131  0.00  0.00    -0.245 OA
BRANCH   9  11
ATOM     11  O   LIG A   1      -5.803   1.823 133.151  0.00  0.00    -0.465 OA
ATOM     12  C   LIG A   1      -4.644   1.060 132.842  0.00  0.00    +0.280 C 
ENDBRANCH   9  11
ENDBRANCH   5   9
BRANCH   6  13
ATOM     13  C   LIG A   1      -6.540   0.791 129.645  0.00  0.00    +0.067 C 
BRANCH  13  14
ATOM     14  C   LIG A   1      -6.805  -0.649 129.300  0.00  0.00    +0.067 A 
ATOM     15  N   LIG A   1      -6.511  -1.569 130.249  0.00  0.00    -0.243 NA
ATOM     16  CA  LIG A   1      -6.728  -2.887 130.023  0.00  0.00    +0.148 A 
ATOM     17  C   LIG A   1      -7.243  -3.403 128.843  0.00  0.00    +0.045 A 
ATOM     18  C   LIG A   1      -7.565  -2.471 127.843  0.00  0.00    +0.011 A 
ATOM     19  C   LIG A   1      -7.350  -1.115 128.097  0.00  0.00    +0.069 A 
ATOM     20  N   LIG A   1      -7.787  -0.426 126.986  0.00  0.00    -0.353 N 
ATOM     21  C   LIG A   1      -8.234  -1.290 126.014  0.00  0.00    +0.048 A 
ATOM     22  C   LIG A   1      -8.745  -1.025 124.737  0.00  0.00    +0.026 A 
ATOM     23  C   LIG A   1      -9.122  -2.117 123.951  0.00  0.00    +0.002 A 
ATOM     24  C   LIG A   1      -8.997  -3.420 124.425  0.00  0.00    +0.001 A 
ATOM     25  C   LIG A   1      -8.492  -3.666 125.708  0.00  0.00    +0.010 A 
ATOM     26  C   LIG A   1      -8.101  -2.581 126.521  0.00  0.00    +0.007 A 
ATOM     27  H   LIG A   1      -7.790   0.581 126.897  0.00  0.00    +0.166 HD
BRANCH  16  28
ATOM     28  C   LIG A   1      -6.385  -3.821 131.133  0.00  0.00    +0.355 C 
ATOM     29  OXT LIG A   1      -6.676  -3.679 132.303  0.00  0.00    -0.243 OA
BRANCH  28  30
ATOM     30  O   LIG A   1      -5.728  -4.919 130.698  0.00  0.00    -0.476 OA
ATOM     31  H   LIG A   1      -6.160  -5.155 129.855  0.00  0.00    +0.295 HD
ENDBRANCH  28  30
ENDBRANCH  16  28
ENDBRANCH  13  14
ENDBRANCH   6  13
BRANCH   2  32
ATOM     32  O   LIG A   1     -10.015   4.593 129.283  0.00  0.00    -0.309 OA
BRANCH  32  33
ATOM     33  C   LIG A   1     -11.143   5.080 130.037  0.00  0.00    +0.286 C 
ATOM     34  O   LIG A   1     -12.183   5.559 129.174  0.00  0.00    -0.340 OA
ATOM     35  C   LIG A   1     -12.090   6.898 128.674  0.00  0.00    +0.178 C 
ATOM     36  C   LIG A   1     -11.690   7.945 129.729  0.00  0.00    +0.177 C 
ATOM     37  C   LIG A   1     -10.523   7.496 130.616  0.00  0.00    +0.179 C 
ATOM     38  C   LIG A   1     -10.788   6.089 131.162  0.00  0.00    +0.201 C 
BRANCH  37  39
ATOM     39  O   LIG A   1      -9.257   7.600 129.976  0.00  0.00    -0.386 OA
ATOM     40  H   LIG A   1      -9.196   6.929 129.261  0.00  0.00    +0.210 HD
ENDBRANCH  37  39
BRANCH  36  41
ATOM     41  O   LIG A   1     -12.840   8.210 130.559  0.00  0.00    -0.387 OA
ATOM     42  H   LIG A   1     -13.239   9.045 130.232  0.00  0.00    +0.210 HD
ENDBRANCH  36  41
BRANCH  38  43
ATOM     43  O   LIG A   1     -11.919   6.167 132.070  0.00  0.00    -0.384 OA
ATOM     44  H   LIG A   1     -12.023   5.288 132.482  0.00  0.00    +0.210 HD
ENDBRANCH  38  43
BRANCH  35  45
ATOM     45  C   LIG A   1     -11.268   6.995 127.382  0.00  0.00    +0.190 C 
BRANCH  45  46
ATOM     46  O   LIG A   1      -9.914   6.603 127.548  0.00  0.00    -0.392 OA
ATOM     47  H   LIG A   1      -9.818   5.737 127.109  0.00  0.00    +0.209 HD
ENDBRANCH  45  46
ENDBRANCH  35  45
ENDBRANCH  32  33
ENDBRANCH   2  32
TORSDOF 14
ENDMDL
