MODEL 1
REMARK VINA RESULT:      -7.0      0.000      0.000
REMARK  Name = NuBBE_1
REMARK  12 active torsions:
REMARK  status: ('A' for Active; 'I' for Inactive)
REMARK    1  A    between atoms: C_2  and  O_3
REMARK    2  A    between atoms: C_2  and  C_14
REMARK    3  A    between atoms: O_3  and  C_4
REMARK    4  A    between atoms: C_4  and  C_5
REMARK    5  A    between atoms: C_6  and  C_7
REMARK    6  A    between atoms: C_6  and  C_8
REMARK    7  A    between atoms: C_8  and  C_9
REMARK    8  A    between atoms: C_9  and  C_10
REMARK    9  A    between atoms: C_11  and  C_12
REMARK   10  A    between atoms: C_11  and  C_13
REMARK   11  A    between atoms: C_16  and  O_17
REMARK   12  A    between atoms: C_18  and  O_19
REMARK                            x       y       z     vdW  Elec       q    Type
REMARK                         _______ _______ _______ _____ _____    ______ ____
ROOT
ATOM      1  O   LIG A   1      -6.377   2.942 124.462  0.00  0.00    -0.245 OA
ATOM      2  C   LIG A   1      -6.721   2.669 123.293  0.00  0.00    +0.340 C 
ENDROOT
BRANCH   2   3
ATOM      3  C   LIG A   1      -6.323   3.481 122.138  0.00  0.00    +0.063 A 
ATOM      4  C   LIG A   1      -5.257   4.392 122.246  0.00  0.00    +0.064 A 
ATOM      5  C   LIG A   1      -4.911   5.155 121.145  0.00  0.00    +0.159 A 
ATOM      6  C   LIG A   1      -5.609   5.025 119.946  0.00  0.00    +0.158 A 
ATOM      7  C   LIG A   1      -6.661   4.127 119.824  0.00  0.00    +0.050 A 
ATOM      8  C   LIG A   1      -7.024   3.353 120.927  0.00  0.00    +0.019 A 
BRANCH   5   9
ATOM      9  O   LIG A   1      -3.883   6.055 121.195  0.00  0.00    -0.503 OA
ATOM     10  H   LIG A   1      -4.130   6.761 121.817  0.00  0.00    +0.292 HD
ENDBRANCH   5   9
BRANCH   6  11
ATOM     11  O   LIG A   1      -5.261   5.796 118.875  0.00  0.00    -0.503 OA
ATOM     12  H   LIG A   1      -4.314   5.996 119.014  0.00  0.00    +0.292 HD
ENDBRANCH   6  11
ENDBRANCH   2   3
BRANCH   2  13
ATOM     13  O   LIG A   1      -7.507   1.645 122.912  0.00  0.00    -0.457 OA
BRANCH  13  14
ATOM     14  C   LIG A   1      -8.692   1.428 123.679  0.00  0.00    +0.260 C 
BRANCH  14  15
ATOM     15  C   LIG A   1      -8.967  -0.044 123.833  0.00  0.00    +0.012 C 
ATOM     16  C   LIG A   1      -8.907  -0.741 124.978  0.00  0.00    -0.073 C 
ATOM     17  C   LIG A   1      -8.581  -0.021 126.221  0.00  0.00    +0.038 C 
BRANCH  16  18
ATOM     18  C   LIG A   1      -9.290  -2.212 125.095  0.00  0.00    +0.034 C 
BRANCH  18  19
ATOM     19  C   LIG A   1      -8.212  -3.276 125.483  0.00  0.00    +0.031 C 
BRANCH  19  20
ATOM     20  C   LIG A   1      -7.070  -3.496 124.506  0.00  0.00    -0.028 C 
ATOM     21  C   LIG A   1      -5.891  -2.832 124.412  0.00  0.00    -0.080 C 
ATOM     22  C   LIG A   1      -5.420  -1.687 125.278  0.00  0.00    +0.038 C 
ATOM     23  C   LIG A   1      -4.959  -3.069 123.257  0.00  0.00    +0.038 C 
ENDBRANCH  19  20
ENDBRANCH  18  19
ENDBRANCH  16  18
ENDBRANCH  14  15
ENDBRANCH  13  14
ENDBRANCH   2  13
TORSDOF 9
ENDMDL
MODEL 2
REMARK VINA RESULT:      -6.9      1.852      3.054
REMARK  Name = NuBBE_1
REMARK  12 active torsions:
REMARK  status: ('A' for Active; 'I' for Inactive)
REMARK    1  A    between atoms: C_2  and  O_3
REMARK    2  A    between atoms: C_2  and  C_14
REMARK    3  A    between atoms: O_3  and  C_4
REMARK    4  A    between atoms: C_4  and  C_5
REMARK    5  A    between atoms: C_6  and  C_7
REMARK    6  A    between atoms: C_6  and  C_8
REMARK    7  A    between atoms: C_8  and  C_9
REMARK    8  A    between atoms: C_9  and  C_10
REMARK    9  A    between atoms: C_11  and  C_12
REMARK   10  A    between atoms: C_11  and  C_13
REMARK   11  A    between atoms: C_16  and  O_17
REMARK   12  A    between atoms: C_18  and  O_19
REMARK                            x       y       z     vdW  Elec       q    Type
REMARK                         _______ _______ _______ _____ _____    ______ ____
ROOT
ATOM      1  O   LIG A   1      -5.905   3.502 124.494  0.00  0.00    -0.245 OA
ATOM      2  C   LIG A   1      -6.621   2.901 123.665  0.00  0.00    +0.340 C 
ENDROOT
BRANCH   2   3
ATOM      3  C   LIG A   1      -6.814   3.376 122.292  0.00  0.00    +0.063 A 
ATOM      4  C   LIG A   1      -8.102   3.407 121.728  0.00  0.00    +0.064 A 
ATOM      5  C   LIG A   1      -8.255   3.847 120.425  0.00  0.00    +0.159 A 
ATOM      6  C   LIG A   1      -7.149   4.252 119.680  0.00  0.00    +0.158 A 
ATOM      7  C   LIG A   1      -5.872   4.230 120.225  0.00  0.00    +0.050 A 
ATOM      8  C   LIG A   1      -5.702   3.785 121.537  0.00  0.00    +0.019 A 
BRANCH   5   9
ATOM      9  O   LIG A   1      -9.484   3.898 119.829  0.00  0.00    -0.503 OA
ATOM     10  H   LIG A   1      -9.715   4.834 119.693  0.00  0.00    +0.292 HD
ENDBRANCH   5   9
BRANCH   6  11
ATOM     11  O   LIG A   1      -7.319   4.670 118.392  0.00  0.00    -0.503 OA
ATOM     12  H   LIG A   1      -6.939   3.952 117.848  0.00  0.00    +0.292 HD
ENDBRANCH   6  11
ENDBRANCH   2   3
BRANCH   2  13
ATOM     13  O   LIG A   1      -7.332   1.780 123.891  0.00  0.00    -0.457 OA
BRANCH  13  14
ATOM     14  C   LIG A   1      -6.803   0.568 123.353  0.00  0.00    +0.260 C 
BRANCH  14  15
ATOM     15  C   LIG A   1      -7.784  -0.562 123.515  0.00  0.00    +0.012 C 
ATOM     16  C   LIG A   1      -7.523  -1.864 123.324  0.00  0.00    -0.073 C 
ATOM     17  C   LIG A   1      -6.153  -2.259 122.957  0.00  0.00    +0.038 C 
BRANCH  16  18
ATOM     18  C   LIG A   1      -8.528  -2.979 123.595  0.00  0.00    +0.034 C 
BRANCH  18  19
ATOM     19  C   LIG A   1      -8.522  -3.724 124.970  0.00  0.00    +0.031 C 
BRANCH  19  20
ATOM     20  C   LIG A   1      -7.979  -2.966 126.169  0.00  0.00    -0.028 C 
ATOM     21  C   LIG A   1      -8.269  -3.131 127.483  0.00  0.00    -0.080 C 
ATOM     22  C   LIG A   1      -9.228  -4.133 128.084  0.00  0.00    +0.038 C 
ATOM     23  C   LIG A   1      -7.770  -2.159 128.514  0.00  0.00    +0.038 C 
ENDBRANCH  19  20
ENDBRANCH  18  19
ENDBRANCH  16  18
ENDBRANCH  14  15
ENDBRANCH  13  14
ENDBRANCH   2  13
TORSDOF 9
ENDMDL
MODEL 3
REMARK VINA RESULT:      -6.8      1.704      2.863
REMARK  Name = NuBBE_1
REMARK  12 active torsions:
REMARK  status: ('A' for Active; 'I' for Inactive)
REMARK    1  A    between atoms: C_2  and  O_3
REMARK    2  A    between atoms: C_2  and  C_14
REMARK    3  A    between atoms: O_3  and  C_4
REMARK    4  A    between atoms: C_4  and  C_5
REMARK    5  A    between atoms: C_6  and  C_7
REMARK    6  A    between atoms: C_6  and  C_8
REMARK    7  A    between atoms: C_8  and  C_9
REMARK    8  A    between atoms: C_9  and  C_10
REMARK    9  A    between atoms: C_11  and  C_12
REMARK   10  A    between atoms: C_11  and  C_13
REMARK   11  A    between atoms: C_16  and  O_17
REMARK   12  A    between atoms: C_18  and  O_19
REMARK                            x       y       z     vdW  Elec       q    Type
REMARK                         _______ _______ _______ _____ _____    ______ ____
ROOT
ATOM      1  O   LIG A   1      -9.210   2.707 124.913  0.00  0.00    -0.245 OA
ATOM      2  C   LIG A   1      -9.124   2.323 123.728  0.00  0.00    +0.340 C 
ENDROOT
BRANCH   2   3
ATOM      3  C   LIG A   1      -8.192   2.919 122.765  0.00  0.00    +0.063 A 
ATOM      4  C   LIG A   1      -8.647   3.326 121.499  0.00  0.00    +0.064 A 
ATOM      5  C   LIG A   1      -7.744   3.874 120.605  0.00  0.00    +0.159 A 
ATOM      6  C   LIG A   1      -6.402   4.018 120.952  0.00  0.00    +0.158 A 
ATOM      7  C   LIG A   1      -5.940   3.623 122.200  0.00  0.00    +0.050 A 
ATOM      8  C   LIG A   1      -6.839   3.065 123.112  0.00  0.00    +0.019 A 
BRANCH   5   9
ATOM      9  O   LIG A   1      -8.133   4.287 119.361  0.00  0.00    -0.503 OA
ATOM     10  H   LIG A   1      -8.001   3.548 118.742  0.00  0.00    +0.292 HD
ENDBRANCH   5   9
BRANCH   6  11
ATOM     11  O   LIG A   1      -5.525   4.548 120.052  0.00  0.00    -0.503 OA
ATOM     12  H   LIG A   1      -5.967   5.356 119.724  0.00  0.00    +0.292 HD
ENDBRANCH   6  11
ENDBRANCH   2   3
BRANCH   2  13
ATOM     13  O   LIG A   1      -9.862   1.357 123.147  0.00  0.00    -0.457 OA
BRANCH  13  14
ATOM     14  C   LIG A   1      -9.583   0.014 123.543  0.00  0.00    +0.260 C 
BRANCH  14  15
ATOM     15  C   LIG A   1      -8.164  -0.359 123.204  0.00  0.00    +0.012 C 
ATOM     16  C   LIG A   1      -7.706  -1.603 122.998  0.00  0.00    -0.073 C 
ATOM     17  C   LIG A   1      -8.660  -2.723 123.066  0.00  0.00    +0.038 C 
BRANCH  16  18
ATOM     18  C   LIG A   1      -6.279  -1.919 122.562  0.00  0.00    +0.034 C 
BRANCH  18  19
ATOM     19  C   LIG A   1      -5.295  -2.628 123.549  0.00  0.00    +0.031 C 
BRANCH  19  20
ATOM     20  C   LIG A   1      -5.711  -2.708 125.007  0.00  0.00    -0.028 C 
ATOM     21  C   LIG A   1      -5.714  -1.730 125.946  0.00  0.00    -0.080 C 
ATOM     22  C   LIG A   1      -5.293  -0.290 125.761  0.00  0.00    +0.038 C 
ATOM     23  C   LIG A   1      -5.985  -2.044 127.391  0.00  0.00    +0.038 C 
ENDBRANCH  19  20
ENDBRANCH  18  19
ENDBRANCH  16  18
ENDBRANCH  14  15
ENDBRANCH  13  14
ENDBRANCH   2  13
TORSDOF 9
ENDMDL
MODEL 4
REMARK VINA RESULT:      -6.7      1.585      2.822
REMARK  Name = NuBBE_1
REMARK  12 active torsions:
REMARK  status: ('A' for Active; 'I' for Inactive)
REMARK    1  A    between atoms: C_2  and  O_3
REMARK    2  A    between atoms: C_2  and  C_14
REMARK    3  A    between atoms: O_3  and  C_4
REMARK    4  A    between atoms: C_4  and  C_5
REMARK    5  A    between atoms: C_6  and  C_7
REMARK    6  A    between atoms: C_6  and  C_8
REMARK    7  A    between atoms: C_8  and  C_9
REMARK    8  A    between atoms: C_9  and  C_10
REMARK    9  A    between atoms: C_11  and  C_12
REMARK   10  A    between atoms: C_11  and  C_13
REMARK   11  A    between atoms: C_16  and  O_17
REMARK   12  A    between atoms: C_18  and  O_19
REMARK                            x       y       z     vdW  Elec       q    Type
REMARK                         _______ _______ _______ _____ _____    ______ ____
ROOT
ATOM      1  O   LIG A   1      -9.764   1.683 122.885  0.00  0.00    -0.245 OA
ATOM      2  C   LIG A   1      -8.826   2.442 123.208  0.00  0.00    +0.340 C 
ENDROOT
BRANCH   2   3
ATOM      3  C   LIG A   1      -7.963   3.102 122.224  0.00  0.00    +0.063 A 
ATOM      4  C   LIG A   1      -8.487   3.511 120.985  0.00  0.00    +0.064 A 
ATOM      5  C   LIG A   1      -7.648   4.120 120.068  0.00  0.00    +0.159 A 
ATOM      6  C   LIG A   1      -6.303   4.325 120.367  0.00  0.00    +0.158 A 
ATOM      7  C   LIG A   1      -5.773   3.930 121.588  0.00  0.00    +0.050 A 
ATOM      8  C   LIG A   1      -6.606   3.310 122.521  0.00  0.00    +0.019 A 
BRANCH   5   9
ATOM      9  O   LIG A   1      -8.106   4.538 118.849  0.00  0.00    -0.503 OA
ATOM     10  H   LIG A   1      -7.517   4.174 118.165  0.00  0.00    +0.292 HD
ENDBRANCH   5   9
BRANCH   6  11
ATOM     11  O   LIG A   1      -5.489   4.916 119.445  0.00  0.00    -0.503 OA
ATOM     12  H   LIG A   1      -5.126   5.699 119.903  0.00  0.00    +0.292 HD
ENDBRANCH   6  11
ENDBRANCH   2   3
BRANCH   2  13
ATOM     13  O   LIG A   1      -8.443   2.746 124.463  0.00  0.00    -0.457 OA
BRANCH  13  14
ATOM     14  C   LIG A   1      -8.371   1.662 125.390  0.00  0.00    +0.260 C 
BRANCH  14  15
ATOM     15  C   LIG A   1      -7.168   0.799 125.111  0.00  0.00    +0.012 C 
ATOM     16  C   LIG A   1      -6.799  -0.285 125.809  0.00  0.00    -0.073 C 
ATOM     17  C   LIG A   1      -7.646  -0.718 126.933  0.00  0.00    +0.038 C 
BRANCH  16  18
ATOM     18  C   LIG A   1      -5.625  -1.180 125.426  0.00  0.00    +0.034 C 
BRANCH  18  19
ATOM     19  C   LIG A   1      -5.800  -2.275 124.322  0.00  0.00    +0.031 C 
BRANCH  19  20
ATOM     20  C   LIG A   1      -7.122  -3.019 124.285  0.00  0.00    -0.028 C 
ATOM     21  C   LIG A   1      -8.226  -2.758 123.541  0.00  0.00    -0.080 C 
ATOM     22  C   LIG A   1      -8.407  -1.635 122.547  0.00  0.00    +0.038 C 
ATOM     23  C   LIG A   1      -9.512  -3.498 123.778  0.00  0.00    +0.038 C 
ENDBRANCH  19  20
ENDBRANCH  18  19
ENDBRANCH  16  18
ENDBRANCH  14  15
ENDBRANCH  13  14
ENDBRANCH   2  13
TORSDOF 9
ENDMDL
MODEL 5
REMARK VINA RESULT:      -6.7      1.480      2.076
REMARK  Name = NuBBE_1
REMARK  12 active torsions:
REMARK  status: ('A' for Active; 'I' for Inactive)
REMARK    1  A    between atoms: C_2  and  O_3
REMARK    2  A    between atoms: C_2  and  C_14
REMARK    3  A    between atoms: O_3  and  C_4
REMARK    4  A    between atoms: C_4  and  C_5
REMARK    5  A    between atoms: C_6  and  C_7
REMARK    6  A    between atoms: C_6  and  C_8
REMARK    7  A    between atoms: C_8  and  C_9
REMARK    8  A    between atoms: C_9  and  C_10
REMARK    9  A    between atoms: C_11  and  C_12
REMARK   10  A    between atoms: C_11  and  C_13
REMARK   11  A    between atoms: C_16  and  O_17
REMARK   12  A    between atoms: C_18  and  O_19
REMARK                            x       y       z     vdW  Elec       q    Type
REMARK                         _______ _______ _______ _____ _____    ______ ____
ROOT
ATOM      1  O   LIG A   1      -6.047   3.923 125.181  0.00  0.00    -0.245 OA
ATOM      2  C   LIG A   1      -6.089   3.214 124.153  0.00  0.00    +0.340 C 
ENDROOT
BRANCH   2   3
ATOM      3  C   LIG A   1      -5.871   3.753 122.807  0.00  0.00    +0.063 A 
ATOM      4  C   LIG A   1      -4.930   4.776 122.597  0.00  0.00    +0.064 A 
ATOM      5  C   LIG A   1      -4.753   5.275 121.319  0.00  0.00    +0.159 A 
ATOM      6  C   LIG A   1      -5.498   4.774 120.253  0.00  0.00    +0.158 A 
ATOM      7  C   LIG A   1      -6.429   3.761 120.446  0.00  0.00    +0.050 A 
ATOM      8  C   LIG A   1      -6.621   3.249 121.731  0.00  0.00    +0.019 A 
BRANCH   5   9
ATOM      9  O   LIG A   1      -3.851   6.270 121.059  0.00  0.00    -0.503 OA
ATOM     10  H   LIG A   1      -2.968   5.949 121.312  0.00  0.00    +0.292 HD
ENDBRANCH   5   9
BRANCH   6  11
ATOM     11  O   LIG A   1      -5.319   5.288 119.003  0.00  0.00    -0.503 OA
ATOM     12  H   LIG A   1      -6.155   5.755 118.807  0.00  0.00    +0.292 HD
ENDBRANCH   6  11
ENDBRANCH   2   3
BRANCH   2  13
ATOM     13  O   LIG A   1      -6.361   1.896 124.105  0.00  0.00    -0.457 OA
BRANCH  13  14
ATOM     14  C   LIG A   1      -7.711   1.512 124.366  0.00  0.00    +0.260 C 
BRANCH  14  15
ATOM     15  C   LIG A   1      -7.981   0.124 123.848  0.00  0.00    +0.012 C 
ATOM     16  C   LIG A   1      -9.101  -0.280 123.230  0.00  0.00    -0.073 C 
ATOM     17  C   LIG A   1     -10.166   0.708 122.988  0.00  0.00    +0.038 C 
BRANCH  16  18
ATOM     18  C   LIG A   1      -9.286  -1.674 122.638  0.00  0.00    +0.034 C 
BRANCH  18  19
ATOM     19  C   LIG A   1      -8.670  -2.920 123.355  0.00  0.00    +0.031 C 
BRANCH  19  20
ATOM     20  C   LIG A   1      -9.162  -3.226 124.759  0.00  0.00    -0.028 C 
ATOM     21  C   LIG A   1      -8.511  -3.079 125.939  0.00  0.00    -0.080 C 
ATOM     22  C   LIG A   1      -7.106  -2.563 126.146  0.00  0.00    +0.038 C 
ATOM     23  C   LIG A   1      -9.095  -3.613 127.217  0.00  0.00    +0.038 C 
ENDBRANCH  19  20
ENDBRANCH  18  19
ENDBRANCH  16  18
ENDBRANCH  14  15
ENDBRANCH  13  14
ENDBRANCH   2  13
TORSDOF 9
ENDMDL
MODEL 6
REMARK VINA RESULT:      -6.7      1.525      2.002
REMARK  Name = NuBBE_1
REMARK  12 active torsions:
REMARK  status: ('A' for Active; 'I' for Inactive)
REMARK    1  A    between atoms: C_2  and  O_3
REMARK    2  A    between atoms: C_2  and  C_14
REMARK    3  A    between atoms: O_3  and  C_4
REMARK    4  A    between atoms: C_4  and  C_5
REMARK    5  A    between atoms: C_6  and  C_7
REMARK    6  A    between atoms: C_6  and  C_8
REMARK    7  A    between atoms: C_8  and  C_9
REMARK    8  A    between atoms: C_9  and  C_10
REMARK    9  A    between atoms: C_11  and  C_12
REMARK   10  A    between atoms: C_11  and  C_13
REMARK   11  A    between atoms: C_16  and  O_17
REMARK   12  A    between atoms: C_18  and  O_19
REMARK                            x       y       z     vdW  Elec       q    Type
REMARK                         _______ _______ _______ _____ _____    ______ ____
ROOT
ATOM      1  O   LIG A   1      -9.074   2.790 125.301  0.00  0.00    -0.245 OA
ATOM      2  C   LIG A   1      -7.986   2.552 124.737  0.00  0.00    +0.340 C 
ENDROOT
BRANCH   2   3
ATOM      3  C   LIG A   1      -7.694   2.973 123.363  0.00  0.00    +0.063 A 
ATOM      4  C   LIG A   1      -6.385   3.332 122.996  0.00  0.00    +0.064 A 
ATOM      5  C   LIG A   1      -6.139   3.739 121.697  0.00  0.00    +0.159 A 
ATOM      6  C   LIG A   1      -7.173   3.795 120.764  0.00  0.00    +0.158 A 
ATOM      7  C   LIG A   1      -8.470   3.439 121.112  0.00  0.00    +0.050 A 
ATOM      8  C   LIG A   1      -8.734   3.031 122.421  0.00  0.00    +0.019 A 
BRANCH   5   9
ATOM      9  O   LIG A   1      -4.885   4.098 121.286  0.00  0.00    -0.503 OA
ATOM     10  H   LIG A   1      -4.258   3.425 121.606  0.00  0.00    +0.292 HD
ENDBRANCH   5   9
BRANCH   6  11
ATOM     11  O   LIG A   1      -6.913   4.211 119.491  0.00  0.00    -0.503 OA
ATOM     12  H   LIG A   1      -7.587   4.896 119.313  0.00  0.00    +0.292 HD
ENDBRANCH   6  11
ENDBRANCH   2   3
BRANCH   2  13
ATOM     13  O   LIG A   1      -6.950   1.869 125.260  0.00  0.00    -0.457 OA
BRANCH  13  14
ATOM     14  C   LIG A   1      -7.271   0.834 126.191  0.00  0.00    +0.260 C 
BRANCH  14  15
ATOM     15  C   LIG A   1      -8.032  -0.276 125.515  0.00  0.00    +0.012 C 
ATOM     16  C   LIG A   1      -8.300  -1.480 126.042  0.00  0.00    -0.073 C 
ATOM     17  C   LIG A   1      -7.856  -1.759 127.418  0.00  0.00    +0.038 C 
BRANCH  16  18
ATOM     18  C   LIG A   1      -9.158  -2.535 125.351  0.00  0.00    +0.034 C 
BRANCH  18  19
ATOM     19  C   LIG A   1      -8.519  -3.503 124.302  0.00  0.00    +0.031 C 
BRANCH  19  20
ATOM     20  C   LIG A   1      -7.009  -3.657 124.328  0.00  0.00    -0.028 C 
ATOM     21  C   LIG A   1      -6.073  -2.988 123.611  0.00  0.00    -0.080 C 
ATOM     22  C   LIG A   1      -6.315  -1.903 122.587  0.00  0.00    +0.038 C 
ATOM     23  C   LIG A   1      -4.630  -3.409 123.636  0.00  0.00    +0.038 C 
ENDBRANCH  19  20
ENDBRANCH  18  19
ENDBRANCH  16  18
ENDBRANCH  14  15
ENDBRANCH  13  14
ENDBRANCH   2  13
TORSDOF 9
ENDMDL
MODEL 7
REMARK VINA RESULT:      -6.6      3.657      5.622
REMARK  Name = NuBBE_1
REMARK  12 active torsions:
REMARK  status: ('A' for Active; 'I' for Inactive)
REMARK    1  A    between atoms: C_2  and  O_3
REMARK    2  A    between atoms: C_2  and  C_14
REMARK    3  A    between atoms: O_3  and  C_4
REMARK    4  A    between atoms: C_4  and  C_5
REMARK    5  A    between atoms: C_6  and  C_7
REMARK    6  A    between atoms: C_6  and  C_8
REMARK    7  A    between atoms: C_8  and  C_9
REMARK    8  A    between atoms: C_9  and  C_10
REMARK    9  A    between atoms: C_11  and  C_12
REMARK   10  A    between atoms: C_11  and  C_13
REMARK   11  A    between atoms: C_16  and  O_17
REMARK   12  A    between atoms: C_18  and  O_19
REMARK                            x       y       z     vdW  Elec       q    Type
REMARK                         _______ _______ _______ _____ _____    ______ ____
ROOT
ATOM      1  O   LIG A   1      -6.437  -1.852 122.285  0.00  0.00    -0.245 OA
ATOM      2  C   LIG A   1      -7.486  -1.722 122.950  0.00  0.00    +0.340 C 
ENDROOT
BRANCH   2   3
ATOM      3  C   LIG A   1      -7.957  -0.425 123.446  0.00  0.00    +0.063 A 
ATOM      4  C   LIG A   1      -9.333  -0.142 123.494  0.00  0.00    +0.064 A 
ATOM      5  C   LIG A   1      -9.750   1.095 123.954  0.00  0.00    +0.159 A 
ATOM      6  C   LIG A   1      -8.820   2.048 124.363  0.00  0.00    +0.158 A 
ATOM      7  C   LIG A   1      -7.458   1.781 124.324  0.00  0.00    +0.050 A 
ATOM      8  C   LIG A   1      -7.022   0.539 123.859  0.00  0.00    +0.019 A 
BRANCH   5   9
ATOM      9  O   LIG A   1     -11.076   1.421 124.022  0.00  0.00    -0.503 OA
ATOM     10  H   LIG A   1     -11.497   1.151 123.187  0.00  0.00    +0.292 HD
ENDBRANCH   5   9
BRANCH   6  11
ATOM     11  O   LIG A   1      -9.250   3.267 124.801  0.00  0.00    -0.503 OA
ATOM     12  H   LIG A   1      -8.506   3.614 125.332  0.00  0.00    +0.292 HD
ENDBRANCH   6  11
ENDBRANCH   2   3
BRANCH   2  13
ATOM     13  O   LIG A   1      -8.313  -2.712 123.335  0.00  0.00    -0.457 OA
BRANCH  13  14
ATOM     14  C   LIG A   1      -7.826  -3.595 124.346  0.00  0.00    +0.260 C 
BRANCH  14  15
ATOM     15  C   LIG A   1      -8.196  -3.094 125.717  0.00  0.00    +0.012 C 
ATOM     16  C   LIG A   1      -7.370  -2.489 126.583  0.00  0.00    -0.073 C 
ATOM     17  C   LIG A   1      -5.978  -2.244 126.171  0.00  0.00    +0.038 C 
BRANCH  16  18
ATOM     18  C   LIG A   1      -7.819  -1.914 127.922  0.00  0.00    +0.034 C 
BRANCH  18  19
ATOM     19  C   LIG A   1      -8.152  -2.869 129.115  0.00  0.00    +0.031 C 
BRANCH  19  20
ATOM     20  C   LIG A   1      -7.024  -3.735 129.647  0.00  0.00    -0.028 C 
ATOM     21  C   LIG A   1      -6.532  -3.812 130.908  0.00  0.00    -0.080 C 
ATOM     22  C   LIG A   1      -7.001  -3.034 132.116  0.00  0.00    +0.038 C 
ATOM     23  C   LIG A   1      -5.284  -4.594 131.206  0.00  0.00    +0.038 C 
ENDBRANCH  19  20
ENDBRANCH  18  19
ENDBRANCH  16  18
ENDBRANCH  14  15
ENDBRANCH  13  14
ENDBRANCH   2  13
TORSDOF 9
ENDMDL
MODEL 8
REMARK VINA RESULT:      -6.5      2.692      4.198
REMARK  Name = NuBBE_1
REMARK  12 active torsions:
REMARK  status: ('A' for Active; 'I' for Inactive)
REMARK    1  A    between atoms: C_2  and  O_3
REMARK    2  A    between atoms: C_2  and  C_14
REMARK    3  A    between atoms: O_3  and  C_4
REMARK    4  A    between atoms: C_4  and  C_5
REMARK    5  A    between atoms: C_6  and  C_7
REMARK    6  A    between atoms: C_6  and  C_8
REMARK    7  A    between atoms: C_8  and  C_9
REMARK    8  A    between atoms: C_9  and  C_10
REMARK    9  A    between atoms: C_11  and  C_12
REMARK   10  A    between atoms: C_11  and  C_13
REMARK   11  A    between atoms: C_16  and  O_17
REMARK   12  A    between atoms: C_18  and  O_19
REMARK                            x       y       z     vdW  Elec       q    Type
REMARK                         _______ _______ _______ _____ _____    ______ ____
ROOT
ATOM      1  O   LIG A   1     -10.608   0.194 122.866  0.00  0.00    -0.245 OA
ATOM      2  C   LIG A   1      -9.377   0.171 123.076  0.00  0.00    +0.340 C 
ENDROOT
BRANCH   2   3
ATOM      3  C   LIG A   1      -8.620   1.355 123.492  0.00  0.00    +0.063 A 
ATOM      4  C   LIG A   1      -9.224   2.335 124.300  0.00  0.00    +0.064 A 
ATOM      5  C   LIG A   1      -8.491   3.449 124.667  0.00  0.00    +0.159 A 
ATOM      6  C   LIG A   1      -7.173   3.602 124.242  0.00  0.00    +0.158 A 
ATOM      7  C   LIG A   1      -6.563   2.641 123.446  0.00  0.00    +0.050 A 
ATOM      8  C   LIG A   1      -7.291   1.513 123.065  0.00  0.00    +0.019 A 
BRANCH   5   9
ATOM      9  O   LIG A   1      -9.030   4.431 125.452  0.00  0.00    -0.503 OA
ATOM     10  H   LIG A   1      -9.397   4.012 126.250  0.00  0.00    +0.292 HD
ENDBRANCH   5   9
BRANCH   6  11
ATOM     11  O   LIG A   1      -6.471   4.715 124.603  0.00  0.00    -0.503 OA
ATOM     12  H   LIG A   1      -5.680   4.704 124.029  0.00  0.00    +0.292 HD
ENDBRANCH   6  11
ENDBRANCH   2   3
BRANCH   2  13
ATOM     13  O   LIG A   1      -8.564  -0.893 122.933  0.00  0.00    -0.457 OA
BRANCH  13  14
ATOM     14  C   LIG A   1      -9.156  -2.179 123.116  0.00  0.00    +0.260 C 
BRANCH  14  15
ATOM     15  C   LIG A   1      -9.288  -2.504 124.581  0.00  0.00    +0.012 C 
ATOM     16  C   LIG A   1      -8.497  -3.334 125.277  0.00  0.00    -0.073 C 
ATOM     17  C   LIG A   1      -7.366  -3.973 124.583  0.00  0.00    +0.038 C 
BRANCH  16  18
ATOM     18  C   LIG A   1      -8.615  -3.554 126.782  0.00  0.00    +0.034 C 
BRANCH  18  19
ATOM     19  C   LIG A   1      -7.696  -2.760 127.766  0.00  0.00    +0.031 C 
BRANCH  19  20
ATOM     20  C   LIG A   1      -7.795  -1.245 127.740  0.00  0.00    -0.028 C 
ATOM     21  C   LIG A   1      -7.114  -0.360 126.971  0.00  0.00    -0.080 C 
ATOM     22  C   LIG A   1      -6.066  -0.679 125.929  0.00  0.00    +0.038 C 
ATOM     23  C   LIG A   1      -7.213   1.119 127.218  0.00  0.00    +0.038 C 
ENDBRANCH  19  20
ENDBRANCH  18  19
ENDBRANCH  16  18
ENDBRANCH  14  15
ENDBRANCH  13  14
ENDBRANCH   2  13
TORSDOF 9
ENDMDL
MODEL 9
REMARK VINA RESULT:      -6.5      3.109      4.331
REMARK  Name = NuBBE_1
REMARK  12 active torsions:
REMARK  status: ('A' for Active; 'I' for Inactive)
REMARK    1  A    between atoms: C_2  and  O_3
REMARK    2  A    between atoms: C_2  and  C_14
REMARK    3  A    between atoms: O_3  and  C_4
REMARK    4  A    between atoms: C_4  and  C_5
REMARK    5  A    between atoms: C_6  and  C_7
REMARK    6  A    between atoms: C_6  and  C_8
REMARK    7  A    between atoms: C_8  and  C_9
REMARK    8  A    between atoms: C_9  and  C_10
REMARK    9  A    between atoms: C_11  and  C_12
REMARK   10  A    between atoms: C_11  and  C_13
REMARK   11  A    between atoms: C_16  and  O_17
REMARK   12  A    between atoms: C_18  and  O_19
REMARK                            x       y       z     vdW  Elec       q    Type
REMARK                         _______ _______ _______ _____ _____    ______ ____
ROOT
ATOM      1  O   LIG A   1      -9.488   1.153 126.523  0.00  0.00    -0.245 OA
ATOM      2  C   LIG A   1      -9.267   0.892 125.321  0.00  0.00    +0.340 C 
ENDROOT
BRANCH   2   3
ATOM      3  C   LIG A   1      -8.472   1.765 124.452  0.00  0.00    +0.063 A 
ATOM      4  C   LIG A   1      -9.055   2.357 123.318  0.00  0.00    +0.064 A 
ATOM      5  C   LIG A   1      -8.278   3.165 122.507  0.00  0.00    +0.159 A 
ATOM      6  C   LIG A   1      -6.936   3.389 122.807  0.00  0.00    +0.158 A 
ATOM      7  C   LIG A   1      -6.348   2.813 123.926  0.00  0.00    +0.050 A 
ATOM      8  C   LIG A   1      -7.118   1.992 124.752  0.00  0.00    +0.019 A 
BRANCH   5   9
ATOM      9  O   LIG A   1      -8.795   3.767 121.394  0.00  0.00    -0.503 OA
ATOM     10  H   LIG A   1      -8.776   4.730 121.534  0.00  0.00    +0.292 HD
ENDBRANCH   5   9
BRANCH   6  11
ATOM     11  O   LIG A   1      -6.183   4.178 121.988  0.00  0.00    -0.503 OA
ATOM     12  H   LIG A   1      -6.557   4.035 121.096  0.00  0.00    +0.292 HD
ENDBRANCH   6  11
ENDBRANCH   2   3
BRANCH   2  13
ATOM     13  O   LIG A   1      -9.729  -0.173 124.640  0.00  0.00    -0.457 OA
BRANCH  13  14
ATOM     14  C   LIG A   1      -8.867  -1.309 124.568  0.00  0.00    +0.260 C 
BRANCH  14  15
ATOM     15  C   LIG A   1      -9.036  -2.186 125.781  0.00  0.00    +0.012 C 
ATOM     16  C   LIG A   1      -8.129  -2.369 126.752  0.00  0.00    -0.073 C 
ATOM     17  C   LIG A   1      -6.857  -1.632 126.672  0.00  0.00    +0.038 C 
BRANCH  16  18
ATOM     18  C   LIG A   1      -8.388  -3.194 128.008  0.00  0.00    +0.034 C 
BRANCH  18  19
ATOM     19  C   LIG A   1      -8.004  -2.626 129.414  0.00  0.00    +0.031 C 
BRANCH  19  20
ATOM     20  C   LIG A   1      -7.222  -3.538 130.342  0.00  0.00    -0.028 C 
ATOM     21  C   LIG A   1      -5.898  -3.830 130.330  0.00  0.00    -0.080 C 
ATOM     22  C   LIG A   1      -4.859  -3.306 129.367  0.00  0.00    +0.038 C 
ATOM     23  C   LIG A   1      -5.334  -4.905 131.217  0.00  0.00    +0.038 C 
ENDBRANCH  19  20
ENDBRANCH  18  19
ENDBRANCH  16  18
ENDBRANCH  14  15
ENDBRANCH  13  14
ENDBRANCH   2  13
TORSDOF 9
ENDMDL
