MODEL 1
REMARK VINA RESULT:      -5.7      0.000      0.000
REMARK  Name = NuBBE_29
REMARK  13 active torsions:
REMARK  status: ('A' for Active; 'I' for Inactive)
REMARK    1  A    between atoms: C_1  and  C_2
REMARK    2  A    between atoms: C_2  and  C_3
REMARK    3  A    between atoms: C_3  and  C_4
REMARK    4  A    between atoms: C_4  and  C_5
REMARK    5  A    between atoms: C_5  and  C_6
REMARK    6  A    between atoms: C_6  and  C_7
REMARK    7  A    between atoms: C_7  and  C_8
REMARK    8  A    between atoms: C_8  and  C_9
REMARK    9  A    between atoms: C_9  and  C_10
REMARK   10  A    between atoms: N_11  and  C_13
REMARK   11  A    between atoms: C_13  and  C_14
REMARK   12  A    between atoms: C_14  and  C_15
REMARK   13  A    between atoms: C_14  and  C_16
REMARK                            x       y       z     vdW  Elec       q    Type
REMARK                         _______ _______ _______ _____ _____    ______ ____
ROOT
ATOM      1  C   LIG A   1      -8.997  -3.229 123.614  0.00  0.00    +0.096 C 
ENDROOT
BRANCH   1   2
ATOM      2  C   LIG A   1      -8.823  -1.841 123.125  0.00  0.00    +0.213 C 
ATOM      3  N   LIG A   1      -7.559  -1.298 123.023  0.00  0.00    -0.315 N 
ATOM      4  H   LIG A   1      -7.633  -0.327 122.683  0.00  0.00    +0.149 HD
ATOM      5  O   LIG A   1      -9.762  -1.054 123.035  0.00  0.00    -0.276 OA
BRANCH   3   6
ATOM      6  C   LIG A   1      -6.320  -1.991 122.770  0.00  0.00    +0.107 C 
BRANCH   6   7
ATOM      7  C   LIG A   1      -5.272  -2.281 123.926  0.00  0.00    +0.000 C 
ATOM      8  C   LIG A   1      -5.621  -1.927 125.377  0.00  0.00    +0.009 C 
ATOM      9  C   LIG A   1      -4.967  -3.802 123.984  0.00  0.00    +0.009 C 
ENDBRANCH   6   7
ENDBRANCH   3   6
ENDBRANCH   1   2
BRANCH   1  10
ATOM     10  C   LIG A   1      -8.502  -3.840 124.876  0.00  0.00    +0.009 C 
BRANCH  10  11
ATOM     11  C   LIG A   1      -9.267  -3.133 126.046  0.00  0.00    +0.000 C 
BRANCH  11  12
ATOM     12  C   LIG A   1      -8.923  -3.780 127.385  0.00  0.00    +0.000 C 
BRANCH  12  13
ATOM     13  C   LIG A   1      -7.797  -3.102 128.177  0.00  0.00    -0.000 C 
BRANCH  13  14
ATOM     14  C   LIG A   1      -8.129  -2.719 129.622  0.00  0.00    -0.000 C 
BRANCH  14  15
ATOM     15  C   LIG A   1      -7.015  -2.986 130.640  0.00  0.00    -0.000 C 
BRANCH  15  17
ATOM     16  C   LIG A   1      -5.567  -5.040 130.882  0.00  0.00    +0.004 C 
ATOM     17  C   LIG A   1      -5.853  -3.795 130.059  0.00  0.00    -0.003 C 
ENDBRANCH  15  17
ENDBRANCH  14  15
ENDBRANCH  13  14
ENDBRANCH  12  13
ENDBRANCH  11  12
ENDBRANCH  10  11
ENDBRANCH   1  10
TORSDOF 10
ENDMDL
MODEL 2
REMARK VINA RESULT:      -5.5      3.285      5.163
REMARK  Name = NuBBE_29
REMARK  13 active torsions:
REMARK  status: ('A' for Active; 'I' for Inactive)
REMARK    1  A    between atoms: C_1  and  C_2
REMARK    2  A    between atoms: C_2  and  C_3
REMARK    3  A    between atoms: C_3  and  C_4
REMARK    4  A    between atoms: C_4  and  C_5
REMARK    5  A    between atoms: C_5  and  C_6
REMARK    6  A    between atoms: C_6  and  C_7
REMARK    7  A    between atoms: C_7  and  C_8
REMARK    8  A    between atoms: C_8  and  C_9
REMARK    9  A    between atoms: C_9  and  C_10
REMARK   10  A    between atoms: N_11  and  C_13
REMARK   11  A    between atoms: C_13  and  C_14
REMARK   12  A    between atoms: C_14  and  C_15
REMARK   13  A    between atoms: C_14  and  C_16
REMARK                            x       y       z     vdW  Elec       q    Type
REMARK                         _______ _______ _______ _____ _____    ______ ____
ROOT
ATOM      1  C   LIG A   1      -9.185  -0.354 123.352  0.00  0.00    +0.096 C 
ENDROOT
BRANCH   1   2
ATOM      2  C   LIG A   1     -10.163   0.739 123.138  0.00  0.00    +0.213 C 
ATOM      3  N   LIG A   1      -9.932   1.987 123.675  0.00  0.00    -0.315 N 
ATOM      4  H   LIG A   1     -10.719   2.610 123.438  0.00  0.00    +0.149 HD
ATOM      5  O   LIG A   1     -11.297   0.531 122.712  0.00  0.00    -0.276 OA
BRANCH   3   6
ATOM      6  C   LIG A   1      -8.659   2.610 123.942  0.00  0.00    +0.107 C 
BRANCH   6   7
ATOM      7  C   LIG A   1      -7.802   3.288 122.791  0.00  0.00    +0.000 C 
ATOM      8  C   LIG A   1      -6.477   2.653 122.353  0.00  0.00    +0.009 C 
ATOM      9  C   LIG A   1      -8.633   3.340 121.482  0.00  0.00    +0.009 C 
ENDBRANCH   6   7
ENDBRANCH   3   6
ENDBRANCH   1   2
BRANCH   1  10
ATOM     10  C   LIG A   1      -8.832  -1.479 122.445  0.00  0.00    +0.009 C 
BRANCH  10  11
ATOM     11  C   LIG A   1      -9.316  -2.792 123.149  0.00  0.00    +0.000 C 
BRANCH  11  12
ATOM     12  C   LIG A   1      -8.849  -2.828 124.602  0.00  0.00    +0.000 C 
BRANCH  12  13
ATOM     13  C   LIG A   1      -7.643  -3.732 124.886  0.00  0.00    -0.000 C 
BRANCH  13  14
ATOM     14  C   LIG A   1      -6.282  -3.032 124.966  0.00  0.00    -0.000 C 
BRANCH  14  15
ATOM     15  C   LIG A   1      -5.660  -2.662 123.615  0.00  0.00    -0.000 C 
BRANCH  15  17
ATOM     16  C   LIG A   1      -4.395  -4.844 123.508  0.00  0.00    +0.004 C 
ATOM     17  C   LIG A   1      -4.306  -3.333 123.373  0.00  0.00    -0.003 C 
ENDBRANCH  15  17
ENDBRANCH  14  15
ENDBRANCH  13  14
ENDBRANCH  12  13
ENDBRANCH  11  12
ENDBRANCH  10  11
ENDBRANCH   1  10
TORSDOF 10
ENDMDL
MODEL 3
REMARK VINA RESULT:      -5.4      4.225      6.089
REMARK  Name = NuBBE_29
REMARK  13 active torsions:
REMARK  status: ('A' for Active; 'I' for Inactive)
REMARK    1  A    between atoms: C_1  and  C_2
REMARK    2  A    between atoms: C_2  and  C_3
REMARK    3  A    between atoms: C_3  and  C_4
REMARK    4  A    between atoms: C_4  and  C_5
REMARK    5  A    between atoms: C_5  and  C_6
REMARK    6  A    between atoms: C_6  and  C_7
REMARK    7  A    between atoms: C_7  and  C_8
REMARK    8  A    between atoms: C_8  and  C_9
REMARK    9  A    between atoms: C_9  and  C_10
REMARK   10  A    between atoms: N_11  and  C_13
REMARK   11  A    between atoms: C_13  and  C_14
REMARK   12  A    between atoms: C_14  and  C_15
REMARK   13  A    between atoms: C_14  and  C_16
REMARK                            x       y       z     vdW  Elec       q    Type
REMARK                         _______ _______ _______ _____ _____    ______ ____
ROOT
ATOM      1  C   LIG A   1      -7.332   1.569 123.403  0.00  0.00    +0.096 C 
ENDROOT
BRANCH   1   2
ATOM      2  C   LIG A   1      -7.715   2.999 123.481  0.00  0.00    +0.213 C 
ATOM      3  N   LIG A   1      -6.825   3.975 123.087  0.00  0.00    -0.315 N 
ATOM      4  H   LIG A   1      -7.255   4.902 123.225  0.00  0.00    +0.149 HD
ATOM      5  O   LIG A   1      -8.698   3.382 124.112  0.00  0.00    -0.276 OA
BRANCH   3   6
ATOM      6  C   LIG A   1      -5.789   3.873 122.088  0.00  0.00    +0.107 C 
BRANCH   6   7
ATOM      7  C   LIG A   1      -6.118   3.914 120.536  0.00  0.00    +0.000 C 
ATOM      8  C   LIG A   1      -7.570   4.071 120.068  0.00  0.00    +0.009 C 
ATOM      9  C   LIG A   1      -5.390   5.118 119.880  0.00  0.00    +0.009 C 
ENDBRANCH   6   7
ENDBRANCH   3   6
ENDBRANCH   1   2
BRANCH   1  10
ATOM     10  C   LIG A   1      -7.822   0.428 124.222  0.00  0.00    +0.009 C 
BRANCH  10  11
ATOM     11  C   LIG A   1      -8.772  -0.409 123.300  0.00  0.00    +0.000 C 
BRANCH  11  12
ATOM     12  C   LIG A   1      -9.021  -1.792 123.896  0.00  0.00    +0.000 C 
BRANCH  12  13
ATOM     13  C   LIG A   1      -8.100  -2.908 123.385  0.00  0.00    -0.000 C 
BRANCH  13  14
ATOM     14  C   LIG A   1      -7.199  -3.568 124.434  0.00  0.00    -0.000 C 
BRANCH  14  15
ATOM     15  C   LIG A   1      -5.799  -2.959 124.567  0.00  0.00    -0.000 C 
BRANCH  15  17
ATOM     16  C   LIG A   1      -4.208  -4.629 123.543  0.00  0.00    +0.004 C 
ATOM     17  C   LIG A   1      -4.889  -3.281 123.380  0.00  0.00    -0.003 C 
ENDBRANCH  15  17
ENDBRANCH  14  15
ENDBRANCH  13  14
ENDBRANCH  12  13
ENDBRANCH  11  12
ENDBRANCH  10  11
ENDBRANCH   1  10
TORSDOF 10
ENDMDL
MODEL 4
REMARK VINA RESULT:      -5.3      3.187      5.189
REMARK  Name = NuBBE_29
REMARK  13 active torsions:
REMARK  status: ('A' for Active; 'I' for Inactive)
REMARK    1  A    between atoms: C_1  and  C_2
REMARK    2  A    between atoms: C_2  and  C_3
REMARK    3  A    between atoms: C_3  and  C_4
REMARK    4  A    between atoms: C_4  and  C_5
REMARK    5  A    between atoms: C_5  and  C_6
REMARK    6  A    between atoms: C_6  and  C_7
REMARK    7  A    between atoms: C_7  and  C_8
REMARK    8  A    between atoms: C_8  and  C_9
REMARK    9  A    between atoms: C_9  and  C_10
REMARK   10  A    between atoms: N_11  and  C_13
REMARK   11  A    between atoms: C_13  and  C_14
REMARK   12  A    between atoms: C_14  and  C_15
REMARK   13  A    between atoms: C_14  and  C_16
REMARK                            x       y       z     vdW  Elec       q    Type
REMARK                         _______ _______ _______ _____ _____    ______ ____
ROOT
ATOM      1  C   LIG A   1      -9.243  -1.585 125.809  0.00  0.00    +0.096 C 
ENDROOT
BRANCH   1   2
ATOM      2  C   LIG A   1      -8.210  -0.756 126.474  0.00  0.00    +0.213 C 
ATOM      3  N   LIG A   1      -8.033   0.559 126.099  0.00  0.00    -0.315 N 
ATOM      4  H   LIG A   1      -7.268   0.970 126.654  0.00  0.00    +0.149 HD
ATOM      5  O   LIG A   1      -7.329  -1.244 127.177  0.00  0.00    -0.276 OA
BRANCH   3   6
ATOM      6  C   LIG A   1      -9.023   1.465 125.570  0.00  0.00    +0.107 C 
BRANCH   6   7
ATOM      7  C   LIG A   1      -8.987   1.956 124.061  0.00  0.00    +0.000 C 
ATOM      8  C   LIG A   1      -7.657   1.976 123.298  0.00  0.00    +0.009 C 
ATOM      9  C   LIG A   1      -9.894   1.044 123.193  0.00  0.00    +0.009 C 
ENDBRANCH   6   7
ENDBRANCH   3   6
ENDBRANCH   1   2
BRANCH   1  10
ATOM     10  C   LIG A   1      -9.361  -3.068 125.766  0.00  0.00    +0.009 C 
BRANCH  10  11
ATOM     11  C   LIG A   1      -8.681  -3.532 124.433  0.00  0.00    +0.000 C 
BRANCH  11  12
ATOM     12  C   LIG A   1      -8.768  -2.438 123.373  0.00  0.00    +0.000 C 
BRANCH  12  13
ATOM     13  C   LIG A   1      -7.462  -2.136 122.626  0.00  0.00    -0.000 C 
BRANCH  13  14
ATOM     14  C   LIG A   1      -6.371  -1.431 123.438  0.00  0.00    -0.000 C 
BRANCH  14  15
ATOM     15  C   LIG A   1      -5.406  -2.363 124.179  0.00  0.00    -0.000 C 
BRANCH  15  17
ATOM     16  C   LIG A   1      -4.510  -4.683 123.748  0.00  0.00    +0.004 C 
ATOM     17  C   LIG A   1      -4.590  -3.253 123.240  0.00  0.00    -0.003 C 
ENDBRANCH  15  17
ENDBRANCH  14  15
ENDBRANCH  13  14
ENDBRANCH  12  13
ENDBRANCH  11  12
ENDBRANCH  10  11
ENDBRANCH   1  10
TORSDOF 10
ENDMDL
MODEL 5
REMARK VINA RESULT:      -5.3      3.630      5.071
REMARK  Name = NuBBE_29
REMARK  13 active torsions:
REMARK  status: ('A' for Active; 'I' for Inactive)
REMARK    1  A    between atoms: C_1  and  C_2
REMARK    2  A    between atoms: C_2  and  C_3
REMARK    3  A    between atoms: C_3  and  C_4
REMARK    4  A    between atoms: C_4  and  C_5
REMARK    5  A    between atoms: C_5  and  C_6
REMARK    6  A    between atoms: C_6  and  C_7
REMARK    7  A    between atoms: C_7  and  C_8
REMARK    8  A    between atoms: C_8  and  C_9
REMARK    9  A    between atoms: C_9  and  C_10
REMARK   10  A    between atoms: N_11  and  C_13
REMARK   11  A    between atoms: C_13  and  C_14
REMARK   12  A    between atoms: C_14  and  C_15
REMARK   13  A    between atoms: C_14  and  C_16
REMARK                            x       y       z     vdW  Elec       q    Type
REMARK                         _______ _______ _______ _____ _____    ______ ____
ROOT
ATOM      1  C   LIG A   1      -8.547   0.807 123.674  0.00  0.00    +0.096 C 
ENDROOT
BRANCH   1   2
ATOM      2  C   LIG A   1      -8.890   2.218 123.974  0.00  0.00    +0.213 C 
ATOM      3  N   LIG A   1      -8.455   3.226 123.141  0.00  0.00    -0.315 N 
ATOM      4  H   LIG A   1      -8.773   4.134 123.513  0.00  0.00    +0.149 HD
ATOM      5  O   LIG A   1      -9.336   2.567 125.065  0.00  0.00    -0.276 OA
BRANCH   3   6
ATOM      6  C   LIG A   1      -8.198   3.150 121.724  0.00  0.00    +0.107 C 
BRANCH   6   7
ATOM      7  C   LIG A   1      -6.881   3.757 121.079  0.00  0.00    +0.000 C 
ATOM      8  C   LIG A   1      -5.617   2.894 120.971  0.00  0.00    +0.009 C 
ATOM      9  C   LIG A   1      -7.163   4.176 119.611  0.00  0.00    +0.009 C 
ENDBRANCH   6   7
ENDBRANCH   3   6
ENDBRANCH   1   2
BRANCH   1  10
ATOM     10  C   LIG A   1      -9.334  -0.201 122.913  0.00  0.00    +0.009 C 
BRANCH  10  11
ATOM     11  C   LIG A   1      -8.458  -1.498 122.850  0.00  0.00    +0.000 C 
BRANCH  11  12
ATOM     12  C   LIG A   1      -9.292  -2.730 123.193  0.00  0.00    +0.000 C 
BRANCH  12  13
ATOM     13  C   LIG A   1      -8.943  -3.415 124.521  0.00  0.00    -0.000 C 
BRANCH  13  14
ATOM     14  C   LIG A   1      -9.434  -2.711 125.790  0.00  0.00    -0.000 C 
BRANCH  14  15
ATOM     15  C   LIG A   1      -8.339  -2.039 126.626  0.00  0.00    -0.000 C 
BRANCH  15  17
ATOM     16  C   LIG A   1      -8.934  -3.997 128.105  0.00  0.00    +0.004 C 
ATOM     17  C   LIG A   1      -8.074  -2.753 127.953  0.00  0.00    -0.003 C 
ENDBRANCH  15  17
ENDBRANCH  14  15
ENDBRANCH  13  14
ENDBRANCH  12  13
ENDBRANCH  11  12
ENDBRANCH  10  11
ENDBRANCH   1  10
TORSDOF 10
ENDMDL
MODEL 6
REMARK VINA RESULT:      -5.3      2.654      4.203
REMARK  Name = NuBBE_29
REMARK  13 active torsions:
REMARK  status: ('A' for Active; 'I' for Inactive)
REMARK    1  A    between atoms: C_1  and  C_2
REMARK    2  A    between atoms: C_2  and  C_3
REMARK    3  A    between atoms: C_3  and  C_4
REMARK    4  A    between atoms: C_4  and  C_5
REMARK    5  A    between atoms: C_5  and  C_6
REMARK    6  A    between atoms: C_6  and  C_7
REMARK    7  A    between atoms: C_7  and  C_8
REMARK    8  A    between atoms: C_8  and  C_9
REMARK    9  A    between atoms: C_9  and  C_10
REMARK   10  A    between atoms: N_11  and  C_13
REMARK   11  A    between atoms: C_13  and  C_14
REMARK   12  A    between atoms: C_14  and  C_15
REMARK   13  A    between atoms: C_14  and  C_16
REMARK                            x       y       z     vdW  Elec       q    Type
REMARK                         _______ _______ _______ _____ _____    ______ ____
ROOT
ATOM      1  C   LIG A   1      -8.880  -1.491 123.003  0.00  0.00    +0.096 C 
ENDROOT
BRANCH   1   2
ATOM      2  C   LIG A   1      -9.594  -0.204 122.828  0.00  0.00    +0.213 C 
ATOM      3  N   LIG A   1      -9.157   0.923 123.491  0.00  0.00    -0.315 N 
ATOM      4  H   LIG A   1      -9.779   1.713 123.262  0.00  0.00    +0.149 HD
ATOM      5  O   LIG A   1     -10.709  -0.136 122.315  0.00  0.00    -0.276 OA
BRANCH   3   6
ATOM      6  C   LIG A   1      -7.809   1.243 123.893  0.00  0.00    +0.107 C 
BRANCH   6   7
ATOM      7  C   LIG A   1      -7.429   1.505 125.411  0.00  0.00    +0.000 C 
ATOM      8  C   LIG A   1      -8.279   0.886 126.528  0.00  0.00    +0.009 C 
ATOM      9  C   LIG A   1      -6.003   0.963 125.694  0.00  0.00    +0.009 C 
ENDBRANCH   6   7
ENDBRANCH   3   6
ENDBRANCH   1   2
BRANCH   1  10
ATOM     10  C   LIG A   1      -9.424  -2.806 123.436  0.00  0.00    +0.009 C 
BRANCH  10  11
ATOM     11  C   LIG A   1      -9.447  -2.787 125.002  0.00  0.00    +0.000 C 
BRANCH  11  12
ATOM     12  C   LIG A   1      -8.184  -3.432 125.569  0.00  0.00    +0.000 C 
BRANCH  12  13
ATOM     13  C   LIG A   1      -7.110  -2.457 126.066  0.00  0.00    -0.000 C 
BRANCH  13  14
ATOM     14  C   LIG A   1      -5.710  -2.638 125.470  0.00  0.00    -0.000 C 
BRANCH  14  15
ATOM     15  C   LIG A   1      -5.671  -2.840 123.951  0.00  0.00    -0.000 C 
BRANCH  15  17
ATOM     16  C   LIG A   1      -4.394  -4.943 123.388  0.00  0.00    +0.004 C 
ATOM     17  C   LIG A   1      -4.346  -3.426 123.457  0.00  0.00    -0.003 C 
ENDBRANCH  15  17
ENDBRANCH  14  15
ENDBRANCH  13  14
ENDBRANCH  12  13
ENDBRANCH  11  12
ENDBRANCH  10  11
ENDBRANCH   1  10
TORSDOF 10
ENDMDL
MODEL 7
REMARK VINA RESULT:      -5.1      3.056      4.676
REMARK  Name = NuBBE_29
REMARK  13 active torsions:
REMARK  status: ('A' for Active; 'I' for Inactive)
REMARK    1  A    between atoms: C_1  and  C_2
REMARK    2  A    between atoms: C_2  and  C_3
REMARK    3  A    between atoms: C_3  and  C_4
REMARK    4  A    between atoms: C_4  and  C_5
REMARK    5  A    between atoms: C_5  and  C_6
REMARK    6  A    between atoms: C_6  and  C_7
REMARK    7  A    between atoms: C_7  and  C_8
REMARK    8  A    between atoms: C_8  and  C_9
REMARK    9  A    between atoms: C_9  and  C_10
REMARK   10  A    between atoms: N_11  and  C_13
REMARK   11  A    between atoms: C_13  and  C_14
REMARK   12  A    between atoms: C_14  and  C_15
REMARK   13  A    between atoms: C_14  and  C_16
REMARK                            x       y       z     vdW  Elec       q    Type
REMARK                         _______ _______ _______ _____ _____    ______ ____
ROOT
ATOM      1  C   LIG A   1      -8.949  -0.468 123.517  0.00  0.00    +0.096 C 
ENDROOT
BRANCH   1   2
ATOM      2  C   LIG A   1      -9.824   0.590 122.958  0.00  0.00    +0.213 C 
ATOM      3  N   LIG A   1      -9.601   1.912 123.281  0.00  0.00    -0.315 N 
ATOM      4  H   LIG A   1     -10.310   2.499 122.816  0.00  0.00    +0.149 HD
ATOM      5  O   LIG A   1     -10.896   0.336 122.414  0.00  0.00    -0.276 OA
BRANCH   3   6
ATOM      6  C   LIG A   1      -8.345   2.538 123.614  0.00  0.00    +0.107 C 
BRANCH   6   7
ATOM      7  C   LIG A   1      -7.225   2.800 122.521  0.00  0.00    +0.000 C 
ATOM      8  C   LIG A   1      -7.577   3.558 121.235  0.00  0.00    +0.009 C 
ATOM      9  C   LIG A   1      -6.078   3.643 123.139  0.00  0.00    +0.009 C 
ENDBRANCH   6   7
ENDBRANCH   3   6
ENDBRANCH   1   2
BRANCH   1  10
ATOM     10  C   LIG A   1      -8.382  -1.663 122.837  0.00  0.00    +0.009 C 
BRANCH  10  11
ATOM     11  C   LIG A   1      -9.315  -2.868 123.197  0.00  0.00    +0.000 C 
BRANCH  11  12
ATOM     12  C   LIG A   1      -9.275  -3.154 124.696  0.00  0.00    +0.000 C 
BRANCH  12  13
ATOM     13  C   LIG A   1      -7.890  -3.477 125.270  0.00  0.00    -0.000 C 
BRANCH  13  14
ATOM     14  C   LIG A   1      -7.370  -2.523 126.349  0.00  0.00    -0.000 C 
BRANCH  14  15
ATOM     15  C   LIG A   1      -5.869  -2.219 126.282  0.00  0.00    -0.000 C 
BRANCH  15  17
ATOM     16  C   LIG A   1      -5.960   0.209 125.596  0.00  0.00    +0.004 C 
ATOM     17  C   LIG A   1      -5.512  -1.190 125.207  0.00  0.00    -0.003 C 
ENDBRANCH  15  17
ENDBRANCH  14  15
ENDBRANCH  13  14
ENDBRANCH  12  13
ENDBRANCH  11  12
ENDBRANCH  10  11
ENDBRANCH   1  10
TORSDOF 10
ENDMDL
MODEL 8
REMARK VINA RESULT:      -5.1      2.607      5.447
REMARK  Name = NuBBE_29
REMARK  13 active torsions:
REMARK  status: ('A' for Active; 'I' for Inactive)
REMARK    1  A    between atoms: C_1  and  C_2
REMARK    2  A    between atoms: C_2  and  C_3
REMARK    3  A    between atoms: C_3  and  C_4
REMARK    4  A    between atoms: C_4  and  C_5
REMARK    5  A    between atoms: C_5  and  C_6
REMARK    6  A    between atoms: C_6  and  C_7
REMARK    7  A    between atoms: C_7  and  C_8
REMARK    8  A    between atoms: C_8  and  C_9
REMARK    9  A    between atoms: C_9  and  C_10
REMARK   10  A    between atoms: N_11  and  C_13
REMARK   11  A    between atoms: C_13  and  C_14
REMARK   12  A    between atoms: C_14  and  C_15
REMARK   13  A    between atoms: C_14  and  C_16
REMARK                            x       y       z     vdW  Elec       q    Type
REMARK                         _______ _______ _______ _____ _____    ______ ____
ROOT
ATOM      1  C   LIG A   1      -8.247  -2.726 126.819  0.00  0.00    +0.096 C 
ENDROOT
BRANCH   1   2
ATOM      2  C   LIG A   1      -8.117  -3.027 128.265  0.00  0.00    +0.213 C 
ATOM      3  N   LIG A   1      -6.902  -2.867 128.897  0.00  0.00    -0.315 N 
ATOM      4  H   LIG A   1      -6.997  -3.136 129.887  0.00  0.00    +0.149 HD
ATOM      5  O   LIG A   1      -8.975  -3.650 128.885  0.00  0.00    -0.276 OA
BRANCH   3   6
ATOM      6  C   LIG A   1      -5.853  -1.934 128.567  0.00  0.00    +0.107 C 
BRANCH   6   7
ATOM      7  C   LIG A   1      -4.352  -2.166 129.028  0.00  0.00    +0.000 C 
ATOM      8  C   LIG A   1      -3.822  -1.460 130.282  0.00  0.00    +0.009 C 
ATOM      9  C   LIG A   1      -4.125  -3.671 129.332  0.00  0.00    +0.009 C 
ENDBRANCH   6   7
ENDBRANCH   3   6
ENDBRANCH   1   2
BRANCH   1  10
ATOM     10  C   LIG A   1      -9.393  -2.998 125.911  0.00  0.00    +0.009 C 
BRANCH  10  11
ATOM     11  C   LIG A   1      -8.805  -3.724 124.653  0.00  0.00    +0.000 C 
BRANCH  11  12
ATOM     12  C   LIG A   1      -9.348  -3.104 123.369  0.00  0.00    +0.000 C 
BRANCH  12  13
ATOM     13  C   LIG A   1      -8.636  -1.830 122.898  0.00  0.00    -0.000 C 
BRANCH  13  14
ATOM     14  C   LIG A   1      -7.118  -1.934 122.721  0.00  0.00    -0.000 C 
BRANCH  14  15
ATOM     15  C   LIG A   1      -6.287  -1.289 123.836  0.00  0.00    -0.000 C 
BRANCH  15  17
ATOM     16  C   LIG A   1      -4.947  -3.421 123.661  0.00  0.00    +0.004 C 
ATOM     17  C   LIG A   1      -5.388  -2.286 124.570  0.00  0.00    -0.003 C 
ENDBRANCH  15  17
ENDBRANCH  14  15
ENDBRANCH  13  14
ENDBRANCH  12  13
ENDBRANCH  11  12
ENDBRANCH  10  11
ENDBRANCH   1  10
TORSDOF 10
ENDMDL
MODEL 9
REMARK VINA RESULT:      -5.1      4.147      5.744
REMARK  Name = NuBBE_29
REMARK  13 active torsions:
REMARK  status: ('A' for Active; 'I' for Inactive)
REMARK    1  A    between atoms: C_1  and  C_2
REMARK    2  A    between atoms: C_2  and  C_3
REMARK    3  A    between atoms: C_3  and  C_4
REMARK    4  A    between atoms: C_4  and  C_5
REMARK    5  A    between atoms: C_5  and  C_6
REMARK    6  A    between atoms: C_6  and  C_7
REMARK    7  A    between atoms: C_7  and  C_8
REMARK    8  A    between atoms: C_8  and  C_9
REMARK    9  A    between atoms: C_9  and  C_10
REMARK   10  A    between atoms: N_11  and  C_13
REMARK   11  A    between atoms: C_13  and  C_14
REMARK   12  A    between atoms: C_14  and  C_15
REMARK   13  A    between atoms: C_14  and  C_16
REMARK                            x       y       z     vdW  Elec       q    Type
REMARK                         _______ _______ _______ _____ _____    ______ ____
ROOT
ATOM      1  C   LIG A   1      -7.531   1.530 123.304  0.00  0.00    +0.096 C 
ENDROOT
BRANCH   1   2
ATOM      2  C   LIG A   1      -7.806   2.975 123.489  0.00  0.00    +0.213 C 
ATOM      3  N   LIG A   1      -6.852   3.910 123.146  0.00  0.00    -0.315 N 
ATOM      4  H   LIG A   1      -7.211   4.853 123.357  0.00  0.00    +0.149 HD
ATOM      5  O   LIG A   1      -8.749   3.382 124.165  0.00  0.00    -0.276 OA
BRANCH   3   6
ATOM      6  C   LIG A   1      -5.843   3.803 122.121  0.00  0.00    +0.107 C 
BRANCH   6   7
ATOM      7  C   LIG A   1      -6.212   3.833 120.578  0.00  0.00    +0.000 C 
ATOM      8  C   LIG A   1      -7.668   4.049 120.146  0.00  0.00    +0.009 C 
ATOM      9  C   LIG A   1      -5.449   4.991 119.880  0.00  0.00    +0.009 C 
ENDBRANCH   6   7
ENDBRANCH   3   6
ENDBRANCH   1   2
BRANCH   1  10
ATOM     10  C   LIG A   1      -8.184   0.366 123.961  0.00  0.00    +0.009 C 
BRANCH  10  11
ATOM     11  C   LIG A   1      -9.270  -0.161 122.962  0.00  0.00    +0.000 C 
BRANCH  11  12
ATOM     12  C   LIG A   1      -9.162  -1.674 122.797  0.00  0.00    +0.000 C 
BRANCH  12  13
ATOM     13  C   LIG A   1      -8.027  -2.346 123.581  0.00  0.00    -0.000 C 
BRANCH  13  14
ATOM     14  C   LIG A   1      -8.428  -3.538 124.455  0.00  0.00    -0.000 C 
BRANCH  14  15
ATOM     15  C   LIG A   1      -9.357  -3.204 125.627  0.00  0.00    -0.000 C 
BRANCH  15  17
ATOM     16  C   LIG A   1      -8.197  -3.139 127.867  0.00  0.00    +0.004 C 
ATOM     17  C   LIG A   1      -8.694  -2.322 126.687  0.00  0.00    -0.003 C 
ENDBRANCH  15  17
ENDBRANCH  14  15
ENDBRANCH  13  14
ENDBRANCH  12  13
ENDBRANCH  11  12
ENDBRANCH  10  11
ENDBRANCH   1  10
TORSDOF 10
ENDMDL
