MODEL 1
REMARK VINA RESULT:      -7.6      0.000      0.000
REMARK  Name = NuBBE_2433
REMARK  8 active torsions:
REMARK  status: ('A' for Active; 'I' for Inactive)
REMARK    1  A    between atoms: C_1  and  C_3
REMARK    2  A    between atoms: C_1  and  C_11
REMARK    3  A    between atoms: C_4  and  C_5
REMARK    4  A    between atoms: C_12  and  O_13
REMARK    5  A    between atoms: O_13  and  C_14
REMARK    6  A    between atoms: C_16  and  O_20
REMARK    7  A    between atoms: C_18  and  O_19
REMARK    8  A    between atoms: O_20  and  C_21
REMARK                            x       y       z     vdW  Elec       q    Type
REMARK                         _______ _______ _______ _____ _____    ______ ____
ROOT
ATOM      1  C   LIG A   1     -11.469   6.594 129.843  0.00  0.00    +0.105 A 
ATOM      2  C   LIG A   1     -11.331   7.336 128.654  0.00  0.00    +0.138 A 
ATOM      3  C   LIG A   1     -12.005   8.562 128.517  0.00  0.00    +0.092 A 
ATOM      4  C   LIG A   1     -12.757   9.099 129.563  0.00  0.00    +0.127 A 
ATOM      5  C   LIG A   1     -12.872   8.387 130.752  0.00  0.00    +0.092 A 
ATOM      6  C   LIG A   1     -12.252   7.138 130.880  0.00  0.00    +0.135 A 
ENDROOT
BRANCH   1   7
ATOM      7  C   LIG A   1     -10.720   5.319 130.076  0.00  0.00    +0.193 C 
ATOM      8  O   LIG A   1     -11.307   4.233 130.049  0.00  0.00    -0.287 OA
BRANCH   7   9
ATOM      9  C   LIG A   1      -9.257   5.379 130.367  0.00  0.00    +0.052 C 
ATOM     10  C   LIG A   1      -8.816   6.150 131.375  0.00  0.00    +0.012 C 
BRANCH  10  11
ATOM     11  C   LIG A   1      -7.397   6.321 131.697  0.00  0.00    -0.025 A 
ATOM     12  C   LIG A   1      -6.544   6.992 130.816  0.00  0.00    +0.008 A 
ATOM     13  C   LIG A   1      -5.181   7.114 131.106  0.00  0.00    +0.001 A 
ATOM     14  C   LIG A   1      -4.663   6.567 132.280  0.00  0.00    +0.000 A 
ATOM     15  C   LIG A   1      -5.508   5.901 133.166  0.00  0.00    +0.001 A 
ATOM     16  C   LIG A   1      -6.871   5.778 132.876  0.00  0.00    +0.008 A 
ENDBRANCH  10  11
ENDBRANCH   7   9
ENDBRANCH   1   7
BRANCH   2  17
ATOM     17  O   LIG A   1     -10.552   6.820 127.648  0.00  0.00    -0.494 OA
ATOM     18  C   LIG A   1     -10.724   7.398 126.356  0.00  0.00    +0.277 C 
ENDBRANCH   2  17
BRANCH   6  19
ATOM     19  O   LIG A   1     -12.461   6.433 132.035  0.00  0.00    -0.506 OA
ATOM     20  H   LIG A   1     -12.955   5.618 131.851  0.00  0.00    +0.292 HD
ENDBRANCH   6  19
BRANCH   4  21
ATOM     21  O   LIG A   1     -13.331  10.313 129.296  0.00  0.00    -0.495 OA
ATOM     22  C   LIG A   1     -13.510  11.200 130.395  0.00  0.00    +0.277 C 
ENDBRANCH   4  21
TORSDOF 6
ENDMDL
MODEL 2
REMARK VINA RESULT:      -7.1      8.271     11.415
REMARK  Name = NuBBE_2433
REMARK  8 active torsions:
REMARK  status: ('A' for Active; 'I' for Inactive)
REMARK    1  A    between atoms: C_1  and  C_3
REMARK    2  A    between atoms: C_1  and  C_11
REMARK    3  A    between atoms: C_4  and  C_5
REMARK    4  A    between atoms: C_12  and  O_13
REMARK    5  A    between atoms: O_13  and  C_14
REMARK    6  A    between atoms: C_16  and  O_20
REMARK    7  A    between atoms: C_18  and  O_19
REMARK    8  A    between atoms: O_20  and  C_21
REMARK                            x       y       z     vdW  Elec       q    Type
REMARK                         _______ _______ _______ _____ _____    ______ ____
ROOT
ATOM      1  C   LIG A   1      -8.025   0.816 124.118  0.00  0.00    +0.105 A 
ATOM      2  C   LIG A   1      -6.786   0.506 124.712  0.00  0.00    +0.138 A 
ATOM      3  C   LIG A   1      -6.307  -0.815 124.672  0.00  0.00    +0.092 A 
ATOM      4  C   LIG A   1      -7.000  -1.820 123.994  0.00  0.00    +0.127 A 
ATOM      5  C   LIG A   1      -8.209  -1.514 123.378  0.00  0.00    +0.092 A 
ATOM      6  C   LIG A   1      -8.724  -0.214 123.460  0.00  0.00    +0.135 A 
ENDROOT
BRANCH   1   7
ATOM      7  C   LIG A   1      -8.553   2.215 124.064  0.00  0.00    +0.193 C 
ATOM      8  O   LIG A   1      -9.250   2.659 124.982  0.00  0.00    -0.287 OA
BRANCH   7   9
ATOM      9  C   LIG A   1      -8.245   3.063 122.873  0.00  0.00    +0.052 C 
ATOM     10  C   LIG A   1      -7.062   2.922 122.252  0.00  0.00    +0.012 C 
BRANCH  10  11
ATOM     11  C   LIG A   1      -6.646   3.749 121.116  0.00  0.00    -0.025 A 
ATOM     12  C   LIG A   1      -5.396   4.375 121.114  0.00  0.00    +0.008 A 
ATOM     13  C   LIG A   1      -5.020   5.198 120.047  0.00  0.00    +0.001 A 
ATOM     14  C   LIG A   1      -5.891   5.400 118.977  0.00  0.00    +0.000 A 
ATOM     15  C   LIG A   1      -7.136   4.775 118.970  0.00  0.00    +0.001 A 
ATOM     16  C   LIG A   1      -7.514   3.952 120.036  0.00  0.00    +0.008 A 
ENDBRANCH  10  11
ENDBRANCH   7   9
ENDBRANCH   1   7
BRANCH   2  17
ATOM     17  O   LIG A   1      -6.091   1.511 125.337  0.00  0.00    -0.494 OA
ATOM     18  C   LIG A   1      -6.000   1.428 126.756  0.00  0.00    +0.277 C 
ENDBRANCH   2  17
BRANCH   6  19
ATOM     19  O   LIG A   1      -9.957   0.022 122.912  0.00  0.00    -0.506 OA
ATOM     20  H   LIG A   1     -10.607   0.208 123.609  0.00  0.00    +0.292 HD
ENDBRANCH   6  19
BRANCH   4  21
ATOM     21  O   LIG A   1      -6.399  -3.049 124.015  0.00  0.00    -0.495 OA
ATOM     22  C   LIG A   1      -5.007  -3.094 123.724  0.00  0.00    +0.277 C 
ENDBRANCH   4  21
TORSDOF 6
ENDMDL
MODEL 3
REMARK VINA RESULT:      -7.1      8.278     10.707
REMARK  Name = NuBBE_2433
REMARK  8 active torsions:
REMARK  status: ('A' for Active; 'I' for Inactive)
REMARK    1  A    between atoms: C_1  and  C_3
REMARK    2  A    between atoms: C_1  and  C_11
REMARK    3  A    between atoms: C_4  and  C_5
REMARK    4  A    between atoms: C_12  and  O_13
REMARK    5  A    between atoms: O_13  and  C_14
REMARK    6  A    between atoms: C_16  and  O_20
REMARK    7  A    between atoms: C_18  and  O_19
REMARK    8  A    between atoms: O_20  and  C_21
REMARK                            x       y       z     vdW  Elec       q    Type
REMARK                         _______ _______ _______ _____ _____    ______ ____
ROOT
ATOM      1  C   LIG A   1      -7.375   3.191 122.946  0.00  0.00    +0.105 A 
ATOM      2  C   LIG A   1      -6.064   3.672 123.131  0.00  0.00    +0.138 A 
ATOM      3  C   LIG A   1      -5.366   4.223 122.043  0.00  0.00    +0.092 A 
ATOM      4  C   LIG A   1      -5.967   4.369 120.791  0.00  0.00    +0.127 A 
ATOM      5  C   LIG A   1      -7.272   3.925 120.609  0.00  0.00    +0.092 A 
ATOM      6  C   LIG A   1      -7.959   3.323 121.671  0.00  0.00    +0.135 A 
ENDROOT
BRANCH   1   7
ATOM      7  C   LIG A   1      -8.195   2.662 124.080  0.00  0.00    +0.193 C 
ATOM      8  O   LIG A   1      -8.964   3.404 124.699  0.00  0.00    -0.287 OA
BRANCH   7   9
ATOM      9  C   LIG A   1      -8.055   1.227 124.470  0.00  0.00    +0.052 C 
ATOM     10  C   LIG A   1      -7.466   0.368 123.622  0.00  0.00    +0.012 C 
BRANCH  10  11
ATOM     11  C   LIG A   1      -7.338  -1.067 123.889  0.00  0.00    -0.025 A 
ATOM     12  C   LIG A   1      -6.076  -1.668 123.952  0.00  0.00    +0.008 A 
ATOM     13  C   LIG A   1      -5.959  -3.046 124.164  0.00  0.00    +0.001 A 
ATOM     14  C   LIG A   1      -7.102  -3.830 124.315  0.00  0.00    +0.000 A 
ATOM     15  C   LIG A   1      -8.362  -3.238 124.259  0.00  0.00    +0.001 A 
ATOM     16  C   LIG A   1      -8.481  -1.861 124.046  0.00  0.00    +0.008 A 
ENDBRANCH  10  11
ENDBRANCH   7   9
ENDBRANCH   1   7
BRANCH   2  17
ATOM     17  O   LIG A   1      -5.499   3.566 124.377  0.00  0.00    -0.494 OA
ATOM     18  C   LIG A   1      -5.573   4.723 125.206  0.00  0.00    +0.277 C 
ENDBRANCH   2  17
BRANCH   6  19
ATOM     19  O   LIG A   1      -9.210   2.823 121.424  0.00  0.00    -0.506 OA
ATOM     20  H   LIG A   1      -9.515   3.093 120.543  0.00  0.00    +0.292 HD
ENDBRANCH   6  19
BRANCH   4  21
ATOM     21  O   LIG A   1      -5.176   4.948 119.836  0.00  0.00    -0.495 OA
ATOM     22  C   LIG A   1      -5.836   5.648 118.787  0.00  0.00    +0.277 C 
ENDBRANCH   4  21
TORSDOF 6
ENDMDL
MODEL 4
REMARK VINA RESULT:      -7.0      7.895     10.519
REMARK  Name = NuBBE_2433
REMARK  8 active torsions:
REMARK  status: ('A' for Active; 'I' for Inactive)
REMARK    1  A    between atoms: C_1  and  C_3
REMARK    2  A    between atoms: C_1  and  C_11
REMARK    3  A    between atoms: C_4  and  C_5
REMARK    4  A    between atoms: C_12  and  O_13
REMARK    5  A    between atoms: O_13  and  C_14
REMARK    6  A    between atoms: C_16  and  O_20
REMARK    7  A    between atoms: C_18  and  O_19
REMARK    8  A    between atoms: O_20  and  C_21
REMARK                            x       y       z     vdW  Elec       q    Type
REMARK                         _______ _______ _______ _____ _____    ______ ____
ROOT
ATOM      1  C   LIG A   1      -9.188   0.335 125.181  0.00  0.00    +0.105 A 
ATOM      2  C   LIG A   1      -8.990  -1.059 125.129  0.00  0.00    +0.138 A 
ATOM      3  C   LIG A   1      -8.287  -1.700 126.165  0.00  0.00    +0.092 A 
ATOM      4  C   LIG A   1      -7.838  -0.995 127.284  0.00  0.00    +0.127 A 
ATOM      5  C   LIG A   1      -8.057   0.376 127.356  0.00  0.00    +0.092 A 
ATOM      6  C   LIG A   1      -8.706   1.035 126.304  0.00  0.00    +0.135 A 
ENDROOT
BRANCH   1   7
ATOM      7  C   LIG A   1      -9.989   1.063 124.147  0.00  0.00    +0.193 C 
ATOM      8  O   LIG A   1     -11.197   1.256 124.311  0.00  0.00    -0.287 OA
BRANCH   7   9
ATOM      9  C   LIG A   1      -9.312   1.533 122.901  0.00  0.00    +0.052 C 
ATOM     10  C   LIG A   1      -8.677   2.716 122.903  0.00  0.00    +0.012 C 
BRANCH  10  11
ATOM     11  C   LIG A   1      -8.037   3.289 121.715  0.00  0.00    -0.025 A 
ATOM     12  C   LIG A   1      -6.652   3.477 121.675  0.00  0.00    +0.008 A 
ATOM     13  C   LIG A   1      -6.051   4.064 120.556  0.00  0.00    +0.001 A 
ATOM     14  C   LIG A   1      -6.830   4.465 119.472  0.00  0.00    +0.000 A 
ATOM     15  C   LIG A   1      -8.211   4.276 119.502  0.00  0.00    +0.001 A 
ATOM     16  C   LIG A   1      -8.813   3.690 120.620  0.00  0.00    +0.008 A 
ENDBRANCH  10  11
ENDBRANCH   7   9
ENDBRANCH   1   7
BRANCH   2  17
ATOM     17  O   LIG A   1      -9.475  -1.749 124.047  0.00  0.00    -0.494 OA
ATOM     18  C   LIG A   1      -8.506  -2.242 123.125  0.00  0.00    +0.277 C 
ENDBRANCH   2  17
BRANCH   6  19
ATOM     19  O   LIG A   1      -8.825   2.398 126.377  0.00  0.00    -0.506 OA
ATOM     20  H   LIG A   1      -8.379   2.735 127.170  0.00  0.00    +0.292 HD
ENDBRANCH   6  19
BRANCH   4  21
ATOM     21  O   LIG A   1      -7.197  -1.755 128.224  0.00  0.00    -0.495 OA
ATOM     22  C   LIG A   1      -6.805  -1.103 129.426  0.00  0.00    +0.277 C 
ENDBRANCH   4  21
TORSDOF 6
ENDMDL
MODEL 5
REMARK VINA RESULT:      -7.0      7.285     10.493
REMARK  Name = NuBBE_2433
REMARK  8 active torsions:
REMARK  status: ('A' for Active; 'I' for Inactive)
REMARK    1  A    between atoms: C_1  and  C_3
REMARK    2  A    between atoms: C_1  and  C_11
REMARK    3  A    between atoms: C_4  and  C_5
REMARK    4  A    between atoms: C_12  and  O_13
REMARK    5  A    between atoms: O_13  and  C_14
REMARK    6  A    between atoms: C_16  and  O_20
REMARK    7  A    between atoms: C_18  and  O_19
REMARK    8  A    between atoms: O_20  and  C_21
REMARK                            x       y       z     vdW  Elec       q    Type
REMARK                         _______ _______ _______ _____ _____    ______ ____
ROOT
ATOM      1  C   LIG A   1      -9.202   0.128 125.310  0.00  0.00    +0.105 A 
ATOM      2  C   LIG A   1      -8.666   0.749 126.455  0.00  0.00    +0.138 A 
ATOM      3  C   LIG A   1      -8.071  -0.036 127.458  0.00  0.00    +0.092 A 
ATOM      4  C   LIG A   1      -7.937  -1.419 127.315  0.00  0.00    +0.127 A 
ATOM      5  C   LIG A   1      -8.436  -2.035 126.173  0.00  0.00    +0.092 A 
ATOM      6  C   LIG A   1      -9.081  -1.270 125.193  0.00  0.00    +0.135 A 
ENDROOT
BRANCH   1   7
ATOM      7  C   LIG A   1      -9.782   0.915 124.177  0.00  0.00    +0.193 C 
ATOM      8  O   LIG A   1     -10.997   1.126 124.116  0.00  0.00    -0.287 OA
BRANCH   7   9
ATOM      9  C   LIG A   1      -8.874   1.423 123.105  0.00  0.00    +0.052 C 
ATOM     10  C   LIG A   1      -8.830   2.741 122.849  0.00  0.00    +0.012 C 
BRANCH  10  11
ATOM     11  C   LIG A   1      -8.018   3.327 121.779  0.00  0.00    -0.025 A 
ATOM     12  C   LIG A   1      -8.615   3.767 120.594  0.00  0.00    +0.008 A 
ATOM     13  C   LIG A   1      -7.831   4.285 119.557  0.00  0.00    +0.001 A 
ATOM     14  C   LIG A   1      -6.447   4.367 119.701  0.00  0.00    +0.000 A 
ATOM     15  C   LIG A   1      -5.845   3.936 120.881  0.00  0.00    +0.001 A 
ATOM     16  C   LIG A   1      -6.627   3.417 121.917  0.00  0.00    +0.008 A 
ENDBRANCH  10  11
ENDBRANCH   7   9
ENDBRANCH   1   7
BRANCH   2  17
ATOM     17  O   LIG A   1      -8.763   2.114 126.564  0.00  0.00    -0.494 OA
ATOM     18  C   LIG A   1      -7.547   2.846 126.435  0.00  0.00    +0.277 C 
ENDBRANCH   2  17
BRANCH   6  19
ATOM     19  O   LIG A   1      -9.633  -1.928 124.126  0.00  0.00    -0.506 OA
ATOM     20  H   LIG A   1      -9.014  -1.941 123.379  0.00  0.00    +0.292 HD
ENDBRANCH   6  19
BRANCH   4  21
ATOM     21  O   LIG A   1      -7.311  -2.047 128.358  0.00  0.00    -0.495 OA
ATOM     22  C   LIG A   1      -8.051  -3.050 129.047  0.00  0.00    +0.277 C 
ENDBRANCH   4  21
TORSDOF 6
ENDMDL
MODEL 6
REMARK VINA RESULT:      -6.6      7.883     11.024
REMARK  Name = NuBBE_2433
REMARK  8 active torsions:
REMARK  status: ('A' for Active; 'I' for Inactive)
REMARK    1  A    between atoms: C_1  and  C_3
REMARK    2  A    between atoms: C_1  and  C_11
REMARK    3  A    between atoms: C_4  and  C_5
REMARK    4  A    between atoms: C_12  and  O_13
REMARK    5  A    between atoms: O_13  and  C_14
REMARK    6  A    between atoms: C_16  and  O_20
REMARK    7  A    between atoms: C_18  and  O_19
REMARK    8  A    between atoms: O_20  and  C_21
REMARK                            x       y       z     vdW  Elec       q    Type
REMARK                         _______ _______ _______ _____ _____    ______ ____
ROOT
ATOM      1  C   LIG A   1      -7.626   0.940 124.557  0.00  0.00    +0.105 A 
ATOM      2  C   LIG A   1      -8.554   0.936 125.617  0.00  0.00    +0.138 A 
ATOM      3  C   LIG A   1      -9.259  -0.242 125.919  0.00  0.00    +0.092 A 
ATOM      4  C   LIG A   1      -9.011  -1.434 125.236  0.00  0.00    +0.127 A 
ATOM      5  C   LIG A   1      -8.073  -1.445 124.210  0.00  0.00    +0.092 A 
ATOM      6  C   LIG A   1      -7.405  -0.264 123.861  0.00  0.00    +0.135 A 
ENDROOT
BRANCH   1   7
ATOM      7  C   LIG A   1      -6.794   2.141 124.234  0.00  0.00    +0.193 C 
ATOM      8  O   LIG A   1      -5.916   2.524 125.013  0.00  0.00    -0.287 OA
BRANCH   7   9
ATOM      9  C   LIG A   1      -7.053   2.885 122.965  0.00  0.00    +0.052 C 
ATOM     10  C   LIG A   1      -6.033   3.136 122.128  0.00  0.00    +0.012 C 
BRANCH  10  11
ATOM     11  C   LIG A   1      -6.177   3.910 120.892  0.00  0.00    -0.025 A 
ATOM     12  C   LIG A   1      -5.185   4.814 120.500  0.00  0.00    +0.008 A 
ATOM     13  C   LIG A   1      -5.346   5.583 119.343  0.00  0.00    +0.001 A 
ATOM     14  C   LIG A   1      -6.500   5.452 118.571  0.00  0.00    +0.000 A 
ATOM     15  C   LIG A   1      -7.491   4.549 118.952  0.00  0.00    +0.001 A 
ATOM     16  C   LIG A   1      -7.331   3.781 120.109  0.00  0.00    +0.008 A 
ENDBRANCH  10  11
ENDBRANCH   7   9
ENDBRANCH   1   7
BRANCH   2  17
ATOM     17  O   LIG A   1      -8.758   2.102 126.312  0.00  0.00    -0.494 OA
ATOM     18  C   LIG A   1      -8.308   2.118 127.664  0.00  0.00    +0.277 C 
ENDBRANCH   2  17
BRANCH   6  19
ATOM     19  O   LIG A   1      -6.554  -0.301 122.789  0.00  0.00    -0.506 OA
ATOM     20  H   LIG A   1      -5.666  -0.575 123.070  0.00  0.00    +0.292 HD
ENDBRANCH   6  19
BRANCH   4  21
ATOM     21  O   LIG A   1      -9.750  -2.506 125.659  0.00  0.00    -0.495 OA
ATOM     22  C   LIG A   1      -9.163  -3.349 126.644  0.00  0.00    +0.277 C 
ENDBRANCH   4  21
TORSDOF 6
ENDMDL
MODEL 7
REMARK VINA RESULT:      -6.5      3.211      6.806
REMARK  Name = NuBBE_2433
REMARK  8 active torsions:
REMARK  status: ('A' for Active; 'I' for Inactive)
REMARK    1  A    between atoms: C_1  and  C_3
REMARK    2  A    between atoms: C_1  and  C_11
REMARK    3  A    between atoms: C_4  and  C_5
REMARK    4  A    between atoms: C_12  and  O_13
REMARK    5  A    between atoms: O_13  and  C_14
REMARK    6  A    between atoms: C_16  and  O_20
REMARK    7  A    between atoms: C_18  and  O_19
REMARK    8  A    between atoms: O_20  and  C_21
REMARK                            x       y       z     vdW  Elec       q    Type
REMARK                         _______ _______ _______ _____ _____    ______ ____
ROOT
ATOM      1  C   LIG A   1      -8.271   4.149 132.104  0.00  0.00    +0.105 A 
ATOM      2  C   LIG A   1      -7.647   3.483 131.031  0.00  0.00    +0.138 A 
ATOM      3  C   LIG A   1      -7.875   2.109 130.839  0.00  0.00    +0.092 A 
ATOM      4  C   LIG A   1      -8.764   1.399 131.648  0.00  0.00    +0.127 A 
ATOM      5  C   LIG A   1      -9.407   2.057 132.690  0.00  0.00    +0.092 A 
ATOM      6  C   LIG A   1      -9.145   3.413 132.927  0.00  0.00    +0.135 A 
ENDROOT
BRANCH   1   7
ATOM      7  C   LIG A   1      -8.126   5.623 132.317  0.00  0.00    +0.193 C 
ATOM      8  O   LIG A   1      -7.458   6.058 133.260  0.00  0.00    -0.287 OA
BRANCH   7   9
ATOM      9  C   LIG A   1      -8.818   6.564 131.386  0.00  0.00    +0.052 C 
ATOM     10  C   LIG A   1     -10.126   6.393 131.129  0.00  0.00    +0.012 C 
BRANCH  10  11
ATOM     11  C   LIG A   1     -10.877   7.225 130.185  0.00  0.00    -0.025 A 
ATOM     12  C   LIG A   1     -10.281   7.669 129.000  0.00  0.00    +0.008 A 
ATOM     13  C   LIG A   1     -10.986   8.500 128.123  0.00  0.00    +0.001 A 
ATOM     14  C   LIG A   1     -12.290   8.890 128.425  0.00  0.00    +0.000 A 
ATOM     15  C   LIG A   1     -12.893   8.448 129.601  0.00  0.00    +0.001 A 
ATOM     16  C   LIG A   1     -12.188   7.618 130.479  0.00  0.00    +0.008 A 
ENDBRANCH  10  11
ENDBRANCH   7   9
ENDBRANCH   1   7
BRANCH   2  17
ATOM     17  O   LIG A   1      -6.810   4.201 130.214  0.00  0.00    -0.494 OA
ATOM     18  C   LIG A   1      -7.161   4.246 128.833  0.00  0.00    +0.277 C 
ENDBRANCH   2  17
BRANCH   6  19
ATOM     19  O   LIG A   1      -9.735   4.000 134.014  0.00  0.00    -0.506 OA
ATOM     20  H   LIG A   1      -9.551   4.953 134.027  0.00  0.00    +0.292 HD
ENDBRANCH   6  19
BRANCH   4  21
ATOM     21  O   LIG A   1      -8.907   0.077 131.325  0.00  0.00    -0.495 OA
ATOM     22  C   LIG A   1      -8.263  -0.870 132.170  0.00  0.00    +0.277 C 
ENDBRANCH   4  21
TORSDOF 6
ENDMDL
MODEL 8
REMARK VINA RESULT:      -6.3      6.373      8.480
REMARK  Name = NuBBE_2433
REMARK  8 active torsions:
REMARK  status: ('A' for Active; 'I' for Inactive)
REMARK    1  A    between atoms: C_1  and  C_3
REMARK    2  A    between atoms: C_1  and  C_11
REMARK    3  A    between atoms: C_4  and  C_5
REMARK    4  A    between atoms: C_12  and  O_13
REMARK    5  A    between atoms: O_13  and  C_14
REMARK    6  A    between atoms: C_16  and  O_20
REMARK    7  A    between atoms: C_18  and  O_19
REMARK    8  A    between atoms: O_20  and  C_21
REMARK                            x       y       z     vdW  Elec       q    Type
REMARK                         _______ _______ _______ _____ _____    ______ ____
ROOT
ATOM      1  C   LIG A   1      -8.724   2.756 124.654  0.00  0.00    +0.105 A 
ATOM      2  C   LIG A   1      -9.041   1.635 125.446  0.00  0.00    +0.138 A 
ATOM      3  C   LIG A   1      -9.479   0.450 124.829  0.00  0.00    +0.092 A 
ATOM      4  C   LIG A   1      -9.542   0.334 123.439  0.00  0.00    +0.127 A 
ATOM      5  C   LIG A   1      -9.200   1.427 122.650  0.00  0.00    +0.092 A 
ATOM      6  C   LIG A   1      -8.817   2.631 123.255  0.00  0.00    +0.135 A 
ENDROOT
BRANCH   1   7
ATOM      7  C   LIG A   1      -8.184   4.020 125.246  0.00  0.00    +0.193 C 
ATOM      8  O   LIG A   1      -8.946   4.937 125.571  0.00  0.00    -0.287 OA
BRANCH   7   9
ATOM      9  C   LIG A   1      -6.708   4.170 125.419  0.00  0.00    +0.052 C 
ATOM     10  C   LIG A   1      -6.114   3.640 126.501  0.00  0.00    +0.012 C 
BRANCH  10  11
ATOM     11  C   LIG A   1      -4.684   3.786 126.787  0.00  0.00    -0.025 A 
ATOM     12  C   LIG A   1      -3.780   2.785 126.420  0.00  0.00    +0.008 A 
ATOM     13  C   LIG A   1      -2.423   2.909 126.734  0.00  0.00    +0.001 A 
ATOM     14  C   LIG A   1      -1.962   4.034 127.417  0.00  0.00    +0.000 A 
ATOM     15  C   LIG A   1      -2.856   5.039 127.781  0.00  0.00    +0.001 A 
ATOM     16  C   LIG A   1      -4.213   4.916 127.469  0.00  0.00    +0.008 A 
ENDBRANCH  10  11
ENDBRANCH   7   9
ENDBRANCH   1   7
BRANCH   2  17
ATOM     17  O   LIG A   1      -8.933   1.746 126.810  0.00  0.00    -0.494 OA
ATOM     18  C   LIG A   1      -8.193   0.722 127.469  0.00  0.00    +0.277 C 
ENDBRANCH   2  17
BRANCH   6  19
ATOM     19  O   LIG A   1      -8.571   3.706 122.443  0.00  0.00    -0.506 OA
ATOM     20  H   LIG A   1      -8.388   3.412 121.536  0.00  0.00    +0.292 HD
ENDBRANCH   6  19
BRANCH   4  21
ATOM     21  O   LIG A   1      -9.957  -0.887 122.981  0.00  0.00    -0.495 OA
ATOM     22  C   LIG A   1      -9.043  -1.971 123.107  0.00  0.00    +0.277 C 
ENDBRANCH   4  21
TORSDOF 6
ENDMDL
MODEL 9
REMARK VINA RESULT:      -6.3      7.498      9.534
REMARK  Name = NuBBE_2433
REMARK  8 active torsions:
REMARK  status: ('A' for Active; 'I' for Inactive)
REMARK    1  A    between atoms: C_1  and  C_3
REMARK    2  A    between atoms: C_1  and  C_11
REMARK    3  A    between atoms: C_4  and  C_5
REMARK    4  A    between atoms: C_12  and  O_13
REMARK    5  A    between atoms: O_13  and  C_14
REMARK    6  A    between atoms: C_16  and  O_20
REMARK    7  A    between atoms: C_18  and  O_19
REMARK    8  A    between atoms: O_20  and  C_21
REMARK                            x       y       z     vdW  Elec       q    Type
REMARK                         _______ _______ _______ _____ _____    ______ ____
ROOT
ATOM      1  C   LIG A   1      -7.798   2.764 124.566  0.00  0.00    +0.105 A 
ATOM      2  C   LIG A   1      -8.577   2.565 123.409  0.00  0.00    +0.138 A 
ATOM      3  C   LIG A   1      -8.070   2.949 122.155  0.00  0.00    +0.092 A 
ATOM      4  C   LIG A   1      -6.779   3.463 122.019  0.00  0.00    +0.127 A 
ATOM      5  C   LIG A   1      -5.993   3.633 123.153  0.00  0.00    +0.092 A 
ATOM      6  C   LIG A   1      -6.508   3.307 124.415  0.00  0.00    +0.135 A 
ENDROOT
BRANCH   1   7
ATOM      7  C   LIG A   1      -8.253   2.311 125.918  0.00  0.00    +0.193 C 
ATOM      8  O   LIG A   1      -8.325   3.110 126.856  0.00  0.00    -0.287 OA
BRANCH   7   9
ATOM      9  C   LIG A   1      -8.595   0.872 126.125  0.00  0.00    +0.052 C 
ATOM     10  C   LIG A   1      -7.935   0.165 127.057  0.00  0.00    +0.012 C 
BRANCH  10  11
ATOM     11  C   LIG A   1      -8.157  -1.265 127.291  0.00  0.00    -0.025 A 
ATOM     12  C   LIG A   1      -8.750  -2.061 126.307  0.00  0.00    +0.008 A 
ATOM     13  C   LIG A   1      -9.001  -3.416 126.551  0.00  0.00    +0.001 A 
ATOM     14  C   LIG A   1      -8.659  -3.981 127.779  0.00  0.00    +0.000 A 
ATOM     15  C   LIG A   1      -8.063  -3.195 128.763  0.00  0.00    +0.001 A 
ATOM     16  C   LIG A   1      -7.813  -1.840 128.521  0.00  0.00    +0.008 A 
ENDBRANCH  10  11
ENDBRANCH   7   9
ENDBRANCH   1   7
BRANCH   2  17
ATOM     17  O   LIG A   1      -9.828   2.017 123.549  0.00  0.00    -0.494 OA
ATOM     18  C   LIG A   1     -10.108   0.870 122.751  0.00  0.00    +0.277 C 
ENDBRANCH   2  17
BRANCH   6  19
ATOM     19  O   LIG A   1      -5.731   3.571 125.512  0.00  0.00    -0.506 OA
ATOM     20  H   LIG A   1      -6.284   3.658 126.305  0.00  0.00    +0.292 HD
ENDBRANCH   6  19
BRANCH   4  21
ATOM     21  O   LIG A   1      -6.411   3.764 120.736  0.00  0.00    -0.495 OA
ATOM     22  C   LIG A   1      -7.447   4.154 119.840  0.00  0.00    +0.277 C 
ENDBRANCH   4  21
TORSDOF 6
ENDMDL
