MODEL 1
REMARK VINA RESULT:      -7.6      0.000      0.000
REMARK  Name = NuBBE_2388
REMARK  10 active torsions:
REMARK  status: ('A' for Active; 'I' for Inactive)
REMARK    1  A    between atoms: C_1  and  C_2
REMARK    2  A    between atoms: C_5  and  C_6
REMARK    3  A    between atoms: C_5  and  C_9
REMARK    4  A    between atoms: C_6  and  O_8
REMARK    5  A    between atoms: C_17  and  C_19
REMARK    6  A    between atoms: C_19  and  C_20
REMARK    7  A    between atoms: C_20  and  C_21
REMARK    8  A    between atoms: C_21  and  C_26
REMARK    9  A    between atoms: C_22  and  C_23
REMARK   10  A    between atoms: C_23  and  O_25
REMARK                            x       y       z     vdW  Elec       q    Type
REMARK                         _______ _______ _______ _____ _____    ______ ____
ROOT
ATOM      1  C   LIG A   1      -6.881  -0.669 126.469  0.00  0.00    +0.012 C 
ATOM      2  C   LIG A   1      -6.707  -2.193 126.262  0.00  0.00    -0.022 C 
ATOM      3  C   LIG A   1      -7.963  -2.869 125.561  0.00  0.00    +0.012 C 
ATOM      4  C   LIG A   1      -8.289  -2.327 124.118  0.00  0.00    +0.068 C 
ATOM      5  C   LIG A   1      -9.417  -3.159 123.452  0.00  0.00    +0.023 C 
ATOM      6  C   LIG A   1      -7.019  -2.542 123.258  0.00  0.00    +0.018 C 
ATOM      7  C   LIG A   1      -5.735  -1.984 123.869  0.00  0.00    +0.002 C 
ATOM      8  C   LIG A   1      -5.498  -2.439 125.311  0.00  0.00    +0.007 C 
ATOM      9  C   LIG A   1      -9.184  -2.997 126.496  0.00  0.00    +0.009 C 
ATOM     10  C   LIG A   1      -8.808  -3.745 127.770  0.00  0.00    +0.031 C 
ATOM     11  C   LIG A   1      -7.743  -2.952 128.475  0.00  0.00    -0.073 C 
ATOM     12  C   LIG A   1      -8.034  -2.345 129.638  0.00  0.00    +0.008 C 
ATOM     13  C   LIG A   1      -6.432  -2.869 127.690  0.00  0.00    +0.021 C 
ENDROOT
BRANCH   4  14
ATOM     14  C   LIG A   1      -8.865  -0.894 124.123  0.00  0.00    +0.311 C 
ATOM     15  O   LIG A   1      -9.816  -0.558 124.819  0.00  0.00    -0.250 OA
BRANCH  14  16
ATOM     16  O   LIG A   1      -8.310  -0.003 123.278  0.00  0.00    -0.480 OA
ATOM     17  H   LIG A   1      -8.852   0.318 122.539  0.00  0.00    +0.295 HD
ENDBRANCH  14  16
ENDBRANCH   4  14
BRANCH  13  18
ATOM     18  C   LIG A   1      -5.250  -2.220 128.473  0.00  0.00    +0.013 C 
BRANCH  18  19
ATOM     19  C   LIG A   1      -4.171  -3.212 128.948  0.00  0.00    +0.031 C 
BRANCH  19  20
ATOM     20  C   LIG A   1      -4.337  -3.618 130.404  0.00  0.00    -0.066 C 
ATOM     21  C   LIG A   1      -3.692  -2.944 131.394  0.00  0.00    +0.090 C 
ATOM     22  C   LIG A   1      -5.298  -4.744 130.686  0.00  0.00    +0.039 C 
BRANCH  21  23
ATOM     23  C   LIG A   1      -3.810  -3.231 132.829  0.00  0.00    +0.330 C 
ATOM     24  O   LIG A   1      -4.678  -2.806 133.580  0.00  0.00    -0.246 OA
BRANCH  23  25
ATOM     25  O   LIG A   1      -2.812  -4.042 133.251  0.00  0.00    -0.477 OA
ATOM     26  H   LIG A   1      -1.914  -3.810 132.938  0.00  0.00    +0.295 HD
ENDBRANCH  23  25
ENDBRANCH  21  23
ENDBRANCH  19  20
ENDBRANCH  18  19
ENDBRANCH  13  18
TORSDOF 7
ENDMDL
MODEL 2
REMARK VINA RESULT:      -7.2      2.777      5.072
REMARK  Name = NuBBE_2388
REMARK  10 active torsions:
REMARK  status: ('A' for Active; 'I' for Inactive)
REMARK    1  A    between atoms: C_1  and  C_2
REMARK    2  A    between atoms: C_5  and  C_6
REMARK    3  A    between atoms: C_5  and  C_9
REMARK    4  A    between atoms: C_6  and  O_8
REMARK    5  A    between atoms: C_17  and  C_19
REMARK    6  A    between atoms: C_19  and  C_20
REMARK    7  A    between atoms: C_20  and  C_21
REMARK    8  A    between atoms: C_21  and  C_26
REMARK    9  A    between atoms: C_22  and  C_23
REMARK   10  A    between atoms: C_23  and  O_25
REMARK                            x       y       z     vdW  Elec       q    Type
REMARK                         _______ _______ _______ _____ _____    ______ ____
ROOT
ATOM      1  C   LIG A   1      -9.633   0.900 125.328  0.00  0.00    +0.012 C 
ATOM      2  C   LIG A   1      -8.213   0.366 125.634  0.00  0.00    -0.022 C 
ATOM      3  C   LIG A   1      -7.070   1.201 124.910  0.00  0.00    +0.012 C 
ATOM      4  C   LIG A   1      -6.998   2.720 125.320  0.00  0.00    +0.068 C 
ATOM      5  C   LIG A   1      -5.754   3.407 124.696  0.00  0.00    +0.023 C 
ATOM      6  C   LIG A   1      -6.799   2.764 126.855  0.00  0.00    +0.018 C 
ATOM      7  C   LIG A   1      -7.811   1.941 127.652  0.00  0.00    +0.002 C 
ATOM      8  C   LIG A   1      -7.941   0.497 127.162  0.00  0.00    +0.007 C 
ATOM      9  C   LIG A   1      -6.992   0.935 123.393  0.00  0.00    +0.009 C 
ATOM     10  C   LIG A   1      -6.831  -0.556 123.117  0.00  0.00    +0.031 C 
ATOM     11  C   LIG A   1      -8.038  -1.262 123.668  0.00  0.00    -0.073 C 
ATOM     12  C   LIG A   1      -8.921  -1.817 122.820  0.00  0.00    +0.008 C 
ATOM     13  C   LIG A   1      -8.146  -1.174 125.191  0.00  0.00    +0.021 C 
ENDROOT
BRANCH   4  14
ATOM     14  C   LIG A   1      -8.175   3.555 124.768  0.00  0.00    +0.311 C 
ATOM     15  O   LIG A   1      -8.951   4.173 125.487  0.00  0.00    -0.250 OA
BRANCH  14  16
ATOM     16  O   LIG A   1      -8.364   3.546 123.434  0.00  0.00    -0.480 OA
ATOM     17  H   LIG A   1      -7.580   3.609 122.865  0.00  0.00    +0.295 HD
ENDBRANCH  14  16
ENDBRANCH   4  14
BRANCH  13  18
ATOM     18  C   LIG A   1      -9.276  -2.053 125.810  0.00  0.00    +0.013 C 
BRANCH  18  19
ATOM     19  C   LIG A   1      -8.830  -3.466 126.238  0.00  0.00    +0.031 C 
BRANCH  19  20
ATOM     20  C   LIG A   1      -8.660  -3.603 127.743  0.00  0.00    -0.066 C 
ATOM     21  C   LIG A   1      -7.589  -3.052 128.377  0.00  0.00    +0.090 C 
ATOM     22  C   LIG A   1      -9.763  -4.310 128.486  0.00  0.00    +0.039 C 
BRANCH  21  23
ATOM     23  C   LIG A   1      -7.349  -3.097 129.825  0.00  0.00    +0.330 C 
ATOM     24  O   LIG A   1      -7.801  -2.319 130.655  0.00  0.00    -0.246 OA
BRANCH  23  25
ATOM     25  O   LIG A   1      -6.535  -4.126 130.155  0.00  0.00    -0.477 OA
ATOM     26  H   LIG A   1      -5.641  -4.107 129.758  0.00  0.00    +0.295 HD
ENDBRANCH  23  25
ENDBRANCH  21  23
ENDBRANCH  19  20
ENDBRANCH  18  19
ENDBRANCH  13  18
TORSDOF 7
ENDMDL
MODEL 3
REMARK VINA RESULT:      -7.0      8.822     11.846
REMARK  Name = NuBBE_2388
REMARK  10 active torsions:
REMARK  status: ('A' for Active; 'I' for Inactive)
REMARK    1  A    between atoms: C_1  and  C_2
REMARK    2  A    between atoms: C_5  and  C_6
REMARK    3  A    between atoms: C_5  and  C_9
REMARK    4  A    between atoms: C_6  and  O_8
REMARK    5  A    between atoms: C_17  and  C_19
REMARK    6  A    between atoms: C_19  and  C_20
REMARK    7  A    between atoms: C_20  and  C_21
REMARK    8  A    between atoms: C_21  and  C_26
REMARK    9  A    between atoms: C_22  and  C_23
REMARK   10  A    between atoms: C_23  and  O_25
REMARK                            x       y       z     vdW  Elec       q    Type
REMARK                         _______ _______ _______ _____ _____    ______ ____
ROOT
ATOM      1  C   LIG A   1      -6.581   4.477 131.279  0.00  0.00    +0.012 C 
ATOM      2  C   LIG A   1      -6.778   5.800 132.058  0.00  0.00    -0.022 C 
ATOM      3  C   LIG A   1      -5.737   5.978 133.246  0.00  0.00    +0.012 C 
ATOM      4  C   LIG A   1      -4.226   6.023 132.802  0.00  0.00    +0.068 C 
ATOM      5  C   LIG A   1      -3.303   6.369 134.002  0.00  0.00    +0.023 C 
ATOM      6  C   LIG A   1      -4.086   7.189 131.792  0.00  0.00    +0.018 C 
ATOM      7  C   LIG A   1      -5.085   7.152 130.636  0.00  0.00    +0.002 C 
ATOM      8  C   LIG A   1      -6.538   6.997 131.091  0.00  0.00    +0.007 C 
ATOM      9  C   LIG A   1      -6.031   5.065 134.453  0.00  0.00    +0.009 C 
ATOM     10  C   LIG A   1      -7.457   5.272 134.949  0.00  0.00    +0.031 C 
ATOM     11  C   LIG A   1      -8.394   4.908 133.830  0.00  0.00    -0.073 C 
ATOM     12  C   LIG A   1      -9.158   3.808 133.942  0.00  0.00    +0.008 C 
ATOM     13  C   LIG A   1      -8.279   5.837 132.620  0.00  0.00    +0.021 C 
ENDROOT
BRANCH   4  14
ATOM     14  C   LIG A   1      -3.691   4.654 132.330  0.00  0.00    +0.311 C 
ATOM     15  O   LIG A   1      -3.716   3.648 133.029  0.00  0.00    -0.250 OA
BRANCH  14  16
ATOM     16  O   LIG A   1      -3.130   4.600 131.105  0.00  0.00    -0.480 OA
ATOM     17  H   LIG A   1      -2.695   5.402 130.771  0.00  0.00    +0.295 HD
ENDBRANCH  14  16
ENDBRANCH   4  14
BRANCH  13  18
ATOM     18  C   LIG A   1      -9.364   5.606 131.524  0.00  0.00    +0.013 C 
BRANCH  18  19
ATOM     19  C   LIG A   1     -10.650   6.437 131.707  0.00  0.00    +0.031 C 
BRANCH  19  20
ATOM     20  C   LIG A   1     -11.170   7.019 130.401  0.00  0.00    -0.066 C 
ATOM     21  C   LIG A   1     -10.393   7.028 129.284  0.00  0.00    +0.090 C 
ATOM     22  C   LIG A   1     -12.594   7.510 130.399  0.00  0.00    +0.039 C 
BRANCH  21  23
ATOM     23  C   LIG A   1     -10.808   7.533 127.969  0.00  0.00    +0.330 C 
ATOM     24  O   LIG A   1     -11.323   6.875 127.074  0.00  0.00    -0.246 OA
BRANCH  23  25
ATOM     25  O   LIG A   1     -10.544   8.855 127.845  0.00  0.00    -0.477 OA
ATOM     26  H   LIG A   1     -10.160   9.288 128.634  0.00  0.00    +0.295 HD
ENDBRANCH  23  25
ENDBRANCH  21  23
ENDBRANCH  19  20
ENDBRANCH  18  19
ENDBRANCH  13  18
TORSDOF 7
ENDMDL
MODEL 4
REMARK VINA RESULT:      -6.8      2.182      7.006
REMARK  Name = NuBBE_2388
REMARK  10 active torsions:
REMARK  status: ('A' for Active; 'I' for Inactive)
REMARK    1  A    between atoms: C_1  and  C_2
REMARK    2  A    between atoms: C_5  and  C_6
REMARK    3  A    between atoms: C_5  and  C_9
REMARK    4  A    between atoms: C_6  and  O_8
REMARK    5  A    between atoms: C_17  and  C_19
REMARK    6  A    between atoms: C_19  and  C_20
REMARK    7  A    between atoms: C_20  and  C_21
REMARK    8  A    between atoms: C_21  and  C_26
REMARK    9  A    between atoms: C_22  and  C_23
REMARK   10  A    between atoms: C_23  and  O_25
REMARK                            x       y       z     vdW  Elec       q    Type
REMARK                         _______ _______ _______ _____ _____    ______ ____
ROOT
ATOM      1  C   LIG A   1      -5.278  -2.439 126.962  0.00  0.00    +0.012 C 
ATOM      2  C   LIG A   1      -6.497  -1.486 126.957  0.00  0.00    -0.022 C 
ATOM      3  C   LIG A   1      -7.544  -1.816 128.107  0.00  0.00    +0.012 C 
ATOM      4  C   LIG A   1      -6.980  -1.699 129.573  0.00  0.00    +0.068 C 
ATOM      5  C   LIG A   1      -8.111  -1.871 130.621  0.00  0.00    +0.023 C 
ATOM      6  C   LIG A   1      -6.447  -0.254 129.737  0.00  0.00    +0.018 C 
ATOM      7  C   LIG A   1      -5.474   0.193 128.646  0.00  0.00    +0.002 C 
ATOM      8  C   LIG A   1      -6.004  -0.033 127.228  0.00  0.00    +0.007 C 
ATOM      9  C   LIG A   1      -8.368  -3.090 127.830  0.00  0.00    +0.009 C 
ATOM     10  C   LIG A   1      -9.062  -2.997 126.476  0.00  0.00    +0.031 C 
ATOM     11  C   LIG A   1      -8.000  -2.871 125.419  0.00  0.00    -0.073 C 
ATOM     12  C   LIG A   1      -7.796  -3.889 124.566  0.00  0.00    +0.008 C 
ATOM     13  C   LIG A   1      -7.200  -1.571 125.519  0.00  0.00    +0.021 C 
ENDROOT
BRANCH   4  14
ATOM     14  C   LIG A   1      -5.989  -2.828 129.934  0.00  0.00    +0.311 C 
ATOM     15  O   LIG A   1      -6.293  -4.014 129.918  0.00  0.00    -0.250 OA
BRANCH  14  16
ATOM     16  O   LIG A   1      -4.754  -2.461 130.331  0.00  0.00    -0.480 OA
ATOM     17  H   LIG A   1      -4.668  -1.639 130.841  0.00  0.00    +0.295 HD
ENDBRANCH  14  16
ENDBRANCH   4  14
BRANCH  13  18
ATOM     18  C   LIG A   1      -6.224  -1.320 124.329  0.00  0.00    +0.013 C 
BRANCH  18  19
ATOM     19  C   LIG A   1      -6.879  -0.697 123.080  0.00  0.00    +0.031 C 
BRANCH  19  20
ATOM     20  C   LIG A   1      -7.880   0.396 123.419  0.00  0.00    -0.066 C 
ATOM     21  C   LIG A   1      -7.459   1.623 123.831  0.00  0.00    +0.090 C 
ATOM     22  C   LIG A   1      -9.335   0.070 123.207  0.00  0.00    +0.039 C 
BRANCH  21  23
ATOM     23  C   LIG A   1      -8.338   2.755 124.149  0.00  0.00    +0.330 C 
ATOM     24  O   LIG A   1      -8.981   2.900 125.181  0.00  0.00    -0.246 OA
BRANCH  23  25
ATOM     25  O   LIG A   1      -8.368   3.653 123.137  0.00  0.00    -0.477 OA
ATOM     26  H   LIG A   1      -7.769   3.468 122.386  0.00  0.00    +0.295 HD
ENDBRANCH  23  25
ENDBRANCH  21  23
ENDBRANCH  19  20
ENDBRANCH  18  19
ENDBRANCH  13  18
TORSDOF 7
ENDMDL
MODEL 5
REMARK VINA RESULT:      -6.8      4.078      6.091
REMARK  Name = NuBBE_2388
REMARK  10 active torsions:
REMARK  status: ('A' for Active; 'I' for Inactive)
REMARK    1  A    between atoms: C_1  and  C_2
REMARK    2  A    between atoms: C_5  and  C_6
REMARK    3  A    between atoms: C_5  and  C_9
REMARK    4  A    between atoms: C_6  and  O_8
REMARK    5  A    between atoms: C_17  and  C_19
REMARK    6  A    between atoms: C_19  and  C_20
REMARK    7  A    between atoms: C_20  and  C_21
REMARK    8  A    between atoms: C_21  and  C_26
REMARK    9  A    between atoms: C_22  and  C_23
REMARK   10  A    between atoms: C_23  and  O_25
REMARK                            x       y       z     vdW  Elec       q    Type
REMARK                         _______ _______ _______ _____ _____    ______ ____
ROOT
ATOM      1  C   LIG A   1      -6.488  -0.372 125.721  0.00  0.00    +0.012 C 
ATOM      2  C   LIG A   1      -7.966  -0.556 126.141  0.00  0.00    -0.022 C 
ATOM      3  C   LIG A   1      -8.879  -1.112 124.964  0.00  0.00    +0.012 C 
ATOM      4  C   LIG A   1      -8.464  -2.528 124.415  0.00  0.00    +0.068 C 
ATOM      5  C   LIG A   1      -9.506  -3.058 123.394  0.00  0.00    +0.023 C 
ATOM      6  C   LIG A   1      -8.492  -3.505 125.616  0.00  0.00    +0.018 C 
ATOM      7  C   LIG A   1      -7.694  -3.039 126.833  0.00  0.00    +0.002 C 
ATOM      8  C   LIG A   1      -8.039  -1.616 127.281  0.00  0.00    +0.007 C 
ATOM      9  C   LIG A   1      -9.177  -0.058 123.878  0.00  0.00    +0.009 C 
ATOM     10  C   LIG A   1      -9.794   1.191 124.498  0.00  0.00    +0.031 C 
ATOM     11  C   LIG A   1      -8.799   1.767 125.467  0.00  0.00    -0.073 C 
ATOM     12  C   LIG A   1      -8.203   2.938 125.183  0.00  0.00    +0.008 C 
ATOM     13  C   LIG A   1      -8.523   0.854 126.663  0.00  0.00    +0.021 C 
ENDROOT
BRANCH   4  14
ATOM     14  C   LIG A   1      -7.153  -2.502 123.597  0.00  0.00    +0.311 C 
ATOM     15  O   LIG A   1      -6.995  -1.796 122.609  0.00  0.00    -0.250 OA
BRANCH  14  16
ATOM     16  O   LIG A   1      -6.170  -3.342 123.981  0.00  0.00    -0.480 OA
ATOM     17  H   LIG A   1      -5.279  -3.186 123.629  0.00  0.00    +0.295 HD
ENDBRANCH  14  16
ENDBRANCH   4  14
BRANCH  13  18
ATOM     18  C   LIG A   1      -7.647   1.499 127.780  0.00  0.00    +0.013 C 
BRANCH  18  19
ATOM     19  C   LIG A   1      -8.321   1.575 129.164  0.00  0.00    +0.031 C 
BRANCH  19  20
ATOM     20  C   LIG A   1      -8.949   2.931 129.443  0.00  0.00    -0.066 C 
ATOM     21  C   LIG A   1     -10.074   3.036 130.203  0.00  0.00    +0.090 C 
ATOM     22  C   LIG A   1      -8.226   4.136 128.900  0.00  0.00    +0.039 C 
BRANCH  21  23
ATOM     23  C   LIG A   1     -10.739   4.295 130.559  0.00  0.00    +0.330 C 
ATOM     24  O   LIG A   1     -11.519   4.923 129.854  0.00  0.00    -0.246 OA
BRANCH  23  25
ATOM     25  O   LIG A   1     -10.377   4.708 131.796  0.00  0.00    -0.477 OA
ATOM     26  H   LIG A   1     -10.140   5.655 131.877  0.00  0.00    +0.295 HD
ENDBRANCH  23  25
ENDBRANCH  21  23
ENDBRANCH  19  20
ENDBRANCH  18  19
ENDBRANCH  13  18
TORSDOF 7
ENDMDL
MODEL 6
REMARK VINA RESULT:      -6.7      1.654      2.682
REMARK  Name = NuBBE_2388
REMARK  10 active torsions:
REMARK  status: ('A' for Active; 'I' for Inactive)
REMARK    1  A    between atoms: C_1  and  C_2
REMARK    2  A    between atoms: C_5  and  C_6
REMARK    3  A    between atoms: C_5  and  C_9
REMARK    4  A    between atoms: C_6  and  O_8
REMARK    5  A    between atoms: C_17  and  C_19
REMARK    6  A    between atoms: C_19  and  C_20
REMARK    7  A    between atoms: C_20  and  C_21
REMARK    8  A    between atoms: C_21  and  C_26
REMARK    9  A    between atoms: C_22  and  C_23
REMARK   10  A    between atoms: C_23  and  O_25
REMARK                            x       y       z     vdW  Elec       q    Type
REMARK                         _______ _______ _______ _____ _____    ______ ____
ROOT
ATOM      1  C   LIG A   1      -6.252  -2.042 125.740  0.00  0.00    +0.012 C 
ATOM      2  C   LIG A   1      -7.753  -2.036 126.117  0.00  0.00    -0.022 C 
ATOM      3  C   LIG A   1      -8.597  -0.985 125.275  0.00  0.00    +0.012 C 
ATOM      4  C   LIG A   1      -8.601  -1.231 123.719  0.00  0.00    +0.068 C 
ATOM      5  C   LIG A   1      -9.582  -0.264 123.005  0.00  0.00    +0.023 C 
ATOM      6  C   LIG A   1      -9.150  -2.661 123.489  0.00  0.00    +0.018 C 
ATOM      7  C   LIG A   1      -8.448  -3.749 124.301  0.00  0.00    +0.002 C 
ATOM      8  C   LIG A   1      -8.361  -3.434 125.797  0.00  0.00    +0.007 C 
ATOM      9  C   LIG A   1      -8.344   0.476 125.700  0.00  0.00    +0.009 C 
ATOM     10  C   LIG A   1      -8.595   0.653 127.193  0.00  0.00    +0.031 C 
ATOM     11  C   LIG A   1      -7.634  -0.237 127.932  0.00  0.00    -0.073 C 
ATOM     12  C   LIG A   1      -6.641   0.317 128.649  0.00  0.00    +0.008 C 
ATOM     13  C   LIG A   1      -7.879  -1.727 127.686  0.00  0.00    +0.021 C 
ENDROOT
BRANCH   4  14
ATOM     14  C   LIG A   1      -7.245  -0.913 123.051  0.00  0.00    +0.311 C 
ATOM     15  O   LIG A   1      -6.716   0.191 123.102  0.00  0.00    -0.250 OA
BRANCH  14  16
ATOM     16  O   LIG A   1      -6.660  -1.900 122.343  0.00  0.00    -0.480 OA
ATOM     17  H   LIG A   1      -6.606  -1.794 121.380  0.00  0.00    +0.295 HD
ENDBRANCH  14  16
ENDBRANCH   4  14
BRANCH  13  18
ATOM     18  C   LIG A   1      -7.027  -2.678 128.582  0.00  0.00    +0.013 C 
BRANCH  18  19
ATOM     19  C   LIG A   1      -7.752  -3.194 129.841  0.00  0.00    +0.031 C 
BRANCH  19  20
ATOM     20  C   LIG A   1      -6.805  -3.463 131.000  0.00  0.00    -0.066 C 
ATOM     21  C   LIG A   1      -5.641  -4.141 130.807  0.00  0.00    +0.090 C 
ATOM     22  C   LIG A   1      -7.191  -2.884 132.337  0.00  0.00    +0.039 C 
BRANCH  21  23
ATOM     23  C   LIG A   1      -4.644  -4.423 131.848  0.00  0.00    +0.330 C 
ATOM     24  O   LIG A   1      -4.760  -5.239 132.754  0.00  0.00    -0.246 OA
BRANCH  23  25
ATOM     25  O   LIG A   1      -3.545  -3.648 131.698  0.00  0.00    -0.477 OA
ATOM     26  H   LIG A   1      -2.690  -4.124 131.663  0.00  0.00    +0.295 HD
ENDBRANCH  23  25
ENDBRANCH  21  23
ENDBRANCH  19  20
ENDBRANCH  18  19
ENDBRANCH  13  18
TORSDOF 7
ENDMDL
MODEL 7
REMARK VINA RESULT:      -6.6      3.204      4.735
REMARK  Name = NuBBE_2388
REMARK  10 active torsions:
REMARK  status: ('A' for Active; 'I' for Inactive)
REMARK    1  A    between atoms: C_1  and  C_2
REMARK    2  A    between atoms: C_5  and  C_6
REMARK    3  A    between atoms: C_5  and  C_9
REMARK    4  A    between atoms: C_6  and  O_8
REMARK    5  A    between atoms: C_17  and  C_19
REMARK    6  A    between atoms: C_19  and  C_20
REMARK    7  A    between atoms: C_20  and  C_21
REMARK    8  A    between atoms: C_21  and  C_26
REMARK    9  A    between atoms: C_22  and  C_23
REMARK   10  A    between atoms: C_23  and  O_25
REMARK                            x       y       z     vdW  Elec       q    Type
REMARK                         _______ _______ _______ _____ _____    ______ ____
ROOT
ATOM      1  C   LIG A   1      -6.624  -0.142 125.547  0.00  0.00    +0.012 C 
ATOM      2  C   LIG A   1      -8.112  -0.356 125.915  0.00  0.00    -0.022 C 
ATOM      3  C   LIG A   1      -8.943  -1.048 124.750  0.00  0.00    +0.012 C 
ATOM      4  C   LIG A   1      -8.444  -2.486 124.344  0.00  0.00    +0.068 C 
ATOM      5  C   LIG A   1      -9.414  -3.145 123.327  0.00  0.00    +0.023 C 
ATOM      6  C   LIG A   1      -8.491  -3.359 125.623  0.00  0.00    +0.018 C 
ATOM      7  C   LIG A   1      -7.773  -2.757 126.830  0.00  0.00    +0.002 C 
ATOM      8  C   LIG A   1      -8.197  -1.319 127.137  0.00  0.00    +0.007 C 
ATOM      9  C   LIG A   1      -9.231  -0.104 123.566  0.00  0.00    +0.009 C 
ATOM     10  C   LIG A   1      -9.927   1.164 124.047  0.00  0.00    +0.031 C 
ATOM     11  C   LIG A   1      -9.004   1.863 125.007  0.00  0.00    -0.073 C 
ATOM     12  C   LIG A   1      -8.443   3.031 124.650  0.00  0.00    +0.008 C 
ATOM     13  C   LIG A   1      -8.750   1.067 126.288  0.00  0.00    +0.021 C 
ENDROOT
BRANCH   4  14
ATOM     14  C   LIG A   1      -7.098  -2.471 123.587  0.00  0.00    +0.311 C 
ATOM     15  O   LIG A   1      -6.918  -1.834 122.556  0.00  0.00    -0.250 OA
BRANCH  14  16
ATOM     16  O   LIG A   1      -6.106  -3.241 124.078  0.00  0.00    -0.480 OA
ATOM     17  H   LIG A   1      -6.305  -3.798 124.848  0.00  0.00    +0.295 HD
ENDBRANCH  14  16
ENDBRANCH   4  14
BRANCH  13  18
ATOM     18  C   LIG A   1      -7.955   1.842 127.383  0.00  0.00    +0.013 C 
BRANCH  18  19
ATOM     19  C   LIG A   1      -8.714   2.038 128.711  0.00  0.00    +0.031 C 
BRANCH  19  20
ATOM     20  C   LIG A   1      -8.033   1.357 129.888  0.00  0.00    -0.066 C 
ATOM     21  C   LIG A   1      -8.714   1.110 131.040  0.00  0.00    +0.090 C 
ATOM     22  C   LIG A   1      -6.607   0.916 129.682  0.00  0.00    +0.039 C 
BRANCH  21  23
ATOM     23  C   LIG A   1      -8.163   0.430 132.219  0.00  0.00    +0.330 C 
ATOM     24  O   LIG A   1      -7.620   0.970 133.174  0.00  0.00    -0.246 OA
BRANCH  23  25
ATOM     25  O   LIG A   1      -8.318  -0.911 132.130  0.00  0.00    -0.477 OA
ATOM     26  H   LIG A   1      -8.239  -1.290 131.231  0.00  0.00    +0.295 HD
ENDBRANCH  23  25
ENDBRANCH  21  23
ENDBRANCH  19  20
ENDBRANCH  18  19
ENDBRANCH  13  18
TORSDOF 7
ENDMDL
MODEL 8
REMARK VINA RESULT:      -6.5      1.853      7.956
REMARK  Name = NuBBE_2388
REMARK  10 active torsions:
REMARK  status: ('A' for Active; 'I' for Inactive)
REMARK    1  A    between atoms: C_1  and  C_2
REMARK    2  A    between atoms: C_5  and  C_6
REMARK    3  A    between atoms: C_5  and  C_9
REMARK    4  A    between atoms: C_6  and  O_8
REMARK    5  A    between atoms: C_17  and  C_19
REMARK    6  A    between atoms: C_19  and  C_20
REMARK    7  A    between atoms: C_20  and  C_21
REMARK    8  A    between atoms: C_21  and  C_26
REMARK    9  A    between atoms: C_22  and  C_23
REMARK   10  A    between atoms: C_23  and  O_25
REMARK                            x       y       z     vdW  Elec       q    Type
REMARK                         _______ _______ _______ _____ _____    ______ ____
ROOT
ATOM      1  C   LIG A   1      -6.629  -1.014 130.875  0.00  0.00    +0.012 C 
ATOM      2  C   LIG A   1      -6.405  -2.543 130.785  0.00  0.00    -0.022 C 
ATOM      3  C   LIG A   1      -4.969  -2.988 131.301  0.00  0.00    +0.012 C 
ATOM      4  C   LIG A   1      -4.673  -2.652 132.812  0.00  0.00    +0.068 C 
ATOM      5  C   LIG A   1      -3.325  -3.272 133.267  0.00  0.00    +0.023 C 
ATOM      6  C   LIG A   1      -5.778  -3.339 133.652  0.00  0.00    +0.018 C 
ATOM      7  C   LIG A   1      -7.205  -3.028 133.202  0.00  0.00    +0.002 C 
ATOM      8  C   LIG A   1      -7.437  -3.260 131.707  0.00  0.00    +0.007 C 
ATOM      9  C   LIG A   1      -3.833  -2.627 130.322  0.00  0.00    +0.009 C 
ATOM     10  C   LIG A   1      -4.114  -3.202 128.939  0.00  0.00    +0.031 C 
ATOM     11  C   LIG A   1      -5.394  -2.596 128.436  0.00  0.00    -0.073 C 
ATOM     12  C   LIG A   1      -5.355  -1.735 127.405  0.00  0.00    +0.008 C 
ATOM     13  C   LIG A   1      -6.618  -2.997 129.262  0.00  0.00    +0.021 C 
ENDROOT
BRANCH   4  14
ATOM     14  C   LIG A   1      -4.471  -1.142 133.069  0.00  0.00    +0.311 C 
ATOM     15  O   LIG A   1      -3.605  -0.479 132.511  0.00  0.00    -0.250 OA
BRANCH  14  16
ATOM     16  O   LIG A   1      -5.264  -0.562 133.991  0.00  0.00    -0.480 OA
ATOM     17  H   LIG A   1      -4.859   0.081 134.596  0.00  0.00    +0.295 HD
ENDBRANCH  14  16
ENDBRANCH   4  14
BRANCH  13  18
ATOM     18  C   LIG A   1      -7.982  -2.543 128.658  0.00  0.00    +0.013 C 
BRANCH  18  19
ATOM     19  C   LIG A   1      -8.583  -3.516 127.624  0.00  0.00    +0.031 C 
BRANCH  19  20
ATOM     20  C   LIG A   1      -8.733  -2.896 126.244  0.00  0.00    -0.066 C 
ATOM     21  C   LIG A   1      -8.735  -3.673 125.127  0.00  0.00    +0.090 C 
ATOM     22  C   LIG A   1      -8.948  -1.406 126.192  0.00  0.00    +0.039 C 
BRANCH  21  23
ATOM     23  C   LIG A   1      -8.906  -3.181 123.754  0.00  0.00    +0.330 C 
ATOM     24  O   LIG A   1      -8.043  -2.652 123.065  0.00  0.00    -0.246 OA
BRANCH  23  25
ATOM     25  O   LIG A   1     -10.173  -3.373 123.319  0.00  0.00    -0.477 OA
ATOM     26  H   LIG A   1     -10.860  -2.825 123.750  0.00  0.00    +0.295 HD
ENDBRANCH  23  25
ENDBRANCH  21  23
ENDBRANCH  19  20
ENDBRANCH  18  19
ENDBRANCH  13  18
TORSDOF 7
ENDMDL
MODEL 9
REMARK VINA RESULT:      -6.5      2.146      7.349
REMARK  Name = NuBBE_2388
REMARK  10 active torsions:
REMARK  status: ('A' for Active; 'I' for Inactive)
REMARK    1  A    between atoms: C_1  and  C_2
REMARK    2  A    between atoms: C_5  and  C_6
REMARK    3  A    between atoms: C_5  and  C_9
REMARK    4  A    between atoms: C_6  and  O_8
REMARK    5  A    between atoms: C_17  and  C_19
REMARK    6  A    between atoms: C_19  and  C_20
REMARK    7  A    between atoms: C_20  and  C_21
REMARK    8  A    between atoms: C_21  and  C_26
REMARK    9  A    between atoms: C_22  and  C_23
REMARK   10  A    between atoms: C_23  and  O_25
REMARK                            x       y       z     vdW  Elec       q    Type
REMARK                         _______ _______ _______ _____ _____    ______ ____
ROOT
ATOM      1  C   LIG A   1      -5.309  -0.635 130.647  0.00  0.00    +0.012 C 
ATOM      2  C   LIG A   1      -6.448  -1.607 130.253  0.00  0.00    -0.022 C 
ATOM      3  C   LIG A   1      -6.914  -2.534 131.458  0.00  0.00    +0.012 C 
ATOM      4  C   LIG A   1      -7.490  -1.762 132.704  0.00  0.00    +0.068 C 
ATOM      5  C   LIG A   1      -8.072  -2.749 133.751  0.00  0.00    +0.023 C 
ATOM      6  C   LIG A   1      -8.680  -0.910 132.197  0.00  0.00    +0.018 C 
ATOM      7  C   LIG A   1      -8.360  -0.022 130.995  0.00  0.00    +0.002 C 
ATOM      8  C   LIG A   1      -7.700  -0.777 129.838  0.00  0.00    +0.007 C 
ATOM      9  C   LIG A   1      -5.899  -3.644 131.797  0.00  0.00    +0.009 C 
ATOM     10  C   LIG A   1      -5.585  -4.480 130.561  0.00  0.00    +0.031 C 
ATOM     11  C   LIG A   1      -4.977  -3.571 129.529  0.00  0.00    -0.073 C 
ATOM     12  C   LIG A   1      -3.679  -3.711 129.210  0.00  0.00    +0.008 C 
ATOM     13  C   LIG A   1      -5.946  -2.502 129.021  0.00  0.00    +0.021 C 
ENDROOT
BRANCH   4  14
ATOM     14  C   LIG A   1      -6.408  -1.001 133.501  0.00  0.00    +0.311 C 
ATOM     15  O   LIG A   1      -5.380  -1.530 133.907  0.00  0.00    -0.250 OA
BRANCH  14  16
ATOM     16  O   LIG A   1      -6.653   0.292 133.794  0.00  0.00    -0.480 OA
ATOM     17  H   LIG A   1      -5.899   0.848 134.052  0.00  0.00    +0.295 HD
ENDBRANCH  14  16
ENDBRANCH   4  14
BRANCH  13  18
ATOM     18  C   LIG A   1      -5.412  -1.667 127.817  0.00  0.00    +0.013 C 
BRANCH  18  19
ATOM     19  C   LIG A   1      -5.698  -2.280 126.432  0.00  0.00    +0.031 C 
BRANCH  19  20
ATOM     20  C   LIG A   1      -7.093  -1.957 125.918  0.00  0.00    -0.066 C 
ATOM     21  C   LIG A   1      -7.839  -2.903 125.285  0.00  0.00    +0.090 C 
ATOM     22  C   LIG A   1      -7.617  -0.574 126.208  0.00  0.00    +0.039 C 
BRANCH  21  23
ATOM     23  C   LIG A   1      -9.204  -2.706 124.783  0.00  0.00    +0.330 C 
ATOM     24  O   LIG A   1      -9.511  -2.318 123.663  0.00  0.00    -0.246 OA
BRANCH  23  25
ATOM     25  O   LIG A   1     -10.124  -3.004 125.730  0.00  0.00    -0.477 OA
ATOM     26  H   LIG A   1      -9.894  -2.741 126.645  0.00  0.00    +0.295 HD
ENDBRANCH  23  25
ENDBRANCH  21  23
ENDBRANCH  19  20
ENDBRANCH  18  19
ENDBRANCH  13  18
TORSDOF 7
ENDMDL
