MODEL 1
REMARK VINA RESULT:      -7.6      0.000      0.000
REMARK  Name = NuBBE_1304
REMARK  10 active torsions:
REMARK  status: ('A' for Active; 'I' for Inactive)
REMARK    1  A    between atoms: C_2  and  C_3
REMARK    2  A    between atoms: C_2  and  C_12
REMARK    3  A    between atoms: C_12  and  C_14
REMARK    4  A    between atoms: C_12  and  C_15
REMARK    5  A    between atoms: C_15  and  C_17
REMARK    6  A    between atoms: C_15  and  C_18
REMARK    7  A    between atoms: C_18  and  C_19
REMARK    8  A    between atoms: C_22  and  O_23
REMARK    9  A    between atoms: C_24  and  O_25
REMARK   10  A    between atoms: O_25  and  C_26
REMARK                            x       y       z     vdW  Elec       q    Type
REMARK                         _______ _______ _______ _____ _____    ______ ____
ROOT
ATOM      1  C   LIG A   1      -8.047  -3.067 124.572  0.00  0.00    +0.060 C 
ATOM      2  C   LIG A   1      -9.120  -3.273 123.495  0.00  0.00    +0.016 C 
ENDROOT
BRANCH   1   4
ATOM      3  O   LIG A   1      -9.800  -1.808 125.728  0.00  0.00    -0.292 OA
ATOM      4  C   LIG A   1      -8.721  -2.389 125.786  0.00  0.00    +0.166 C 
BRANCH   4   5
ATOM      5  C   LIG A   1      -8.029  -2.518 127.125  0.00  0.00    +0.021 A 
ATOM      6  C   LIG A   1      -8.551  -3.408 128.095  0.00  0.00    +0.015 A 
ATOM      7  C   LIG A   1      -7.925  -3.565 129.339  0.00  0.00    +0.050 A 
ATOM      8  C   LIG A   1      -6.768  -2.850 129.570  0.00  0.00    +0.166 A 
ATOM      9  O   LIG A   1      -5.993  -2.903 130.685  0.00  0.00    -0.453 OA
ATOM     10  C   LIG A   1      -4.891  -2.054 130.293  0.00  0.00    +0.466 C 
ATOM     11  O   LIG A   1      -5.103  -1.395 129.029  0.00  0.00    -0.453 OA
ATOM     12  C   LIG A   1      -6.258  -1.990 128.628  0.00  0.00    +0.167 A 
ATOM     13  C   LIG A   1      -6.858  -1.792 127.405  0.00  0.00    +0.060 A 
ENDBRANCH   4   5
ENDBRANCH   1   4
BRANCH   1  14
ATOM     14  C   LIG A   1      -6.848  -2.213 124.068  0.00  0.00    +0.001 C 
ATOM     15  C   LIG A   1      -5.684  -3.093 123.574  0.00  0.00    +0.008 C 
BRANCH  14  16
ATOM     16  C   LIG A   1      -7.210  -1.126 123.010  0.00  0.00    +0.039 C 
BRANCH  16  17
ATOM     17  C   LIG A   1      -7.675   0.222 123.528  0.00  0.00    -0.043 A 
ATOM     18  C   LIG A   1      -8.987   0.655 123.303  0.00  0.00    +0.007 A 
ATOM     19  C   LIG A   1      -9.443   1.868 123.833  0.00  0.00    +0.049 A 
ATOM     20  C   LIG A   1      -8.593   2.663 124.605  0.00  0.00    +0.159 A 
ATOM     21  C   LIG A   1      -7.272   2.271 124.816  0.00  0.00    +0.162 A 
ATOM     22  C   LIG A   1      -6.818   1.077 124.238  0.00  0.00    +0.053 A 
BRANCH  20  23
ATOM     23  O   LIG A   1      -9.070   3.837 125.119  0.00  0.00    -0.503 OA
ATOM     24  H   LIG A   1      -9.512   3.656 125.964  0.00  0.00    +0.292 HD
ENDBRANCH  20  23
BRANCH  21  25
ATOM     25  O   LIG A   1      -6.305   2.956 125.503  0.00  0.00    -0.491 OA
ATOM     26  C   LIG A   1      -5.549   3.895 124.746  0.00  0.00    +0.277 C 
ENDBRANCH  21  25
ENDBRANCH  16  17
ENDBRANCH  14  16
ENDBRANCH   1  14
TORSDOF 7
ENDMDL
MODEL 2
REMARK VINA RESULT:      -7.3      7.659      9.862
REMARK  Name = NuBBE_1304
REMARK  10 active torsions:
REMARK  status: ('A' for Active; 'I' for Inactive)
REMARK    1  A    between atoms: C_2  and  C_3
REMARK    2  A    between atoms: C_2  and  C_12
REMARK    3  A    between atoms: C_12  and  C_14
REMARK    4  A    between atoms: C_12  and  C_15
REMARK    5  A    between atoms: C_15  and  C_17
REMARK    6  A    between atoms: C_15  and  C_18
REMARK    7  A    between atoms: C_18  and  C_19
REMARK    8  A    between atoms: C_22  and  O_23
REMARK    9  A    between atoms: C_24  and  O_25
REMARK   10  A    between atoms: O_25  and  C_26
REMARK                            x       y       z     vdW  Elec       q    Type
REMARK                         _______ _______ _______ _____ _____    ______ ____
ROOT
ATOM      1  C   LIG A   1      -8.795   5.329 131.629  0.00  0.00    +0.060 C 
ATOM      2  C   LIG A   1      -9.642   5.855 132.796  0.00  0.00    +0.016 C 
ENDROOT
BRANCH   1   4
ATOM      3  O   LIG A   1      -8.275   7.398 130.427  0.00  0.00    -0.292 OA
ATOM      4  C   LIG A   1      -7.888   6.484 131.148  0.00  0.00    +0.166 C 
BRANCH   4   5
ATOM      5  C   LIG A   1      -6.464   6.507 131.659  0.00  0.00    +0.021 A 
ATOM      6  C   LIG A   1      -6.161   5.897 132.900  0.00  0.00    +0.015 A 
ATOM      7  C   LIG A   1      -4.849   5.884 133.395  0.00  0.00    +0.050 A 
ATOM      8  C   LIG A   1      -3.865   6.453 132.616  0.00  0.00    +0.166 A 
ATOM      9  O   LIG A   1      -2.535   6.496 132.895  0.00  0.00    -0.453 OA
ATOM     10  C   LIG A   1      -2.019   7.088 131.682  0.00  0.00    +0.466 C 
ATOM     11  O   LIG A   1      -3.053   7.526 130.779  0.00  0.00    -0.453 OA
ATOM     12  C   LIG A   1      -4.156   7.040 131.408  0.00  0.00    +0.167 A 
ATOM     13  C   LIG A   1      -5.435   7.094 130.902  0.00  0.00    +0.060 A 
ENDBRANCH   4   5
ENDBRANCH   1   4
BRANCH   1  14
ATOM     14  C   LIG A   1      -9.661   4.792 130.454  0.00  0.00    +0.001 C 
ATOM     15  C   LIG A   1      -9.396   3.299 130.182  0.00  0.00    +0.008 C 
BRANCH  14  16
ATOM     16  C   LIG A   1     -11.190   5.069 130.580  0.00  0.00    +0.039 C 
BRANCH  16  17
ATOM     17  C   LIG A   1     -11.696   6.414 130.091  0.00  0.00    -0.043 A 
ATOM     18  C   LIG A   1     -12.559   7.179 130.885  0.00  0.00    +0.007 A 
ATOM     19  C   LIG A   1     -12.978   8.448 130.471  0.00  0.00    +0.049 A 
ATOM     20  C   LIG A   1     -12.532   8.977 129.258  0.00  0.00    +0.159 A 
ATOM     21  C   LIG A   1     -11.698   8.222 128.433  0.00  0.00    +0.162 A 
ATOM     22  C   LIG A   1     -11.327   6.933 128.842  0.00  0.00    +0.053 A 
BRANCH  20  23
ATOM     23  O   LIG A   1     -12.949  10.224 128.885  0.00  0.00    -0.503 OA
ATOM     24  H   LIG A   1     -13.723  10.140 128.306  0.00  0.00    +0.292 HD
ENDBRANCH  20  23
BRANCH  21  25
ATOM     25  O   LIG A   1     -11.215   8.573 127.200  0.00  0.00    -0.491 OA
ATOM     26  C   LIG A   1     -10.859   7.497 126.340  0.00  0.00    +0.277 C 
ENDBRANCH  21  25
ENDBRANCH  16  17
ENDBRANCH  14  16
ENDBRANCH   1  14
TORSDOF 7
ENDMDL
MODEL 3
REMARK VINA RESULT:      -7.3      1.150      1.785
REMARK  Name = NuBBE_1304
REMARK  10 active torsions:
REMARK  status: ('A' for Active; 'I' for Inactive)
REMARK    1  A    between atoms: C_2  and  C_3
REMARK    2  A    between atoms: C_2  and  C_12
REMARK    3  A    between atoms: C_12  and  C_14
REMARK    4  A    between atoms: C_12  and  C_15
REMARK    5  A    between atoms: C_15  and  C_17
REMARK    6  A    between atoms: C_15  and  C_18
REMARK    7  A    between atoms: C_18  and  C_19
REMARK    8  A    between atoms: C_22  and  O_23
REMARK    9  A    between atoms: C_24  and  O_25
REMARK   10  A    between atoms: O_25  and  C_26
REMARK                            x       y       z     vdW  Elec       q    Type
REMARK                         _______ _______ _______ _____ _____    ______ ____
ROOT
ATOM      1  C   LIG A   1      -8.087  -3.059 124.762  0.00  0.00    +0.060 C 
ATOM      2  C   LIG A   1      -8.973  -3.165 123.514  0.00  0.00    +0.016 C 
ENDROOT
BRANCH   1   4
ATOM      3  O   LIG A   1      -9.807  -1.493 125.527  0.00  0.00    -0.292 OA
ATOM      4  C   LIG A   1      -8.836  -2.192 125.799  0.00  0.00    +0.166 C 
BRANCH   4   5
ATOM      5  C   LIG A   1      -8.374  -2.277 127.237  0.00  0.00    +0.021 A 
ATOM      6  C   LIG A   1      -8.526  -3.493 127.947  0.00  0.00    +0.015 A 
ATOM      7  C   LIG A   1      -8.093  -3.611 129.274  0.00  0.00    +0.050 A 
ATOM      8  C   LIG A   1      -7.483  -2.516 129.850  0.00  0.00    +0.166 A 
ATOM      9  O   LIG A   1      -6.953  -2.449 131.100  0.00  0.00    -0.453 OA
ATOM     10  C   LIG A   1      -6.366  -1.129 131.077  0.00  0.00    +0.466 C 
ATOM     11  O   LIG A   1      -6.688  -0.383 129.887  0.00  0.00    -0.453 OA
ATOM     12  C   LIG A   1      -7.329  -1.338 129.161  0.00  0.00    +0.167 A 
ATOM     13  C   LIG A   1      -7.764  -1.177 127.865  0.00  0.00    +0.060 A 
ENDBRANCH   4   5
ENDBRANCH   1   4
BRANCH   1  14
ATOM     14  C   LIG A   1      -6.688  -2.450 124.454  0.00  0.00    +0.001 C 
ATOM     15  C   LIG A   1      -5.688  -3.522 123.980  0.00  0.00    +0.008 C 
BRANCH  14  16
ATOM     16  C   LIG A   1      -6.697  -1.231 123.482  0.00  0.00    +0.039 C 
BRANCH  16  17
ATOM     17  C   LIG A   1      -6.835   0.149 124.098  0.00  0.00    -0.043 A 
ATOM     18  C   LIG A   1      -6.112   0.489 125.247  0.00  0.00    +0.007 A 
ATOM     19  C   LIG A   1      -6.183   1.780 125.783  0.00  0.00    +0.049 A 
ATOM     20  C   LIG A   1      -6.974   2.755 125.170  0.00  0.00    +0.159 A 
ATOM     21  C   LIG A   1      -7.729   2.432 124.043  0.00  0.00    +0.162 A 
ATOM     22  C   LIG A   1      -7.683   1.122 123.548  0.00  0.00    +0.053 A 
BRANCH  20  23
ATOM     23  O   LIG A   1      -7.014   4.010 125.710  0.00  0.00    -0.503 OA
ATOM     24  H   LIG A   1      -7.940   4.270 125.839  0.00  0.00    +0.292 HD
ENDBRANCH  20  23
BRANCH  21  25
ATOM     25  O   LIG A   1      -8.586   3.253 123.359  0.00  0.00    -0.491 OA
ATOM     26  C   LIG A   1      -8.606   3.095 121.945  0.00  0.00    +0.277 C 
ENDBRANCH  21  25
ENDBRANCH  16  17
ENDBRANCH  14  16
ENDBRANCH   1  14
TORSDOF 7
ENDMDL
MODEL 4
REMARK VINA RESULT:      -7.2      2.151      5.073
REMARK  Name = NuBBE_1304
REMARK  10 active torsions:
REMARK  status: ('A' for Active; 'I' for Inactive)
REMARK    1  A    between atoms: C_2  and  C_3
REMARK    2  A    between atoms: C_2  and  C_12
REMARK    3  A    between atoms: C_12  and  C_14
REMARK    4  A    between atoms: C_12  and  C_15
REMARK    5  A    between atoms: C_15  and  C_17
REMARK    6  A    between atoms: C_15  and  C_18
REMARK    7  A    between atoms: C_18  and  C_19
REMARK    8  A    between atoms: C_22  and  O_23
REMARK    9  A    between atoms: C_24  and  O_25
REMARK   10  A    between atoms: O_25  and  C_26
REMARK                            x       y       z     vdW  Elec       q    Type
REMARK                         _______ _______ _______ _____ _____    ______ ____
ROOT
ATOM      1  C   LIG A   1      -8.274  -3.409 125.028  0.00  0.00    +0.060 C 
ATOM      2  C   LIG A   1      -6.891  -3.711 124.436  0.00  0.00    +0.016 C 
ENDROOT
BRANCH   1   4
ATOM      3  O   LIG A   1      -9.954  -2.756 123.372  0.00  0.00    -0.292 OA
ATOM      4  C   LIG A   1      -8.995  -2.437 124.068  0.00  0.00    +0.166 C 
BRANCH   4   5
ATOM      5  C   LIG A   1      -8.520  -1.001 124.049  0.00  0.00    +0.021 A 
ATOM      6  C   LIG A   1      -7.438  -0.638 123.210  0.00  0.00    +0.015 A 
ATOM      7  C   LIG A   1      -6.984   0.687 123.154  0.00  0.00    +0.050 A 
ATOM      8  C   LIG A   1      -7.648   1.625 123.916  0.00  0.00    +0.166 A 
ATOM      9  O   LIG A   1      -7.393   2.960 123.960  0.00  0.00    -0.453 OA
ATOM     10  C   LIG A   1      -8.467   3.416 124.813  0.00  0.00    +0.466 C 
ATOM     11  O   LIG A   1      -9.238   2.339 125.380  0.00  0.00    -0.453 OA
ATOM     12  C   LIG A   1      -8.701   1.275 124.726  0.00  0.00    +0.167 A 
ATOM     13  C   LIG A   1      -9.159  -0.019 124.825  0.00  0.00    +0.060 A 
ENDBRANCH   4   5
ENDBRANCH   1   4
BRANCH   1  14
ATOM     14  C   LIG A   1      -8.194  -2.803 126.459  0.00  0.00    +0.001 C 
ATOM     15  C   LIG A   1      -8.916  -3.683 127.497  0.00  0.00    +0.008 C 
BRANCH  14  16
ATOM     16  C   LIG A   1      -6.757  -2.439 126.943  0.00  0.00    +0.039 C 
BRANCH  16  17
ATOM     17  C   LIG A   1      -6.408  -0.966 127.045  0.00  0.00    -0.043 A 
ATOM     18  C   LIG A   1      -5.354  -0.432 126.293  0.00  0.00    +0.007 A 
ATOM     19  C   LIG A   1      -5.068   0.937 126.331  0.00  0.00    +0.049 A 
ATOM     20  C   LIG A   1      -5.839   1.797 127.117  0.00  0.00    +0.159 A 
ATOM     21  C   LIG A   1      -6.873   1.285 127.901  0.00  0.00    +0.162 A 
ATOM     22  C   LIG A   1      -7.115  -0.096 127.887  0.00  0.00    +0.053 A 
BRANCH  20  23
ATOM     23  O   LIG A   1      -5.542   3.131 127.125  0.00  0.00    -0.503 OA
ATOM     24  H   LIG A   1      -5.299   3.396 128.027  0.00  0.00    +0.292 HD
ENDBRANCH  20  23
BRANCH  21  25
ATOM     25  O   LIG A   1      -7.684   1.981 128.757  0.00  0.00    -0.491 OA
ATOM     26  C   LIG A   1      -8.306   1.219 129.786  0.00  0.00    +0.277 C 
ENDBRANCH  21  25
ENDBRANCH  16  17
ENDBRANCH  14  16
ENDBRANCH   1  14
TORSDOF 7
ENDMDL
MODEL 5
REMARK VINA RESULT:      -6.9      6.449      9.350
REMARK  Name = NuBBE_1304
REMARK  10 active torsions:
REMARK  status: ('A' for Active; 'I' for Inactive)
REMARK    1  A    between atoms: C_2  and  C_3
REMARK    2  A    between atoms: C_2  and  C_12
REMARK    3  A    between atoms: C_12  and  C_14
REMARK    4  A    between atoms: C_12  and  C_15
REMARK    5  A    between atoms: C_15  and  C_17
REMARK    6  A    between atoms: C_15  and  C_18
REMARK    7  A    between atoms: C_18  and  C_19
REMARK    8  A    between atoms: C_22  and  O_23
REMARK    9  A    between atoms: C_24  and  O_25
REMARK   10  A    between atoms: O_25  and  C_26
REMARK                            x       y       z     vdW  Elec       q    Type
REMARK                         _______ _______ _______ _____ _____    ______ ____
ROOT
ATOM      1  C   LIG A   1      -2.376   6.185 130.909  0.00  0.00    +0.060 C 
ATOM      2  C   LIG A   1      -2.053   4.997 131.824  0.00  0.00    +0.016 C 
ENDROOT
BRANCH   1   4
ATOM      3  O   LIG A   1      -2.914   8.215 132.168  0.00  0.00    -0.292 OA
ATOM      4  C   LIG A   1      -3.294   7.149 131.695  0.00  0.00    +0.166 C 
BRANCH   4   5
ATOM      5  C   LIG A   1      -4.753   6.770 131.819  0.00  0.00    +0.021 A 
ATOM      6  C   LIG A   1      -5.170   5.954 132.899  0.00  0.00    +0.015 A 
ATOM      7  C   LIG A   1      -6.517   5.599 133.055  0.00  0.00    +0.050 A 
ATOM      8  C   LIG A   1      -7.421   6.099 132.142  0.00  0.00    +0.166 A 
ATOM      9  O   LIG A   1      -8.768   5.912 132.152  0.00  0.00    -0.453 OA
ATOM     10  C   LIG A   1      -9.170   6.760 131.053  0.00  0.00    +0.466 C 
ATOM     11  O   LIG A   1      -8.056   7.307 130.320  0.00  0.00    -0.453 OA
ATOM     12  C   LIG A   1      -7.019   6.895 131.098  0.00  0.00    +0.167 A 
ATOM     13  C   LIG A   1      -5.703   7.245 130.899  0.00  0.00    +0.060 A 
ENDBRANCH   4   5
ENDBRANCH   1   4
BRANCH   1  14
ATOM     14  C   LIG A   1      -3.056   5.751 129.578  0.00  0.00    +0.001 C 
ATOM     15  C   LIG A   1      -2.239   6.187 128.347  0.00  0.00    +0.008 C 
BRANCH  14  16
ATOM     16  C   LIG A   1      -3.428   4.239 129.490  0.00  0.00    +0.039 C 
BRANCH  16  17
ATOM     17  C   LIG A   1      -4.901   3.880 129.546  0.00  0.00    -0.043 A 
ATOM     18  C   LIG A   1      -5.387   3.027 130.544  0.00  0.00    +0.007 A 
ATOM     19  C   LIG A   1      -6.753   2.743 130.642  0.00  0.00    +0.049 A 
ATOM     20  C   LIG A   1      -7.658   3.316 129.745  0.00  0.00    +0.159 A 
ATOM     21  C   LIG A   1      -7.196   4.142 128.721  0.00  0.00    +0.162 A 
ATOM     22  C   LIG A   1      -5.819   4.378 128.609  0.00  0.00    +0.053 A 
BRANCH  20  23
ATOM     23  O   LIG A   1      -8.988   3.029 129.873  0.00  0.00    -0.503 OA
ATOM     24  H   LIG A   1      -9.225   2.334 129.238  0.00  0.00    +0.292 HD
ENDBRANCH  20  23
BRANCH  21  25
ATOM     25  O   LIG A   1      -7.942   4.737 127.739  0.00  0.00    -0.491 OA
ATOM     26  C   LIG A   1      -7.732   4.253 126.417  0.00  0.00    +0.277 C 
ENDBRANCH  21  25
ENDBRANCH  16  17
ENDBRANCH  14  16
ENDBRANCH   1  14
TORSDOF 7
ENDMDL
MODEL 6
REMARK VINA RESULT:      -6.8      3.261      5.870
REMARK  Name = NuBBE_1304
REMARK  10 active torsions:
REMARK  status: ('A' for Active; 'I' for Inactive)
REMARK    1  A    between atoms: C_2  and  C_3
REMARK    2  A    between atoms: C_2  and  C_12
REMARK    3  A    between atoms: C_12  and  C_14
REMARK    4  A    between atoms: C_12  and  C_15
REMARK    5  A    between atoms: C_15  and  C_17
REMARK    6  A    between atoms: C_15  and  C_18
REMARK    7  A    between atoms: C_18  and  C_19
REMARK    8  A    between atoms: C_22  and  O_23
REMARK    9  A    between atoms: C_24  and  O_25
REMARK   10  A    between atoms: O_25  and  C_26
REMARK                            x       y       z     vdW  Elec       q    Type
REMARK                         _______ _______ _______ _____ _____    ______ ____
ROOT
ATOM      1  C   LIG A   1      -7.314  -3.099 128.806  0.00  0.00    +0.060 C 
ATOM      2  C   LIG A   1      -6.284  -2.407 127.902  0.00  0.00    +0.016 C 
ENDROOT
BRANCH   1   4
ATOM      3  O   LIG A   1      -9.498  -4.103 128.343  0.00  0.00    -0.292 OA
ATOM      4  C   LIG A   1      -8.544  -3.446 127.938  0.00  0.00    +0.166 C 
BRANCH   4   5
ATOM      5  C   LIG A   1      -8.586  -2.879 126.536  0.00  0.00    +0.021 A 
ATOM      6  C   LIG A   1      -8.410  -3.745 125.430  0.00  0.00    +0.015 A 
ATOM      7  C   LIG A   1      -8.461  -3.257 124.117  0.00  0.00    +0.050 A 
ATOM      8  C   LIG A   1      -8.722  -1.914 123.943  0.00  0.00    +0.166 A 
ATOM      9  O   LIG A   1      -8.860  -1.264 122.757  0.00  0.00    -0.453 OA
ATOM     10  C   LIG A   1      -9.240   0.055 123.210  0.00  0.00    +0.466 C 
ATOM     11  O   LIG A   1      -9.168   0.206 124.641  0.00  0.00    -0.453 OA
ATOM     12  C   LIG A   1      -8.900  -1.074 125.015  0.00  0.00    +0.167 A 
ATOM     13  C   LIG A   1      -8.832  -1.513 126.318  0.00  0.00    +0.060 A 
ENDBRANCH   4   5
ENDBRANCH   1   4
BRANCH   1  14
ATOM     14  C   LIG A   1      -7.734  -2.219 130.019  0.00  0.00    +0.001 C 
ATOM     15  C   LIG A   1      -7.443  -2.917 131.361  0.00  0.00    +0.008 C 
BRANCH  14  16
ATOM     16  C   LIG A   1      -7.163  -0.769 130.012  0.00  0.00    +0.039 C 
BRANCH  16  17
ATOM     17  C   LIG A   1      -8.118   0.357 130.362  0.00  0.00    -0.043 A 
ATOM     18  C   LIG A   1      -8.878   0.305 131.536  0.00  0.00    +0.007 A 
ATOM     19  C   LIG A   1      -9.712   1.368 131.899  0.00  0.00    +0.049 A 
ATOM     20  C   LIG A   1      -9.792   2.508 131.095  0.00  0.00    +0.159 A 
ATOM     21  C   LIG A   1      -9.070   2.571 129.903  0.00  0.00    +0.162 A 
ATOM     22  C   LIG A   1      -8.277   1.477 129.532  0.00  0.00    +0.053 A 
BRANCH  20  23
ATOM     23  O   LIG A   1     -10.606   3.535 131.481  0.00  0.00    -0.503 OA
ATOM     24  H   LIG A   1     -10.134   4.375 131.365  0.00  0.00    +0.292 HD
ENDBRANCH  20  23
BRANCH  21  25
ATOM     25  O   LIG A   1      -9.077   3.588 128.986  0.00  0.00    -0.491 OA
ATOM     26  C   LIG A   1      -7.877   3.764 128.241  0.00  0.00    +0.277 C 
ENDBRANCH  21  25
ENDBRANCH  16  17
ENDBRANCH  14  16
ENDBRANCH   1  14
TORSDOF 7
ENDMDL
MODEL 7
REMARK VINA RESULT:      -6.8      2.145      5.865
REMARK  Name = NuBBE_1304
REMARK  10 active torsions:
REMARK  status: ('A' for Active; 'I' for Inactive)
REMARK    1  A    between atoms: C_2  and  C_3
REMARK    2  A    between atoms: C_2  and  C_12
REMARK    3  A    between atoms: C_12  and  C_14
REMARK    4  A    between atoms: C_12  and  C_15
REMARK    5  A    between atoms: C_15  and  C_17
REMARK    6  A    between atoms: C_15  and  C_18
REMARK    7  A    between atoms: C_18  and  C_19
REMARK    8  A    between atoms: C_22  and  O_23
REMARK    9  A    between atoms: C_24  and  O_25
REMARK   10  A    between atoms: O_25  and  C_26
REMARK                            x       y       z     vdW  Elec       q    Type
REMARK                         _______ _______ _______ _____ _____    ______ ____
ROOT
ATOM      1  C   LIG A   1      -6.733  -0.276 129.564  0.00  0.00    +0.060 C 
ATOM      2  C   LIG A   1      -8.046  -0.800 130.162  0.00  0.00    +0.016 C 
ENDROOT
BRANCH   1   4
ATOM      3  O   LIG A   1      -7.007   2.154 129.447  0.00  0.00    -0.292 OA
ATOM      4  C   LIG A   1      -7.036   1.071 128.870  0.00  0.00    +0.166 C 
BRANCH   4   5
ATOM      5  C   LIG A   1      -7.316   1.039 127.384  0.00  0.00    +0.021 A 
ATOM      6  C   LIG A   1      -6.245   1.188 126.471  0.00  0.00    +0.015 A 
ATOM      7  C   LIG A   1      -6.467   1.145 125.087  0.00  0.00    +0.050 A 
ATOM      8  C   LIG A   1      -7.755   0.919 124.651  0.00  0.00    +0.166 A 
ATOM      9  O   LIG A   1      -8.163   0.793 123.360  0.00  0.00    -0.453 OA
ATOM     10  C   LIG A   1      -9.554   0.451 123.545  0.00  0.00    +0.466 C 
ATOM     11  O   LIG A   1      -9.983   0.532 124.918  0.00  0.00    -0.453 OA
ATOM     12  C   LIG A   1      -8.795   0.768 125.536  0.00  0.00    +0.167 A 
ATOM     13  C   LIG A   1      -8.619   0.828 126.900  0.00  0.00    +0.060 A 
ENDBRANCH   4   5
ENDBRANCH   1   4
BRANCH   1  14
ATOM     14  C   LIG A   1      -6.093  -1.275 128.556  0.00  0.00    +0.001 C 
ATOM     15  C   LIG A   1      -4.611  -1.544 128.879  0.00  0.00    +0.008 C 
BRANCH  14  16
ATOM     16  C   LIG A   1      -6.871  -2.612 128.368  0.00  0.00    +0.039 C 
BRANCH  16  17
ATOM     17  C   LIG A   1      -7.650  -2.789 127.077  0.00  0.00    -0.043 A 
ATOM     18  C   LIG A   1      -9.005  -3.140 127.108  0.00  0.00    +0.007 A 
ATOM     19  C   LIG A   1      -9.747  -3.240 125.926  0.00  0.00    +0.049 A 
ATOM     20  C   LIG A   1      -9.146  -2.981 124.692  0.00  0.00    +0.159 A 
ATOM     21  C   LIG A   1      -7.789  -2.662 124.632  0.00  0.00    +0.162 A 
ATOM     22  C   LIG A   1      -7.050  -2.613 125.822  0.00  0.00    +0.053 A 
BRANCH  20  23
ATOM     23  O   LIG A   1      -9.899  -3.076 123.556  0.00  0.00    -0.503 OA
ATOM     24  H   LIG A   1     -10.818  -2.848 123.765  0.00  0.00    +0.292 HD
ENDBRANCH  20  23
BRANCH  21  25
ATOM     25  O   LIG A   1      -7.044  -2.430 123.506  0.00  0.00    -0.491 OA
ATOM     26  C   LIG A   1      -5.631  -2.454 123.678  0.00  0.00    +0.277 C 
ENDBRANCH  21  25
ENDBRANCH  16  17
ENDBRANCH  14  16
ENDBRANCH   1  14
TORSDOF 7
ENDMDL
MODEL 8
REMARK VINA RESULT:      -6.7      6.647      8.966
REMARK  Name = NuBBE_1304
REMARK  10 active torsions:
REMARK  status: ('A' for Active; 'I' for Inactive)
REMARK    1  A    between atoms: C_2  and  C_3
REMARK    2  A    between atoms: C_2  and  C_12
REMARK    3  A    between atoms: C_12  and  C_14
REMARK    4  A    between atoms: C_12  and  C_15
REMARK    5  A    between atoms: C_15  and  C_17
REMARK    6  A    between atoms: C_15  and  C_18
REMARK    7  A    between atoms: C_18  and  C_19
REMARK    8  A    between atoms: C_22  and  O_23
REMARK    9  A    between atoms: C_24  and  O_25
REMARK   10  A    between atoms: O_25  and  C_26
REMARK                            x       y       z     vdW  Elec       q    Type
REMARK                         _______ _______ _______ _____ _____    ______ ____
ROOT
ATOM      1  C   LIG A   1      -9.131   3.282 131.745  0.00  0.00    +0.060 C 
ATOM      2  C   LIG A   1      -9.923   1.983 131.946  0.00  0.00    +0.016 C 
ENDROOT
BRANCH   1   4
ATOM      3  O   LIG A   1      -7.163   1.913 132.243  0.00  0.00    -0.292 OA
ATOM      4  C   LIG A   1      -7.630   2.919 131.717  0.00  0.00    +0.166 C 
BRANCH   4   5
ATOM      5  C   LIG A   1      -6.710   3.831 130.936  0.00  0.00    +0.021 A 
ATOM      6  C   LIG A   1      -5.837   4.702 131.634  0.00  0.00    +0.015 A 
ATOM      7  C   LIG A   1      -4.959   5.548 130.942  0.00  0.00    +0.050 A 
ATOM      8  C   LIG A   1      -4.952   5.477 129.565  0.00  0.00    +0.166 A 
ATOM      9  O   LIG A   1      -4.144   6.174 128.723  0.00  0.00    -0.453 OA
ATOM     10  C   LIG A   1      -4.509   5.594 127.450  0.00  0.00    +0.466 C 
ATOM     11  O   LIG A   1      -5.625   4.686 127.539  0.00  0.00    -0.453 OA
ATOM     12  C   LIG A   1      -5.794   4.629 128.887  0.00  0.00    +0.167 A 
ATOM     13  C   LIG A   1      -6.686   3.802 129.531  0.00  0.00    +0.060 A 
ENDBRANCH   4   5
ENDBRANCH   1   4
BRANCH   1  14
ATOM     14  C   LIG A   1      -9.416   4.335 132.854  0.00  0.00    +0.001 C 
ATOM     15  C   LIG A   1      -8.671   4.007 134.162  0.00  0.00    +0.008 C 
BRANCH  14  16
ATOM     16  C   LIG A   1      -9.174   5.818 132.435  0.00  0.00    +0.039 C 
BRANCH  16  17
ATOM     17  C   LIG A   1     -10.193   6.454 131.508  0.00  0.00    -0.043 A 
ATOM     18  C   LIG A   1     -11.538   6.544 131.886  0.00  0.00    +0.007 A 
ATOM     19  C   LIG A   1     -12.472   7.188 131.066  0.00  0.00    +0.049 A 
ATOM     20  C   LIG A   1     -12.071   7.761 129.857  0.00  0.00    +0.159 A 
ATOM     21  C   LIG A   1     -10.744   7.656 129.442  0.00  0.00    +0.162 A 
ATOM     22  C   LIG A   1      -9.832   6.966 130.253  0.00  0.00    +0.053 A 
BRANCH  20  23
ATOM     23  O   LIG A   1     -13.004   8.393 129.083  0.00  0.00    -0.503 OA
ATOM     24  H   LIG A   1     -13.682   7.752 128.816  0.00  0.00    +0.292 HD
ENDBRANCH  20  23
BRANCH  21  25
ATOM     25  O   LIG A   1     -10.205   8.116 128.270  0.00  0.00    -0.491 OA
ATOM     26  C   LIG A   1     -10.509   7.359 127.103  0.00  0.00    +0.277 C 
ENDBRANCH  21  25
ENDBRANCH  16  17
ENDBRANCH  14  16
ENDBRANCH   1  14
TORSDOF 7
ENDMDL
MODEL 9
REMARK VINA RESULT:      -6.6      3.251      5.945
REMARK  Name = NuBBE_1304
REMARK  10 active torsions:
REMARK  status: ('A' for Active; 'I' for Inactive)
REMARK    1  A    between atoms: C_2  and  C_3
REMARK    2  A    between atoms: C_2  and  C_12
REMARK    3  A    between atoms: C_12  and  C_14
REMARK    4  A    between atoms: C_12  and  C_15
REMARK    5  A    between atoms: C_15  and  C_17
REMARK    6  A    between atoms: C_15  and  C_18
REMARK    7  A    between atoms: C_18  and  C_19
REMARK    8  A    between atoms: C_22  and  O_23
REMARK    9  A    between atoms: C_24  and  O_25
REMARK   10  A    between atoms: O_25  and  C_26
REMARK                            x       y       z     vdW  Elec       q    Type
REMARK                         _______ _______ _______ _____ _____    ______ ____
ROOT
ATOM      1  C   LIG A   1      -8.270  -2.092 127.361  0.00  0.00    +0.060 C 
ATOM      2  C   LIG A   1      -8.627  -3.547 127.691  0.00  0.00    +0.016 C 
ENDROOT
BRANCH   1   4
ATOM      3  O   LIG A   1      -7.799  -2.948 125.116  0.00  0.00    -0.292 OA
ATOM      4  C   LIG A   1      -8.073  -1.990 125.832  0.00  0.00    +0.166 C 
BRANCH   4   5
ATOM      5  C   LIG A   1      -8.300  -0.638 125.192  0.00  0.00    +0.021 A 
ATOM      6  C   LIG A   1      -9.424   0.133 125.574  0.00  0.00    +0.015 A 
ATOM      7  C   LIG A   1      -9.655   1.397 125.015  0.00  0.00    +0.050 A 
ATOM      8  C   LIG A   1      -8.733   1.875 124.108  0.00  0.00    +0.166 A 
ATOM      9  O   LIG A   1      -8.752   3.090 123.498  0.00  0.00    -0.453 OA
ATOM     10  C   LIG A   1      -7.496   3.057 122.784  0.00  0.00    +0.466 C 
ATOM     11  O   LIG A   1      -6.835   1.779 122.855  0.00  0.00    -0.453 OA
ATOM     12  C   LIG A   1      -7.638   1.131 123.741  0.00  0.00    +0.167 A 
ATOM     13  C   LIG A   1      -7.392  -0.124 124.250  0.00  0.00    +0.060 A 
ENDBRANCH   4   5
ENDBRANCH   1   4
BRANCH   1  14
ATOM     14  C   LIG A   1      -6.995  -1.603 128.108  0.00  0.00    +0.001 C 
ATOM     15  C   LIG A   1      -5.708  -2.158 127.468  0.00  0.00    +0.008 C 
BRANCH  14  16
ATOM     16  C   LIG A   1      -6.896  -0.059 128.304  0.00  0.00    +0.039 C 
BRANCH  16  17
ATOM     17  C   LIG A   1      -7.826   0.574 129.322  0.00  0.00    -0.043 A 
ATOM     18  C   LIG A   1      -8.090  -0.066 130.539  0.00  0.00    +0.007 A 
ATOM     19  C   LIG A   1      -8.894   0.541 131.509  0.00  0.00    +0.049 A 
ATOM     20  C   LIG A   1      -9.441   1.805 131.281  0.00  0.00    +0.159 A 
ATOM     21  C   LIG A   1      -9.221   2.450 130.064  0.00  0.00    +0.162 A 
ATOM     22  C   LIG A   1      -8.452   1.806 129.085  0.00  0.00    +0.053 A 
BRANCH  20  23
ATOM     23  O   LIG A   1     -10.213   2.378 132.252  0.00  0.00    -0.503 OA
ATOM     24  H   LIG A   1      -9.893   2.090 133.122  0.00  0.00    +0.292 HD
ENDBRANCH  20  23
BRANCH  21  25
ATOM     25  O   LIG A   1      -9.723   3.661 129.667  0.00  0.00    -0.491 OA
ATOM     26  C   LIG A   1      -8.894   4.791 129.915  0.00  0.00    +0.277 C 
ENDBRANCH  21  25
ENDBRANCH  16  17
ENDBRANCH  14  16
ENDBRANCH   1  14
TORSDOF 7
ENDMDL
