MODEL 1
REMARK VINA RESULT:      -7.5      0.000      0.000
REMARK  Name = NuBBE_1787
REMARK  7 active torsions:
REMARK  status: ('A' for Active; 'I' for Inactive)
REMARK    1  A    between atoms: C_6  and  C_9
REMARK    2  A    between atoms: C_7  and  O_8
REMARK    3  A    between atoms: C_11  and  O_12
REMARK    4  A    between atoms: O_12  and  C_13
REMARK    5  A    between atoms: C_14  and  O_17
REMARK    6  A    between atoms: C_19  and  O_23
REMARK    7  A    between atoms: C_21  and  O_22
REMARK                            x       y       z     vdW  Elec       q    Type
REMARK                         _______ _______ _______ _____ _____    ______ ____
ROOT
ATOM      1  O   LIG A   1      -8.656   2.426 126.214  0.00  0.00    -0.283 OA
ATOM      2  C   LIG A   1      -8.062   1.967 125.241  0.00  0.00    +0.238 A 
ATOM      3  C   LIG A   1      -7.647   0.565 125.076  0.00  0.00    +0.109 A 
ATOM      4  C   LIG A   1      -6.993   0.221 123.891  0.00  0.00    +0.146 A 
ATOM      5  O   LIG A   1      -6.718   1.121 122.889  0.00  0.00    -0.451 OA
ATOM      6  C   LIG A   1      -7.105   2.449 123.040  0.00  0.00    +0.181 A 
ATOM      7  C   LIG A   1      -7.737   2.906 124.138  0.00  0.00    +0.208 A 
ATOM      8  C   LIG A   1      -6.576  -1.096 123.669  0.00  0.00    +0.092 A 
ATOM      9  C   LIG A   1      -6.820  -2.059 124.642  0.00  0.00    +0.124 A 
ATOM     10  C   LIG A   1      -7.467  -1.733 125.828  0.00  0.00    +0.091 A 
ATOM     11  C   LIG A   1      -7.882  -0.418 126.045  0.00  0.00    +0.135 A 
ENDROOT
BRANCH   6  12
ATOM     12  C   LIG A   1      -6.736   3.304 121.876  0.00  0.00    +0.025 A 
ATOM     13  C   LIG A   1      -7.626   3.530 120.808  0.00  0.00    +0.061 A 
ATOM     14  C   LIG A   1      -7.277   4.335 119.721  0.00  0.00    +0.162 A 
ATOM     15  C   LIG A   1      -6.004   4.904 119.689  0.00  0.00    +0.159 A 
ATOM     16  C   LIG A   1      -5.090   4.682 120.709  0.00  0.00    +0.050 A 
ATOM     17  C   LIG A   1      -5.455   3.884 121.797  0.00  0.00    +0.015 A 
BRANCH  14  18
ATOM     18  O   LIG A   1      -8.080   4.625 118.645  0.00  0.00    -0.491 OA
ATOM     19  C   LIG A   1      -9.467   4.340 118.799  0.00  0.00    +0.277 C 
ENDBRANCH  14  18
BRANCH  15  20
ATOM     20  O   LIG A   1      -5.627   5.695 118.638  0.00  0.00    -0.503 OA
ATOM     21  H   LIG A   1      -5.468   6.576 119.031  0.00  0.00    +0.292 HD
ENDBRANCH  15  20
ENDBRANCH   6  12
BRANCH   7  22
ATOM     22  O   LIG A   1      -8.123   4.219 124.343  0.00  0.00    -0.501 OA
ATOM     23  H   LIG A   1      -8.558   4.208 125.225  0.00  0.00    +0.292 HD
ENDBRANCH   7  22
BRANCH  11  24
ATOM     24  O   LIG A   1      -8.515  -0.111 127.216  0.00  0.00    -0.506 OA
ATOM     25  H   LIG A   1      -7.958  -0.348 127.974  0.00  0.00    +0.292 HD
ENDBRANCH  11  24
BRANCH   9  26
ATOM     26  O   LIG A   1      -6.439  -3.357 124.472  0.00  0.00    -0.506 OA
ATOM     27  H   LIG A   1      -7.211  -3.889 124.219  0.00  0.00    +0.292 HD
ENDBRANCH   9  26
TORSDOF 6
ENDMDL
MODEL 2
REMARK VINA RESULT:      -7.4      8.045     10.158
REMARK  Name = NuBBE_1787
REMARK  7 active torsions:
REMARK  status: ('A' for Active; 'I' for Inactive)
REMARK    1  A    between atoms: C_6  and  C_9
REMARK    2  A    between atoms: C_7  and  O_8
REMARK    3  A    between atoms: C_11  and  O_12
REMARK    4  A    between atoms: O_12  and  C_13
REMARK    5  A    between atoms: C_14  and  O_17
REMARK    6  A    between atoms: C_19  and  O_23
REMARK    7  A    between atoms: C_21  and  O_22
REMARK                            x       y       z     vdW  Elec       q    Type
REMARK                         _______ _______ _______ _____ _____    ______ ____
ROOT
ATOM      1  O   LIG A   1      -9.708   2.060 131.415  0.00  0.00    -0.283 OA
ATOM      2  C   LIG A   1      -9.561   3.242 131.716  0.00  0.00    +0.238 A 
ATOM      3  C   LIG A   1      -8.666   3.752 132.767  0.00  0.00    +0.109 A 
ATOM      4  C   LIG A   1      -8.619   5.134 132.959  0.00  0.00    +0.146 A 
ATOM      5  O   LIG A   1      -9.363   6.027 132.225  0.00  0.00    -0.451 OA
ATOM      6  C   LIG A   1     -10.214   5.552 131.233  0.00  0.00    +0.181 A 
ATOM      7  C   LIG A   1     -10.353   4.240 130.955  0.00  0.00    +0.208 A 
ATOM      8  C   LIG A   1      -7.785   5.684 133.938  0.00  0.00    +0.092 A 
ATOM      9  C   LIG A   1      -7.003   4.840 134.719  0.00  0.00    +0.124 A 
ATOM     10  C   LIG A   1      -7.042   3.461 134.543  0.00  0.00    +0.091 A 
ATOM     11  C   LIG A   1      -7.875   2.917 133.564  0.00  0.00    +0.135 A 
ENDROOT
BRANCH   6  12
ATOM     12  C   LIG A   1     -10.957   6.634 130.527  0.00  0.00    +0.025 A 
ATOM     13  C   LIG A   1     -10.546   7.120 129.270  0.00  0.00    +0.061 A 
ATOM     14  C   LIG A   1     -11.248   8.133 128.611  0.00  0.00    +0.162 A 
ATOM     15  C   LIG A   1     -12.366   8.689 129.233  0.00  0.00    +0.159 A 
ATOM     16  C   LIG A   1     -12.785   8.255 130.483  0.00  0.00    +0.050 A 
ATOM     17  C   LIG A   1     -12.081   7.233 131.127  0.00  0.00    +0.015 A 
BRANCH  14  18
ATOM     18  O   LIG A   1     -10.934   8.659 127.383  0.00  0.00    -0.491 OA
ATOM     19  C   LIG A   1     -10.934   7.747 126.289  0.00  0.00    +0.277 C 
ENDBRANCH  14  18
BRANCH  15  20
ATOM     20  O   LIG A   1     -13.075   9.684 128.619  0.00  0.00    -0.503 OA
ATOM     21  H   LIG A   1     -13.375   9.295 127.774  0.00  0.00    +0.292 HD
ENDBRANCH  15  20
ENDBRANCH   6  12
BRANCH   7  22
ATOM     22  O   LIG A   1     -11.200   3.718 129.993  0.00  0.00    -0.501 OA
ATOM     23  H   LIG A   1     -11.056   2.746 130.047  0.00  0.00    +0.292 HD
ENDBRANCH   7  22
BRANCH  11  24
ATOM     24  O   LIG A   1      -7.903   1.561 133.404  0.00  0.00    -0.506 OA
ATOM     25  H   LIG A   1      -8.130   1.125 134.241  0.00  0.00    +0.292 HD
ENDBRANCH  11  24
BRANCH   9  26
ATOM     26  O   LIG A   1      -6.171   5.326 135.682  0.00  0.00    -0.506 OA
ATOM     27  H   LIG A   1      -6.169   6.296 135.647  0.00  0.00    +0.292 HD
ENDBRANCH   9  26
TORSDOF 6
ENDMDL
MODEL 3
REMARK VINA RESULT:      -7.0      3.768      8.778
REMARK  Name = NuBBE_1787
REMARK  7 active torsions:
REMARK  status: ('A' for Active; 'I' for Inactive)
REMARK    1  A    between atoms: C_6  and  C_9
REMARK    2  A    between atoms: C_7  and  O_8
REMARK    3  A    between atoms: C_11  and  O_12
REMARK    4  A    between atoms: O_12  and  C_13
REMARK    5  A    between atoms: C_14  and  O_17
REMARK    6  A    between atoms: C_19  and  O_23
REMARK    7  A    between atoms: C_21  and  O_22
REMARK                            x       y       z     vdW  Elec       q    Type
REMARK                         _______ _______ _______ _____ _____    ______ ____
ROOT
ATOM      1  O   LIG A   1      -9.497  -2.561 123.735  0.00  0.00    -0.283 OA
ATOM      2  C   LIG A   1      -9.025  -1.836 124.608  0.00  0.00    +0.238 A 
ATOM      3  C   LIG A   1      -9.039  -0.364 124.597  0.00  0.00    +0.109 A 
ATOM      4  C   LIG A   1      -8.465   0.294 125.686  0.00  0.00    +0.146 A 
ATOM      5  O   LIG A   1      -7.892  -0.361 126.751  0.00  0.00    -0.451 OA
ATOM      6  C   LIG A   1      -7.872  -1.751 126.766  0.00  0.00    +0.181 A 
ATOM      7  C   LIG A   1      -8.388  -2.500 125.772  0.00  0.00    +0.208 A 
ATOM      8  C   LIG A   1      -8.450   1.692 125.741  0.00  0.00    +0.092 A 
ATOM      9  C   LIG A   1      -9.011   2.419 124.697  0.00  0.00    +0.124 A 
ATOM     10  C   LIG A   1      -9.583   1.779 123.603  0.00  0.00    +0.091 A 
ATOM     11  C   LIG A   1      -9.597   0.384 123.554  0.00  0.00    +0.135 A 
ENDROOT
BRANCH   6  12
ATOM     12  C   LIG A   1      -7.215  -2.316 127.979  0.00  0.00    +0.025 A 
ATOM     13  C   LIG A   1      -5.816  -2.299 128.141  0.00  0.00    +0.061 A 
ATOM     14  C   LIG A   1      -5.204  -2.827 129.281  0.00  0.00    +0.162 A 
ATOM     15  C   LIG A   1      -6.005  -3.408 130.265  0.00  0.00    +0.159 A 
ATOM     16  C   LIG A   1      -7.385  -3.468 130.127  0.00  0.00    +0.050 A 
ATOM     17  C   LIG A   1      -7.986  -2.926 128.987  0.00  0.00    +0.015 A 
BRANCH  14  18
ATOM     18  O   LIG A   1      -3.855  -2.842 129.536  0.00  0.00    -0.491 OA
ATOM     19  C   LIG A   1      -3.107  -3.876 128.904  0.00  0.00    +0.277 C 
ENDBRANCH  14  18
BRANCH  15  20
ATOM     20  O   LIG A   1      -5.440  -3.937 131.392  0.00  0.00    -0.503 OA
ATOM     21  H   LIG A   1      -5.763  -4.859 131.427  0.00  0.00    +0.292 HD
ENDBRANCH  15  20
ENDBRANCH   6  12
BRANCH   7  22
ATOM     22  O   LIG A   1      -8.374  -3.884 125.732  0.00  0.00    -0.501 OA
ATOM     23  H   LIG A   1      -8.057  -4.148 126.625  0.00  0.00    +0.292 HD
ENDBRANCH   7  22
BRANCH  11  24
ATOM     24  O   LIG A   1     -10.161  -0.231 122.473  0.00  0.00    -0.506 OA
ATOM     25  H   LIG A   1      -9.498  -0.758 121.999  0.00  0.00    +0.292 HD
ENDBRANCH  11  24
BRANCH   9  26
ATOM     26  O   LIG A   1      -9.026   3.782 124.704  0.00  0.00    -0.506 OA
ATOM     27  H   LIG A   1      -8.210   4.111 125.117  0.00  0.00    +0.292 HD
ENDBRANCH   9  26
TORSDOF 6
ENDMDL
MODEL 4
REMARK VINA RESULT:      -7.0      3.859      6.606
REMARK  Name = NuBBE_1787
REMARK  7 active torsions:
REMARK  status: ('A' for Active; 'I' for Inactive)
REMARK    1  A    between atoms: C_6  and  C_9
REMARK    2  A    between atoms: C_7  and  O_8
REMARK    3  A    between atoms: C_11  and  O_12
REMARK    4  A    between atoms: O_12  and  C_13
REMARK    5  A    between atoms: C_14  and  O_17
REMARK    6  A    between atoms: C_19  and  O_23
REMARK    7  A    between atoms: C_21  and  O_22
REMARK                            x       y       z     vdW  Elec       q    Type
REMARK                         _______ _______ _______ _____ _____    ______ ____
ROOT
ATOM      1  O   LIG A   1      -7.961   4.639 125.385  0.00  0.00    -0.283 OA
ATOM      2  C   LIG A   1      -7.377   3.559 125.436  0.00  0.00    +0.238 A 
ATOM      3  C   LIG A   1      -5.985   3.360 125.869  0.00  0.00    +0.109 A 
ATOM      4  C   LIG A   1      -5.492   2.054 125.876  0.00  0.00    +0.146 A 
ATOM      5  O   LIG A   1      -6.236   0.961 125.498  0.00  0.00    -0.451 OA
ATOM      6  C   LIG A   1      -7.552   1.143 125.084  0.00  0.00    +0.181 A 
ATOM      7  C   LIG A   1      -8.140   2.354 125.028  0.00  0.00    +0.208 A 
ATOM      8  C   LIG A   1      -4.179   1.795 126.282  0.00  0.00    +0.092 A 
ATOM      9  C   LIG A   1      -3.368   2.853 126.677  0.00  0.00    +0.124 A 
ATOM     10  C   LIG A   1      -3.842   4.160 126.672  0.00  0.00    +0.091 A 
ATOM     11  C   LIG A   1      -5.153   4.414 126.268  0.00  0.00    +0.135 A 
ENDROOT
BRANCH   6  12
ATOM     12  C   LIG A   1      -8.228  -0.129 124.701  0.00  0.00    +0.025 A 
ATOM     13  C   LIG A   1      -8.681  -1.050 125.667  0.00  0.00    +0.061 A 
ATOM     14  C   LIG A   1      -9.317  -2.239 125.303  0.00  0.00    +0.162 A 
ATOM     15  C   LIG A   1      -9.479  -2.526 123.948  0.00  0.00    +0.159 A 
ATOM     16  C   LIG A   1      -9.022  -1.657 122.967  0.00  0.00    +0.050 A 
ATOM     17  C   LIG A   1      -8.397  -0.465 123.344  0.00  0.00    +0.015 A 
BRANCH  14  18
ATOM     18  O   LIG A   1      -9.805  -3.187 126.169  0.00  0.00    -0.491 OA
ATOM     19  C   LIG A   1      -8.896  -3.667 127.154  0.00  0.00    +0.277 C 
ENDBRANCH  14  18
BRANCH  15  20
ATOM     20  O   LIG A   1     -10.095  -3.683 123.555  0.00  0.00    -0.503 OA
ATOM     21  H   LIG A   1     -10.903  -3.393 123.088  0.00  0.00    +0.292 HD
ENDBRANCH  15  20
ENDBRANCH   6  12
BRANCH   7  22
ATOM     22  O   LIG A   1      -9.437   2.587 124.604  0.00  0.00    -0.501 OA
ATOM     23  H   LIG A   1      -9.330   3.092 123.766  0.00  0.00    +0.292 HD
ENDBRANCH   7  22
BRANCH  11  24
ATOM     24  O   LIG A   1      -5.605   5.702 126.267  0.00  0.00    -0.506 OA
ATOM     25  H   LIG A   1      -5.056   6.253 125.686  0.00  0.00    +0.292 HD
ENDBRANCH  11  24
BRANCH   9  26
ATOM     26  O   LIG A   1      -2.083   2.654 127.085  0.00  0.00    -0.506 OA
ATOM     27  H   LIG A   1      -1.867   3.286 127.791  0.00  0.00    +0.292 HD
ENDBRANCH   9  26
TORSDOF 6
ENDMDL
MODEL 5
REMARK VINA RESULT:      -7.0      5.437      9.054
REMARK  Name = NuBBE_1787
REMARK  7 active torsions:
REMARK  status: ('A' for Active; 'I' for Inactive)
REMARK    1  A    between atoms: C_6  and  C_9
REMARK    2  A    between atoms: C_7  and  O_8
REMARK    3  A    between atoms: C_11  and  O_12
REMARK    4  A    between atoms: O_12  and  C_13
REMARK    5  A    between atoms: C_14  and  O_17
REMARK    6  A    between atoms: C_19  and  O_23
REMARK    7  A    between atoms: C_21  and  O_22
REMARK                            x       y       z     vdW  Elec       q    Type
REMARK                         _______ _______ _______ _____ _____    ______ ____
ROOT
ATOM      1  O   LIG A   1      -4.918  -0.974 125.598  0.00  0.00    -0.283 OA
ATOM      2  C   LIG A   1      -5.945  -1.422 126.102  0.00  0.00    +0.238 A 
ATOM      3  C   LIG A   1      -7.079  -1.998 125.361  0.00  0.00    +0.109 A 
ATOM      4  C   LIG A   1      -8.161  -2.473 126.105  0.00  0.00    +0.146 A 
ATOM      5  O   LIG A   1      -8.215  -2.425 127.478  0.00  0.00    -0.451 OA
ATOM      6  C   LIG A   1      -7.149  -1.879 128.184  0.00  0.00    +0.181 A 
ATOM      7  C   LIG A   1      -6.051  -1.382 127.581  0.00  0.00    +0.208 A 
ATOM      8  C   LIG A   1      -9.268  -3.037 125.463  0.00  0.00    +0.092 A 
ATOM      9  C   LIG A   1      -9.281  -3.117 124.075  0.00  0.00    +0.124 A 
ATOM     10  C   LIG A   1      -8.214  -2.645 123.319  0.00  0.00    +0.091 A 
ATOM     11  C   LIG A   1      -7.111  -2.084 123.964  0.00  0.00    +0.135 A 
ENDROOT
BRANCH   6  12
ATOM     12  C   LIG A   1      -7.354  -1.891 129.660  0.00  0.00    +0.025 A 
ATOM     13  C   LIG A   1      -7.811  -0.754 130.356  0.00  0.00    +0.061 A 
ATOM     14  C   LIG A   1      -8.005  -0.771 131.740  0.00  0.00    +0.162 A 
ATOM     15  C   LIG A   1      -7.710  -1.938 132.444  0.00  0.00    +0.159 A 
ATOM     16  C   LIG A   1      -7.232  -3.068 131.798  0.00  0.00    +0.050 A 
ATOM     17  C   LIG A   1      -7.054  -3.043 130.412  0.00  0.00    +0.015 A 
BRANCH  14  18
ATOM     18  O   LIG A   1      -8.460   0.278 132.500  0.00  0.00    -0.491 OA
ATOM     19  C   LIG A   1      -9.428   1.126 131.888  0.00  0.00    +0.277 C 
ENDBRANCH  14  18
BRANCH  15  20
ATOM     20  O   LIG A   1      -7.886  -1.989 133.800  0.00  0.00    -0.503 OA
ATOM     21  H   LIG A   1      -7.123  -1.503 134.172  0.00  0.00    +0.292 HD
ENDBRANCH  15  20
ENDBRANCH   6  12
BRANCH   7  22
ATOM     22  O   LIG A   1      -4.975  -0.811 128.239  0.00  0.00    -0.501 OA
ATOM     23  H   LIG A   1      -4.187  -1.212 127.806  0.00  0.00    +0.292 HD
ENDBRANCH   7  22
BRANCH  11  24
ATOM     24  O   LIG A   1      -6.071  -1.623 123.209  0.00  0.00    -0.506 OA
ATOM     25  H   LIG A   1      -6.138  -1.956 122.300  0.00  0.00    +0.292 HD
ENDBRANCH  11  24
BRANCH   9  26
ATOM     26  O   LIG A   1     -10.334  -3.661 123.401  0.00  0.00    -0.506 OA
ATOM     27  H   LIG A   1     -10.016  -4.385 122.837  0.00  0.00    +0.292 HD
ENDBRANCH   9  26
TORSDOF 6
ENDMDL
MODEL 6
REMARK VINA RESULT:      -6.6      4.315      6.536
REMARK  Name = NuBBE_1787
REMARK  7 active torsions:
REMARK  status: ('A' for Active; 'I' for Inactive)
REMARK    1  A    between atoms: C_6  and  C_9
REMARK    2  A    between atoms: C_7  and  O_8
REMARK    3  A    between atoms: C_11  and  O_12
REMARK    4  A    between atoms: O_12  and  C_13
REMARK    5  A    between atoms: C_14  and  O_17
REMARK    6  A    between atoms: C_19  and  O_23
REMARK    7  A    between atoms: C_21  and  O_22
REMARK                            x       y       z     vdW  Elec       q    Type
REMARK                         _______ _______ _______ _____ _____    ______ ____
ROOT
ATOM      1  O   LIG A   1      -7.175   4.658 128.437  0.00  0.00    -0.283 OA
ATOM      2  C   LIG A   1      -6.623   3.758 127.808  0.00  0.00    +0.238 A 
ATOM      3  C   LIG A   1      -5.193   3.706 127.467  0.00  0.00    +0.109 A 
ATOM      4  C   LIG A   1      -4.739   2.593 126.756  0.00  0.00    +0.146 A 
ATOM      5  O   LIG A   1      -5.557   1.561 126.362  0.00  0.00    -0.451 OA
ATOM      6  C   LIG A   1      -6.911   1.605 126.677  0.00  0.00    +0.181 A 
ATOM      7  C   LIG A   1      -7.471   2.628 127.354  0.00  0.00    +0.208 A 
ATOM      8  C   LIG A   1      -3.390   2.480 126.405  0.00  0.00    +0.092 A 
ATOM      9  C   LIG A   1      -2.505   3.488 126.770  0.00  0.00    +0.124 A 
ATOM     10  C   LIG A   1      -2.941   4.604 127.475  0.00  0.00    +0.091 A 
ATOM     11  C   LIG A   1      -4.288   4.713 127.824  0.00  0.00    +0.135 A 
ENDROOT
BRANCH   6  12
ATOM     12  C   LIG A   1      -7.670   0.422 126.181  0.00  0.00    +0.025 A 
ATOM     13  C   LIG A   1      -8.328   0.432 124.935  0.00  0.00    +0.061 A 
ATOM     14  C   LIG A   1      -9.035  -0.681 124.472  0.00  0.00    +0.162 A 
ATOM     15  C   LIG A   1      -9.107  -1.815 125.281  0.00  0.00    +0.159 A 
ATOM     16  C   LIG A   1      -8.495  -1.851 126.526  0.00  0.00    +0.050 A 
ATOM     17  C   LIG A   1      -7.781  -0.736 126.973  0.00  0.00    +0.015 A 
BRANCH  14  18
ATOM     18  O   LIG A   1      -9.693  -0.772 123.270  0.00  0.00    -0.491 OA
ATOM     19  C   LIG A   1     -10.074   0.460 122.666  0.00  0.00    +0.277 C 
ENDBRANCH  14  18
BRANCH  15  20
ATOM     20  O   LIG A   1      -9.793  -2.921 124.861  0.00  0.00    -0.503 OA
ATOM     21  H   LIG A   1      -9.115  -3.618 124.768  0.00  0.00    +0.292 HD
ENDBRANCH  15  20
ENDBRANCH   6  12
BRANCH   7  22
ATOM     22  O   LIG A   1      -8.814   2.727 127.673  0.00  0.00    -0.501 OA
ATOM     23  H   LIG A   1      -9.257   2.879 126.808  0.00  0.00    +0.292 HD
ENDBRANCH   7  22
BRANCH  11  24
ATOM     24  O   LIG A   1      -4.702   5.815 128.515  0.00  0.00    -0.506 OA
ATOM     25  H   LIG A   1      -4.906   5.582 129.435  0.00  0.00    +0.292 HD
ENDBRANCH  11  24
BRANCH   9  26
ATOM     26  O   LIG A   1      -1.180   3.423 126.457  0.00  0.00    -0.506 OA
ATOM     27  H   LIG A   1      -0.843   4.319 126.293  0.00  0.00    +0.292 HD
ENDBRANCH   9  26
TORSDOF 6
ENDMDL
MODEL 7
REMARK VINA RESULT:      -6.6      3.766      7.044
REMARK  Name = NuBBE_1787
REMARK  7 active torsions:
REMARK  status: ('A' for Active; 'I' for Inactive)
REMARK    1  A    between atoms: C_6  and  C_9
REMARK    2  A    between atoms: C_7  and  O_8
REMARK    3  A    between atoms: C_11  and  O_12
REMARK    4  A    between atoms: O_12  and  C_13
REMARK    5  A    between atoms: C_14  and  O_17
REMARK    6  A    between atoms: C_19  and  O_23
REMARK    7  A    between atoms: C_21  and  O_22
REMARK                            x       y       z     vdW  Elec       q    Type
REMARK                         _______ _______ _______ _____ _____    ______ ____
ROOT
ATOM      1  O   LIG A   1      -9.010   2.839 123.617  0.00  0.00    -0.283 OA
ATOM      2  C   LIG A   1      -7.855   3.257 123.572  0.00  0.00    +0.238 A 
ATOM      3  C   LIG A   1      -7.151   3.694 122.356  0.00  0.00    +0.109 A 
ATOM      4  C   LIG A   1      -5.841   4.154 122.501  0.00  0.00    +0.146 A 
ATOM      5  O   LIG A   1      -5.187   4.213 123.708  0.00  0.00    -0.451 OA
ATOM      6  C   LIG A   1      -5.845   3.798 124.861  0.00  0.00    +0.181 A 
ATOM      7  C   LIG A   1      -7.108   3.328 124.852  0.00  0.00    +0.208 A 
ATOM      8  C   LIG A   1      -5.117   4.590 121.386  0.00  0.00    +0.092 A 
ATOM      9  C   LIG A   1      -5.716   4.558 120.131  0.00  0.00    +0.124 A 
ATOM     10  C   LIG A   1      -7.018   4.099 119.970  0.00  0.00    +0.091 A 
ATOM     11  C   LIG A   1      -7.737   3.666 121.085  0.00  0.00    +0.135 A 
ENDROOT
BRANCH   6  12
ATOM     12  C   LIG A   1      -5.009   3.914 126.090  0.00  0.00    +0.025 A 
ATOM     13  C   LIG A   1      -5.117   5.017 126.959  0.00  0.00    +0.061 A 
ATOM     14  C   LIG A   1      -4.333   5.120 128.112  0.00  0.00    +0.162 A 
ATOM     15  C   LIG A   1      -3.406   4.114 128.385  0.00  0.00    +0.159 A 
ATOM     16  C   LIG A   1      -3.253   3.026 127.538  0.00  0.00    +0.050 A 
ATOM     17  C   LIG A   1      -4.051   2.928 126.394  0.00  0.00    +0.015 A 
BRANCH  14  18
ATOM     18  O   LIG A   1      -4.377   6.145 129.025  0.00  0.00    -0.491 OA
ATOM     19  C   LIG A   1      -3.595   7.295 128.717  0.00  0.00    +0.277 C 
ENDBRANCH  14  18
BRANCH  15  20
ATOM     20  O   LIG A   1      -2.621   4.183 129.503  0.00  0.00    -0.503 OA
ATOM     21  H   LIG A   1      -2.502   5.139 129.669  0.00  0.00    +0.292 HD
ENDBRANCH  15  20
ENDBRANCH   6  12
BRANCH   7  22
ATOM     22  O   LIG A   1      -7.797   2.884 125.968  0.00  0.00    -0.501 OA
ATOM     23  H   LIG A   1      -7.598   1.922 126.007  0.00  0.00    +0.292 HD
ENDBRANCH   7  22
BRANCH  11  24
ATOM     24  O   LIG A   1      -9.014   3.217 120.912  0.00  0.00    -0.506 OA
ATOM     25  H   LIG A   1      -9.614   3.959 120.737  0.00  0.00    +0.292 HD
ENDBRANCH  11  24
BRANCH   9  26
ATOM     26  O   LIG A   1      -5.055   4.975 119.014  0.00  0.00    -0.506 OA
ATOM     27  H   LIG A   1      -5.382   4.482 118.243  0.00  0.00    +0.292 HD
ENDBRANCH   9  26
TORSDOF 6
ENDMDL
MODEL 8
REMARK VINA RESULT:      -6.5      4.483      9.011
REMARK  Name = NuBBE_1787
REMARK  7 active torsions:
REMARK  status: ('A' for Active; 'I' for Inactive)
REMARK    1  A    between atoms: C_6  and  C_9
REMARK    2  A    between atoms: C_7  and  O_8
REMARK    3  A    between atoms: C_11  and  O_12
REMARK    4  A    between atoms: O_12  and  C_13
REMARK    5  A    between atoms: C_14  and  O_17
REMARK    6  A    between atoms: C_19  and  O_23
REMARK    7  A    between atoms: C_21  and  O_22
REMARK                            x       y       z     vdW  Elec       q    Type
REMARK                         _______ _______ _______ _____ _____    ______ ____
ROOT
ATOM      1  O   LIG A   1      -6.007   0.833 125.374  0.00  0.00    -0.283 OA
ATOM      2  C   LIG A   1      -6.389  -0.268 125.764  0.00  0.00    +0.238 A 
ATOM      3  C   LIG A   1      -7.393  -1.111 125.095  0.00  0.00    +0.109 A 
ATOM      4  C   LIG A   1      -7.691  -2.344 125.678  0.00  0.00    +0.146 A 
ATOM      5  O   LIG A   1      -7.102  -2.798 126.834  0.00  0.00    -0.451 OA
ATOM      6  C   LIG A   1      -6.155  -2.005 127.473  0.00  0.00    +0.181 A 
ATOM      7  C   LIG A   1      -5.786  -0.794 127.014  0.00  0.00    +0.208 A 
ATOM      8  C   LIG A   1      -8.633  -3.196 125.090  0.00  0.00    +0.092 A 
ATOM      9  C   LIG A   1      -9.269  -2.800 123.918  0.00  0.00    +0.124 A 
ATOM     10  C   LIG A   1      -8.985  -1.574 123.327  0.00  0.00    +0.091 A 
ATOM     11  C   LIG A   1      -8.045  -0.729 123.917  0.00  0.00    +0.135 A 
ENDROOT
BRANCH   6  12
ATOM     12  C   LIG A   1      -5.610  -2.626 128.714  0.00  0.00    +0.025 A 
ATOM     13  C   LIG A   1      -6.397  -2.786 129.872  0.00  0.00    +0.061 A 
ATOM     14  C   LIG A   1      -5.882  -3.372 131.032  0.00  0.00    +0.162 A 
ATOM     15  C   LIG A   1      -4.549  -3.780 131.042  0.00  0.00    +0.159 A 
ATOM     16  C   LIG A   1      -3.735  -3.613 129.931  0.00  0.00    +0.050 A 
ATOM     17  C   LIG A   1      -4.265  -3.037 128.773  0.00  0.00    +0.015 A 
BRANCH  14  18
ATOM     18  O   LIG A   1      -6.573  -3.584 132.199  0.00  0.00    -0.491 OA
ATOM     19  C   LIG A   1      -7.482  -2.559 132.588  0.00  0.00    +0.277 C 
ENDBRANCH  14  18
BRANCH  15  20
ATOM     20  O   LIG A   1      -4.011  -4.354 132.162  0.00  0.00    -0.503 OA
ATOM     21  H   LIG A   1      -3.617  -5.193 131.851  0.00  0.00    +0.292 HD
ENDBRANCH  15  20
ENDBRANCH   6  12
BRANCH   7  22
ATOM     22  O   LIG A   1      -4.865   0.040 127.625  0.00  0.00    -0.501 OA
ATOM     23  H   LIG A   1      -4.622   0.686 126.924  0.00  0.00    +0.292 HD
ENDBRANCH   7  22
BRANCH  11  24
ATOM     24  O   LIG A   1      -7.778   0.473 123.326  0.00  0.00    -0.506 OA
ATOM     25  H   LIG A   1      -6.991   0.879 123.723  0.00  0.00    +0.292 HD
ENDBRANCH  11  24
BRANCH   9  26
ATOM     26  O   LIG A   1     -10.190  -3.595 123.303  0.00  0.00    -0.506 OA
ATOM     27  H   LIG A   1     -10.971  -3.684 123.874  0.00  0.00    +0.292 HD
ENDBRANCH   9  26
TORSDOF 6
ENDMDL
MODEL 9
REMARK VINA RESULT:      -6.5      4.629      8.001
REMARK  Name = NuBBE_1787
REMARK  7 active torsions:
REMARK  status: ('A' for Active; 'I' for Inactive)
REMARK    1  A    between atoms: C_6  and  C_9
REMARK    2  A    between atoms: C_7  and  O_8
REMARK    3  A    between atoms: C_11  and  O_12
REMARK    4  A    between atoms: O_12  and  C_13
REMARK    5  A    between atoms: C_14  and  O_17
REMARK    6  A    between atoms: C_19  and  O_23
REMARK    7  A    between atoms: C_21  and  O_22
REMARK                            x       y       z     vdW  Elec       q    Type
REMARK                         _______ _______ _______ _____ _____    ______ ____
ROOT
ATOM      1  O   LIG A   1      -6.029   5.269 129.216  0.00  0.00    -0.283 OA
ATOM      2  C   LIG A   1      -7.070   4.616 129.227  0.00  0.00    +0.238 A 
ATOM      3  C   LIG A   1      -8.307   4.991 129.931  0.00  0.00    +0.109 A 
ATOM      4  C   LIG A   1      -9.399   4.129 129.818  0.00  0.00    +0.146 A 
ATOM      5  O   LIG A   1      -9.371   2.961 129.094  0.00  0.00    -0.451 OA
ATOM      6  C   LIG A   1      -8.204   2.598 128.429  0.00  0.00    +0.181 A 
ATOM      7  C   LIG A   1      -7.081   3.342 128.466  0.00  0.00    +0.208 A 
ATOM      8  C   LIG A   1     -10.607   4.429 130.458  0.00  0.00    +0.092 A 
ATOM      9  C   LIG A   1     -10.707   5.595 131.209  0.00  0.00    +0.124 A 
ATOM     10  C   LIG A   1      -9.627   6.462 131.334  0.00  0.00    +0.091 A 
ATOM     11  C   LIG A   1      -8.425   6.159 130.693  0.00  0.00    +0.135 A 
ENDROOT
BRANCH   6  12
ATOM     12  C   LIG A   1      -8.323   1.308 127.694  0.00  0.00    +0.025 A 
ATOM     13  C   LIG A   1      -9.010   1.213 126.467  0.00  0.00    +0.061 A 
ATOM     14  C   LIG A   1      -9.117   0.001 125.779  0.00  0.00    +0.162 A 
ATOM     15  C   LIG A   1      -8.549  -1.142 126.341  0.00  0.00    +0.159 A 
ATOM     16  C   LIG A   1      -7.888  -1.093 127.561  0.00  0.00    +0.050 A 
ATOM     17  C   LIG A   1      -7.778   0.127 128.233  0.00  0.00    +0.015 A 
BRANCH  14  18
ATOM     18  O   LIG A   1      -9.750  -0.187 124.575  0.00  0.00    -0.491 OA
ATOM     19  C   LIG A   1      -9.763   0.929 123.690  0.00  0.00    +0.277 C 
ENDBRANCH  14  18
BRANCH  15  20
ATOM     20  O   LIG A   1      -8.636  -2.346 125.697  0.00  0.00    -0.503 OA
ATOM     21  H   LIG A   1      -7.714  -2.663 125.629  0.00  0.00    +0.292 HD
ENDBRANCH  15  20
ENDBRANCH   6  12
BRANCH   7  22
ATOM     22  O   LIG A   1      -5.891   3.014 127.839  0.00  0.00    -0.501 OA
ATOM     23  H   LIG A   1      -6.147   2.332 127.178  0.00  0.00    +0.292 HD
ENDBRANCH   7  22
BRANCH  11  24
ATOM     24  O   LIG A   1      -7.373   7.019 130.826  0.00  0.00    -0.506 OA
ATOM     25  H   LIG A   1      -6.533   6.547 130.712  0.00  0.00    +0.292 HD
ENDBRANCH  11  24
BRANCH   9  26
ATOM     26  O   LIG A   1     -11.861   5.936 131.848  0.00  0.00    -0.506 OA
ATOM     27  H   LIG A   1     -12.223   6.746 131.451  0.00  0.00    +0.292 HD
ENDBRANCH   9  26
TORSDOF 6
ENDMDL
