MODEL 1
REMARK VINA RESULT:      -8.8      0.000      0.000
REMARK  Name = NuBBE_1242
REMARK  9 active torsions:
REMARK  status: ('A' for Active; 'I' for Inactive)
REMARK    1  A    between atoms: C_5  and  O_6
REMARK    2  A    between atoms: C_7  and  O_8
REMARK    3  A    between atoms: C_17  and  O_18
REMARK    4  A    between atoms: O_18  and  C_19
REMARK    5  A    between atoms: C_22  and  C_24
REMARK    6  A    between atoms: C_25  and  O_27
REMARK    7  A    between atoms: C_28  and  O_30
REMARK    8  A    between atoms: C_31  and  O_33
REMARK    9  A    between atoms: C_34  and  O_35
REMARK                            x       y       z     vdW  Elec       q    Type
REMARK                         _______ _______ _______ _____ _____    ______ ____
ROOT
ATOM      1  O   LIG A   1      -7.950   0.549 127.140  0.00  0.00    -0.244 OA
ATOM      2  C   LIG A   1      -8.127   1.230 128.140  0.00  0.00    +0.345 A 
ATOM      3  C   LIG A   1      -8.063   0.637 129.500  0.00  0.00    +0.074 A 
ATOM      4  C   LIG A   1      -7.780  -0.730 129.657  0.00  0.00    +0.065 A 
ATOM      5  C   LIG A   1      -7.708  -1.262 130.942  0.00  0.00    +0.163 A 
ATOM      6  C   LIG A   1      -7.909  -0.454 132.060  0.00  0.00    +0.202 A 
ATOM      7  C   LIG A   1      -8.204   0.894 131.891  0.00  0.00    +0.185 A 
ATOM      8  O   LIG A   1      -8.425   1.707 133.023  0.00  0.00    -0.418 OA
ATOM      9  C   LIG A   1      -8.742   3.065 132.944  0.00  0.00    +0.345 A 
ATOM     10  O   LIG A   1      -8.925   3.749 133.938  0.00  0.00    -0.244 OA
ATOM     11  C   LIG A   1      -8.283   1.445 130.617  0.00  0.00    +0.047 A 
ATOM     12  C   LIG A   1      -8.578   2.842 130.469  0.00  0.00    +0.047 A 
ATOM     13  C   LIG A   1      -8.814   3.649 131.579  0.00  0.00    +0.074 A 
ATOM     14  C   LIG A   1      -9.070   5.020 131.411  0.00  0.00    +0.065 A 
ATOM     15  C   LIG A   1      -9.019   5.603 130.136  0.00  0.00    +0.170 A 
ATOM     16  C   LIG A   1      -8.826   4.775 129.024  0.00  0.00    +0.203 A 
ATOM     17  C   LIG A   1      -8.611   3.408 129.203  0.00  0.00    +0.185 A 
ATOM     18  O   LIG A   1      -8.390   2.601 128.062  0.00  0.00    -0.418 OA
ENDROOT
BRANCH   5  19
ATOM     19  O   LIG A   1      -7.441  -2.586 131.158  0.00  0.00    -0.503 OA
ATOM     20  H   LIG A   1      -7.740  -3.101 130.387  0.00  0.00    +0.292 HD
ENDBRANCH   5  19
BRANCH   6  21
ATOM     21  O   LIG A   1      -7.820  -0.997 133.309  0.00  0.00    -0.501 OA
ATOM     22  H   LIG A   1      -8.737  -1.219 133.564  0.00  0.00    +0.292 HD
ENDBRANCH   6  21
BRANCH  16  23
ATOM     23  O   LIG A   1      -8.816   5.311 127.766  0.00  0.00    -0.501 OA
ATOM     24  H   LIG A   1      -8.814   4.575 127.127  0.00  0.00    +0.292 HD
ENDBRANCH  16  23
BRANCH  15  25
ATOM     25  O   LIG A   1      -9.139   6.951 129.896  0.00  0.00    -0.457 OA
BRANCH  25  26
ATOM     26  C   LIG A   1     -10.482   7.473 129.869  0.00  0.00    +0.339 C 
ATOM     27  O   LIG A   1     -11.387   6.439 130.275  0.00  0.00    -0.334 OA
ATOM     28  C   LIG A   1     -12.770   6.808 130.270  0.00  0.00    +0.150 C 
ATOM     29  C   LIG A   1     -13.097   7.700 131.463  0.00  0.00    +0.040 C 
ATOM     30  C   LIG A   1     -13.226   7.377 128.908  0.00  0.00    +0.174 C 
ATOM     31  C   LIG A   1     -12.265   8.439 128.376  0.00  0.00    +0.180 C 
ATOM     32  C   LIG A   1     -10.814   7.943 128.432  0.00  0.00    +0.214 C 
BRANCH  30  33
ATOM     33  O   LIG A   1     -13.272   6.327 127.929  0.00  0.00    -0.387 OA
ATOM     34  H   LIG A   1     -14.186   6.265 127.600  0.00  0.00    +0.210 HD
ENDBRANCH  30  33
BRANCH  31  35
ATOM     35  O   LIG A   1     -12.396   9.661 129.116  0.00  0.00    -0.386 OA
ATOM     36  H   LIG A   1     -11.776   9.576 129.869  0.00  0.00    +0.210 HD
ENDBRANCH  31  35
BRANCH  32  37
ATOM     37  O   LIG A   1      -9.977   9.038 128.012  0.00  0.00    -0.383 OA
ATOM     38  H   LIG A   1     -10.531   9.595 127.432  0.00  0.00    +0.210 HD
ENDBRANCH  32  37
ENDBRANCH  25  26
ENDBRANCH  15  25
TORSDOF 8
ENDMDL
MODEL 2
REMARK VINA RESULT:      -8.5      2.666      3.597
REMARK  Name = NuBBE_1242
REMARK  9 active torsions:
REMARK  status: ('A' for Active; 'I' for Inactive)
REMARK    1  A    between atoms: C_5  and  O_6
REMARK    2  A    between atoms: C_7  and  O_8
REMARK    3  A    between atoms: C_17  and  O_18
REMARK    4  A    between atoms: O_18  and  C_19
REMARK    5  A    between atoms: C_22  and  C_24
REMARK    6  A    between atoms: C_25  and  O_27
REMARK    7  A    between atoms: C_28  and  O_30
REMARK    8  A    between atoms: C_31  and  O_33
REMARK    9  A    between atoms: C_34  and  O_35
REMARK                            x       y       z     vdW  Elec       q    Type
REMARK                         _______ _______ _______ _____ _____    ______ ____
ROOT
ATOM      1  O   LIG A   1      -2.874   4.482 131.284  0.00  0.00    -0.244 OA
ATOM      2  C   LIG A   1      -4.065   4.298 131.484  0.00  0.00    +0.345 A 
ATOM      3  C   LIG A   1      -4.566   3.011 132.031  0.00  0.00    +0.074 A 
ATOM      4  C   LIG A   1      -3.662   1.980 132.341  0.00  0.00    +0.065 A 
ATOM      5  C   LIG A   1      -4.152   0.788 132.868  0.00  0.00    +0.163 A 
ATOM      6  C   LIG A   1      -5.518   0.615 133.091  0.00  0.00    +0.202 A 
ATOM      7  C   LIG A   1      -6.402   1.636 132.765  0.00  0.00    +0.185 A 
ATOM      8  O   LIG A   1      -7.787   1.452 132.974  0.00  0.00    -0.418 OA
ATOM      9  C   LIG A   1      -8.746   2.418 132.660  0.00  0.00    +0.345 A 
ATOM     10  O   LIG A   1      -9.938   2.237 132.853  0.00  0.00    -0.244 OA
ATOM     11  C   LIG A   1      -5.936   2.834 132.235  0.00  0.00    +0.047 A 
ATOM     12  C   LIG A   1      -6.870   3.877 131.917  0.00  0.00    +0.047 A 
ATOM     13  C   LIG A   1      -8.238   3.699 132.104  0.00  0.00    +0.074 A 
ATOM     14  C   LIG A   1      -9.130   4.746 131.815  0.00  0.00    +0.065 A 
ATOM     15  C   LIG A   1      -8.649   5.999 131.407  0.00  0.00    +0.170 A 
ATOM     16  C   LIG A   1      -7.276   6.152 131.179  0.00  0.00    +0.203 A 
ATOM     17  C   LIG A   1      -6.405   5.091 131.434  0.00  0.00    +0.185 A 
ATOM     18  O   LIG A   1      -5.020   5.285 131.222  0.00  0.00    -0.418 OA
ENDROOT
BRANCH   5  19
ATOM     19  O   LIG A   1      -3.322  -0.252 133.185  0.00  0.00    -0.503 OA
ATOM     20  H   LIG A   1      -2.405  -0.003 132.973  0.00  0.00    +0.292 HD
ENDBRANCH   5  19
BRANCH   6  21
ATOM     21  O   LIG A   1      -5.970  -0.559 133.621  0.00  0.00    -0.501 OA
ATOM     22  H   LIG A   1      -5.600  -0.597 134.524  0.00  0.00    +0.292 HD
ENDBRANCH   6  21
BRANCH  16  23
ATOM     23  O   LIG A   1      -6.785   7.350 130.738  0.00  0.00    -0.501 OA
ATOM     24  H   LIG A   1      -6.712   7.304 129.767  0.00  0.00    +0.292 HD
ENDBRANCH  16  23
BRANCH  15  25
ATOM     25  O   LIG A   1      -9.439   7.107 131.218  0.00  0.00    -0.457 OA
BRANCH  25  26
ATOM     26  C   LIG A   1     -10.329   7.066 130.085  0.00  0.00    +0.339 C 
ATOM     27  O   LIG A   1      -9.947   8.093 129.163  0.00  0.00    -0.334 OA
ATOM     28  C   LIG A   1     -10.766   8.191 127.992  0.00  0.00    +0.150 C 
ATOM     29  C   LIG A   1     -10.452   7.060 127.017  0.00  0.00    +0.040 C 
ATOM     30  C   LIG A   1     -12.265   8.340 128.329  0.00  0.00    +0.174 C 
ATOM     31  C   LIG A   1     -12.729   7.319 129.366  0.00  0.00    +0.180 C 
ATOM     32  C   LIG A   1     -11.780   7.294 130.573  0.00  0.00    +0.214 C 
BRANCH  30  33
ATOM     33  O   LIG A   1     -12.514   9.642 128.884  0.00  0.00    -0.387 OA
ATOM     34  H   LIG A   1     -12.345  10.301 128.188  0.00  0.00    +0.210 HD
ENDBRANCH  30  33
BRANCH  31  35
ATOM     35  O   LIG A   1     -12.822   6.010 128.787  0.00  0.00    -0.386 OA
ATOM     36  H   LIG A   1     -13.708   5.972 128.372  0.00  0.00    +0.210 HD
ENDBRANCH  31  35
BRANCH  32  37
ATOM     37  O   LIG A   1     -12.233   6.238 131.443  0.00  0.00    -0.383 OA
ATOM     38  H   LIG A   1     -12.094   6.561 132.354  0.00  0.00    +0.210 HD
ENDBRANCH  32  37
ENDBRANCH  25  26
ENDBRANCH  15  25
TORSDOF 8
ENDMDL
MODEL 3
REMARK VINA RESULT:      -8.3      2.804      5.443
REMARK  Name = NuBBE_1242
REMARK  9 active torsions:
REMARK  status: ('A' for Active; 'I' for Inactive)
REMARK    1  A    between atoms: C_5  and  O_6
REMARK    2  A    between atoms: C_7  and  O_8
REMARK    3  A    between atoms: C_17  and  O_18
REMARK    4  A    between atoms: O_18  and  C_19
REMARK    5  A    between atoms: C_22  and  C_24
REMARK    6  A    between atoms: C_25  and  O_27
REMARK    7  A    between atoms: C_28  and  O_30
REMARK    8  A    between atoms: C_31  and  O_33
REMARK    9  A    between atoms: C_34  and  O_35
REMARK                            x       y       z     vdW  Elec       q    Type
REMARK                         _______ _______ _______ _____ _____    ______ ____
ROOT
ATOM      1  O   LIG A   1      -7.764  -2.734 128.730  0.00  0.00    -0.244 OA
ATOM      2  C   LIG A   1      -7.876  -1.644 128.189  0.00  0.00    +0.345 A 
ATOM      3  C   LIG A   1      -8.195  -1.528 126.743  0.00  0.00    +0.074 A 
ATOM      4  C   LIG A   1      -8.388  -2.686 125.971  0.00  0.00    +0.065 A 
ATOM      5  C   LIG A   1      -8.703  -2.554 124.622  0.00  0.00    +0.163 A 
ATOM      6  C   LIG A   1      -8.830  -1.293 124.039  0.00  0.00    +0.202 A 
ATOM      7  C   LIG A   1      -8.621  -0.156 124.810  0.00  0.00    +0.185 A 
ATOM      8  O   LIG A   1      -8.732   1.120 124.215  0.00  0.00    -0.418 OA
ATOM      9  C   LIG A   1      -8.522   2.313 124.910  0.00  0.00    +0.345 A 
ATOM     10  O   LIG A   1      -8.628   3.405 124.374  0.00  0.00    -0.244 OA
ATOM     11  C   LIG A   1      -8.303  -0.264 126.159  0.00  0.00    +0.047 A 
ATOM     12  C   LIG A   1      -8.103   0.927 126.935  0.00  0.00    +0.047 A 
ATOM     13  C   LIG A   1      -8.193   2.188 126.354  0.00  0.00    +0.074 A 
ATOM     14  C   LIG A   1      -8.025   3.340 127.141  0.00  0.00    +0.065 A 
ATOM     15  C   LIG A   1      -7.836   3.234 128.527  0.00  0.00    +0.170 A 
ATOM     16  C   LIG A   1      -7.701   1.961 129.093  0.00  0.00    +0.203 A 
ATOM     17  C   LIG A   1      -7.833   0.825 128.292  0.00  0.00    +0.185 A 
ATOM     18  O   LIG A   1      -7.721  -0.448 128.897  0.00  0.00    -0.418 OA
ENDROOT
BRANCH   5  19
ATOM     19  O   LIG A   1      -8.897  -3.644 123.819  0.00  0.00    -0.503 OA
ATOM     20  H   LIG A   1      -9.843  -3.708 123.593  0.00  0.00    +0.292 HD
ENDBRANCH   5  19
BRANCH   6  21
ATOM     21  O   LIG A   1      -9.152  -1.191 122.717  0.00  0.00    -0.501 OA
ATOM     22  H   LIG A   1      -8.863  -0.298 122.445  0.00  0.00    +0.292 HD
ENDBRANCH   6  21
BRANCH  16  23
ATOM     23  O   LIG A   1      -7.472   1.830 130.435  0.00  0.00    -0.501 OA
ATOM     24  H   LIG A   1      -7.166   2.692 130.772  0.00  0.00    +0.292 HD
ENDBRANCH  16  23
BRANCH  15  25
ATOM     25  O   LIG A   1      -7.780   4.306 129.384  0.00  0.00    -0.457 OA
BRANCH  25  26
ATOM     26  C   LIG A   1      -8.979   5.100 129.487  0.00  0.00    +0.339 C 
ATOM     27  O   LIG A   1      -8.628   6.404 129.966  0.00  0.00    -0.334 OA
ATOM     28  C   LIG A   1      -9.730   7.300 130.144  0.00  0.00    +0.150 C 
ATOM     29  C   LIG A   1     -10.229   7.819 128.799  0.00  0.00    +0.040 C 
ATOM     30  C   LIG A   1     -10.835   6.707 131.045  0.00  0.00    +0.174 C 
ATOM     31  C   LIG A   1     -11.211   5.284 130.637  0.00  0.00    +0.180 C 
ATOM     32  C   LIG A   1      -9.958   4.413 130.469  0.00  0.00    +0.214 C 
BRANCH  30  33
ATOM     33  O   LIG A   1     -10.377   6.645 132.405  0.00  0.00    -0.387 OA
ATOM     34  H   LIG A   1      -9.444   6.925 132.419  0.00  0.00    +0.210 HD
ENDBRANCH  30  33
BRANCH  31  35
ATOM     35  O   LIG A   1     -11.975   5.287 129.423  0.00  0.00    -0.386 OA
ATOM     36  H   LIG A   1     -11.477   4.717 128.802  0.00  0.00    +0.210 HD
ENDBRANCH  31  35
BRANCH  32  37
ATOM     37  O   LIG A   1     -10.400   3.128 129.987  0.00  0.00    -0.383 OA
ATOM     38  H   LIG A   1     -10.899   3.304 129.167  0.00  0.00    +0.210 HD
ENDBRANCH  32  37
ENDBRANCH  25  26
ENDBRANCH  15  25
TORSDOF 8
ENDMDL
MODEL 4
REMARK VINA RESULT:      -8.2      4.827      7.126
REMARK  Name = NuBBE_1242
REMARK  9 active torsions:
REMARK  status: ('A' for Active; 'I' for Inactive)
REMARK    1  A    between atoms: C_5  and  O_6
REMARK    2  A    between atoms: C_7  and  O_8
REMARK    3  A    between atoms: C_17  and  O_18
REMARK    4  A    between atoms: O_18  and  C_19
REMARK    5  A    between atoms: C_22  and  C_24
REMARK    6  A    between atoms: C_25  and  O_27
REMARK    7  A    between atoms: C_28  and  O_30
REMARK    8  A    between atoms: C_31  and  O_33
REMARK    9  A    between atoms: C_34  and  O_35
REMARK                            x       y       z     vdW  Elec       q    Type
REMARK                         _______ _______ _______ _____ _____    ______ ____
ROOT
ATOM      1  O   LIG A   1      -5.323  -1.392 125.216  0.00  0.00    -0.244 OA
ATOM      2  C   LIG A   1      -5.703  -0.249 125.425  0.00  0.00    +0.345 A 
ATOM      3  C   LIG A   1      -7.007   0.238 124.907  0.00  0.00    +0.074 A 
ATOM      4  C   LIG A   1      -7.837  -0.625 124.171  0.00  0.00    +0.065 A 
ATOM      5  C   LIG A   1      -9.063  -0.154 123.709  0.00  0.00    +0.163 A 
ATOM      6  C   LIG A   1      -9.468   1.155 123.973  0.00  0.00    +0.202 A 
ATOM      7  C   LIG A   1      -8.631   2.003 124.688  0.00  0.00    +0.185 A 
ATOM      8  O   LIG A   1      -9.034   3.333 124.938  0.00  0.00    -0.418 OA
ATOM      9  C   LIG A   1      -8.249   4.256 125.633  0.00  0.00    +0.345 A 
ATOM     10  O   LIG A   1      -8.621   5.400 125.841  0.00  0.00    -0.244 OA
ATOM     11  C   LIG A   1      -7.402   1.554 125.157  0.00  0.00    +0.047 A 
ATOM     12  C   LIG A   1      -6.560   2.446 125.902  0.00  0.00    +0.047 A 
ATOM     13  C   LIG A   1      -6.941   3.764 126.140  0.00  0.00    +0.074 A 
ATOM     14  C   LIG A   1      -6.116   4.610 126.899  0.00  0.00    +0.065 A 
ATOM     15  C   LIG A   1      -4.939   4.119 127.484  0.00  0.00    +0.170 A 
ATOM     16  C   LIG A   1      -4.542   2.807 127.200  0.00  0.00    +0.203 A 
ATOM     17  C   LIG A   1      -5.354   1.989 126.413  0.00  0.00    +0.185 A 
ATOM     18  O   LIG A   1      -4.942   0.658 126.168  0.00  0.00    -0.418 OA
ENDROOT
BRANCH   5  19
ATOM     19  O   LIG A   1      -9.911  -0.944 122.985  0.00  0.00    -0.503 OA
ATOM     20  H   LIG A   1     -10.800  -0.904 123.381  0.00  0.00    +0.292 HD
ENDBRANCH   5  19
BRANCH   6  21
ATOM     21  O   LIG A   1     -10.680   1.589 123.520  0.00  0.00    -0.501 OA
ATOM     22  H   LIG A   1     -11.326   1.315 124.200  0.00  0.00    +0.292 HD
ENDBRANCH   6  21
BRANCH  16  23
ATOM     23  O   LIG A   1      -3.377   2.317 127.722  0.00  0.00    -0.501 OA
ATOM     24  H   LIG A   1      -3.449   1.345 127.753  0.00  0.00    +0.292 HD
ENDBRANCH  16  23
BRANCH  15  25
ATOM     25  O   LIG A   1      -4.138   4.842 128.334  0.00  0.00    -0.457 OA
BRANCH  25  26
ATOM     26  C   LIG A   1      -4.704   5.164 129.620  0.00  0.00    +0.339 C 
ATOM     27  O   LIG A   1      -4.811   6.588 129.733  0.00  0.00    -0.334 OA
ATOM     28  C   LIG A   1      -5.336   7.058 130.979  0.00  0.00    +0.150 C 
ATOM     29  C   LIG A   1      -6.845   6.839 131.048  0.00  0.00    +0.040 C 
ATOM     30  C   LIG A   1      -4.559   6.508 132.195  0.00  0.00    +0.174 C 
ATOM     31  C   LIG A   1      -4.342   4.999 132.106  0.00  0.00    +0.180 C 
ATOM     32  C   LIG A   1      -3.784   4.604 130.732  0.00  0.00    +0.214 C 
BRANCH  30  33
ATOM     33  O   LIG A   1      -3.258   7.114 132.258  0.00  0.00    -0.387 OA
ATOM     34  H   LIG A   1      -2.936   7.035 133.174  0.00  0.00    +0.210 HD
ENDBRANCH  30  33
BRANCH  31  35
ATOM     35  O   LIG A   1      -5.564   4.292 132.361  0.00  0.00    -0.386 OA
ATOM     36  H   LIG A   1      -5.295   3.451 132.784  0.00  0.00    +0.210 HD
ENDBRANCH  31  35
BRANCH  32  37
ATOM     37  O   LIG A   1      -3.710   3.165 130.703  0.00  0.00    -0.383 OA
ATOM     38  H   LIG A   1      -4.344   2.849 131.375  0.00  0.00    +0.210 HD
ENDBRANCH  32  37
ENDBRANCH  25  26
ENDBRANCH  15  25
TORSDOF 8
ENDMDL
MODEL 5
REMARK VINA RESULT:      -8.2      6.346      9.630
REMARK  Name = NuBBE_1242
REMARK  9 active torsions:
REMARK  status: ('A' for Active; 'I' for Inactive)
REMARK    1  A    between atoms: C_5  and  O_6
REMARK    2  A    between atoms: C_7  and  O_8
REMARK    3  A    between atoms: C_17  and  O_18
REMARK    4  A    between atoms: O_18  and  C_19
REMARK    5  A    between atoms: C_22  and  C_24
REMARK    6  A    between atoms: C_25  and  O_27
REMARK    7  A    between atoms: C_28  and  O_30
REMARK    8  A    between atoms: C_31  and  O_33
REMARK    9  A    between atoms: C_34  and  O_35
REMARK                            x       y       z     vdW  Elec       q    Type
REMARK                         _______ _______ _______ _____ _____    ______ ____
ROOT
ATOM      1  O   LIG A   1     -10.137  -0.678 122.711  0.00  0.00    -0.244 OA
ATOM      2  C   LIG A   1      -9.182  -0.432 123.432  0.00  0.00    +0.345 A 
ATOM      3  C   LIG A   1      -8.480   0.876 123.364  0.00  0.00    +0.074 A 
ATOM      4  C   LIG A   1      -8.920   1.863 122.467  0.00  0.00    +0.065 A 
ATOM      5  C   LIG A   1      -8.258   3.087 122.431  0.00  0.00    +0.163 A 
ATOM      6  C   LIG A   1      -7.175   3.337 123.274  0.00  0.00    +0.202 A 
ATOM      7  C   LIG A   1      -6.740   2.346 124.146  0.00  0.00    +0.185 A 
ATOM      8  O   LIG A   1      -5.632   2.594 124.985  0.00  0.00    -0.418 OA
ATOM      9  C   LIG A   1      -5.118   1.650 125.878  0.00  0.00    +0.345 A 
ATOM     10  O   LIG A   1      -4.162   1.889 126.598  0.00  0.00    -0.244 OA
ATOM     11  C   LIG A   1      -7.385   1.116 124.196  0.00  0.00    +0.047 A 
ATOM     12  C   LIG A   1      -6.922   0.113 125.113  0.00  0.00    +0.047 A 
ATOM     13  C   LIG A   1      -5.821   0.341 125.934  0.00  0.00    +0.074 A 
ATOM     14  C   LIG A   1      -5.406  -0.644 126.846  0.00  0.00    +0.065 A 
ATOM     15  C   LIG A   1      -6.136  -1.833 126.991  0.00  0.00    +0.170 A 
ATOM     16  C   LIG A   1      -7.213  -2.071 126.130  0.00  0.00    +0.203 A 
ATOM     17  C   LIG A   1      -7.591  -1.099 125.202  0.00  0.00    +0.185 A 
ATOM     18  O   LIG A   1      -8.702  -1.356 124.365  0.00  0.00    -0.418 OA
ENDROOT
BRANCH   5  19
ATOM     19  O   LIG A   1      -8.637   4.085 121.576  0.00  0.00    -0.503 OA
ATOM     20  H   LIG A   1      -9.386   3.774 121.036  0.00  0.00    +0.292 HD
ENDBRANCH   5  19
BRANCH   6  21
ATOM     21  O   LIG A   1      -6.552   4.550 123.229  0.00  0.00    -0.501 OA
ATOM     22  H   LIG A   1      -6.312   4.756 124.154  0.00  0.00    +0.292 HD
ENDBRANCH   6  21
BRANCH  16  23
ATOM     23  O   LIG A   1      -7.915  -3.241 126.220  0.00  0.00    -0.501 OA
ATOM     24  H   LIG A   1      -7.279  -3.977 126.155  0.00  0.00    +0.292 HD
ENDBRANCH  16  23
BRANCH  15  25
ATOM     25  O   LIG A   1      -5.870  -2.793 127.937  0.00  0.00    -0.457 OA
BRANCH  25  26
ATOM     26  C   LIG A   1      -6.055  -2.399 129.311  0.00  0.00    +0.339 C 
ATOM     27  O   LIG A   1      -4.818  -2.575 130.011  0.00  0.00    -0.334 OA
ATOM     28  C   LIG A   1      -4.858  -2.246 131.404  0.00  0.00    +0.150 C 
ATOM     29  C   LIG A   1      -4.871  -0.734 131.603  0.00  0.00    +0.040 C 
ATOM     30  C   LIG A   1      -5.980  -2.995 132.156  0.00  0.00    +0.174 C 
ATOM     31  C   LIG A   1      -7.319  -2.913 131.427  0.00  0.00    +0.180 C 
ATOM     32  C   LIG A   1      -7.160  -3.278 129.945  0.00  0.00    +0.214 C 
BRANCH  30  33
ATOM     33  O   LIG A   1      -5.649  -4.389 132.266  0.00  0.00    -0.387 OA
ATOM     34  H   LIG A   1      -6.397  -4.902 131.912  0.00  0.00    +0.210 HD
ENDBRANCH  30  33
BRANCH  31  35
ATOM     35  O   LIG A   1      -7.887  -1.601 131.551  0.00  0.00    -0.386 OA
ATOM     36  H   LIG A   1      -7.678  -1.146 130.710  0.00  0.00    +0.210 HD
ENDBRANCH  31  35
BRANCH  32  37
ATOM     37  O   LIG A   1      -8.443  -3.073 129.320  0.00  0.00    -0.383 OA
ATOM     38  H   LIG A   1      -8.828  -2.283 129.744  0.00  0.00    +0.210 HD
ENDBRANCH  32  37
ENDBRANCH  25  26
ENDBRANCH  15  25
TORSDOF 8
ENDMDL
MODEL 6
REMARK VINA RESULT:      -8.2      1.145      2.172
REMARK  Name = NuBBE_1242
REMARK  9 active torsions:
REMARK  status: ('A' for Active; 'I' for Inactive)
REMARK    1  A    between atoms: C_5  and  O_6
REMARK    2  A    between atoms: C_7  and  O_8
REMARK    3  A    between atoms: C_17  and  O_18
REMARK    4  A    between atoms: O_18  and  C_19
REMARK    5  A    between atoms: C_22  and  C_24
REMARK    6  A    between atoms: C_25  and  O_27
REMARK    7  A    between atoms: C_28  and  O_30
REMARK    8  A    between atoms: C_31  and  O_33
REMARK    9  A    between atoms: C_34  and  O_35
REMARK                            x       y       z     vdW  Elec       q    Type
REMARK                         _______ _______ _______ _____ _____    ______ ____
ROOT
ATOM      1  O   LIG A   1      -6.814   0.648 126.178  0.00  0.00    -0.244 OA
ATOM      2  C   LIG A   1      -7.265   1.064 127.235  0.00  0.00    +0.345 A 
ATOM      3  C   LIG A   1      -7.380   0.183 128.426  0.00  0.00    +0.074 A 
ATOM      4  C   LIG A   1      -6.953  -1.154 128.353  0.00  0.00    +0.065 A 
ATOM      5  C   LIG A   1      -7.054  -1.957 129.486  0.00  0.00    +0.163 A 
ATOM      6  C   LIG A   1      -7.567  -1.447 130.678  0.00  0.00    +0.202 A 
ATOM      7  C   LIG A   1      -8.000  -0.128 130.732  0.00  0.00    +0.185 A 
ATOM      8  O   LIG A   1      -8.536   0.382 131.934  0.00  0.00    -0.418 OA
ATOM      9  C   LIG A   1      -9.010   1.689 132.071  0.00  0.00    +0.345 A 
ATOM     10  O   LIG A   1      -9.466   2.109 133.123  0.00  0.00    -0.244 OA
ATOM     11  C   LIG A   1      -7.911   0.692 129.612  0.00  0.00    +0.047 A 
ATOM     12  C   LIG A   1      -8.355   2.054 129.697  0.00  0.00    +0.047 A 
ATOM     13  C   LIG A   1      -8.901   2.562 130.873  0.00  0.00    +0.074 A 
ATOM     14  C   LIG A   1      -9.299   3.907 130.941  0.00  0.00    +0.065 A 
ATOM     15  C   LIG A   1      -9.087   4.769 129.854  0.00  0.00    +0.170 A 
ATOM     16  C   LIG A   1      -8.580   4.237 128.662  0.00  0.00    +0.203 A 
ATOM     17  C   LIG A   1      -8.224   2.890 128.597  0.00  0.00    +0.185 A 
ATOM     18  O   LIG A   1      -7.688   2.388 127.388  0.00  0.00    -0.418 OA
ENDROOT
BRANCH   5  19
ATOM     19  O   LIG A   1      -6.660  -3.267 129.476  0.00  0.00    -0.503 OA
ATOM     20  H   LIG A   1      -5.777  -3.330 129.069  0.00  0.00    +0.292 HD
ENDBRANCH   5  19
BRANCH   6  21
ATOM     21  O   LIG A   1      -7.643  -2.252 131.778  0.00  0.00    -0.501 OA
ATOM     22  H   LIG A   1      -8.099  -3.063 131.477  0.00  0.00    +0.292 HD
ENDBRANCH   6  21
BRANCH  16  23
ATOM     23  O   LIG A   1      -8.405   5.046 127.574  0.00  0.00    -0.501 OA
ATOM     24  H   LIG A   1      -9.141   4.880 126.956  0.00  0.00    +0.292 HD
ENDBRANCH  16  23
BRANCH  15  25
ATOM     25  O   LIG A   1      -9.338   6.119 129.878  0.00  0.00    -0.457 OA
BRANCH  25  26
ATOM     26  C   LIG A   1     -10.508   6.560 129.162  0.00  0.00    +0.339 C 
ATOM     27  O   LIG A   1     -10.135   7.633 128.288  0.00  0.00    -0.334 OA
ATOM     28  C   LIG A   1     -11.210   8.194 127.526  0.00  0.00    +0.150 C 
ATOM     29  C   LIG A   1     -11.604   7.266 126.381  0.00  0.00    +0.040 C 
ATOM     30  C   LIG A   1     -12.392   8.645 128.413  0.00  0.00    +0.174 C 
ATOM     31  C   LIG A   1     -12.798   7.574 129.423  0.00  0.00    +0.180 C 
ATOM     32  C   LIG A   1     -11.572   7.039 130.177  0.00  0.00    +0.214 C 
BRANCH  30  33
ATOM     33  O   LIG A   1     -12.021   9.811 129.167  0.00  0.00    -0.387 OA
ATOM     34  H   LIG A   1     -12.776  10.056 129.729  0.00  0.00    +0.210 HD
ENDBRANCH  30  33
BRANCH  31  35
ATOM     35  O   LIG A   1     -13.484   6.495 128.773  0.00  0.00    -0.386 OA
ATOM     36  H   LIG A   1     -14.389   6.828 128.602  0.00  0.00    +0.210 HD
ENDBRANCH  31  35
BRANCH  32  37
ATOM     37  O   LIG A   1     -12.034   5.970 131.027  0.00  0.00    -0.383 OA
ATOM     38  H   LIG A   1     -12.997   6.096 131.122  0.00  0.00    +0.210 HD
ENDBRANCH  32  37
ENDBRANCH  25  26
ENDBRANCH  15  25
TORSDOF 8
ENDMDL
MODEL 7
REMARK VINA RESULT:      -8.2      6.033      8.167
REMARK  Name = NuBBE_1242
REMARK  9 active torsions:
REMARK  status: ('A' for Active; 'I' for Inactive)
REMARK    1  A    between atoms: C_5  and  O_6
REMARK    2  A    between atoms: C_7  and  O_8
REMARK    3  A    between atoms: C_17  and  O_18
REMARK    4  A    between atoms: O_18  and  C_19
REMARK    5  A    between atoms: C_22  and  C_24
REMARK    6  A    between atoms: C_25  and  O_27
REMARK    7  A    between atoms: C_28  and  O_30
REMARK    8  A    between atoms: C_31  and  O_33
REMARK    9  A    between atoms: C_34  and  O_35
REMARK                            x       y       z     vdW  Elec       q    Type
REMARK                         _______ _______ _______ _____ _____    ______ ____
ROOT
ATOM      1  O   LIG A   1      -8.279  -1.383 126.572  0.00  0.00    -0.244 OA
ATOM      2  C   LIG A   1      -7.686  -0.368 126.240  0.00  0.00    +0.345 A 
ATOM      3  C   LIG A   1      -8.112   0.424 125.058  0.00  0.00    +0.074 A 
ATOM      4  C   LIG A   1      -9.227   0.017 124.305  0.00  0.00    +0.065 A 
ATOM      5  C   LIG A   1      -9.619   0.783 123.211  0.00  0.00    +0.163 A 
ATOM      6  C   LIG A   1      -8.922   1.940 122.864  0.00  0.00    +0.202 A 
ATOM      7  C   LIG A   1      -7.812   2.323 123.607  0.00  0.00    +0.185 A 
ATOM      8  O   LIG A   1      -7.097   3.485 123.245  0.00  0.00    -0.418 OA
ATOM      9  C   LIG A   1      -5.962   3.933 123.925  0.00  0.00    +0.345 A 
ATOM     10  O   LIG A   1      -5.362   4.944 123.595  0.00  0.00    -0.244 OA
ATOM     11  C   LIG A   1      -7.401   1.572 124.703  0.00  0.00    +0.047 A 
ATOM     12  C   LIG A   1      -6.258   1.995 125.461  0.00  0.00    +0.047 A 
ATOM     13  C   LIG A   1      -5.536   3.130 125.101  0.00  0.00    +0.074 A 
ATOM     14  C   LIG A   1      -4.440   3.542 125.877  0.00  0.00    +0.065 A 
ATOM     15  C   LIG A   1      -4.106   2.860 127.057  0.00  0.00    +0.170 A 
ATOM     16  C   LIG A   1      -4.809   1.695 127.384  0.00  0.00    +0.203 A 
ATOM     17  C   LIG A   1      -5.872   1.276 126.582  0.00  0.00    +0.185 A 
ATOM     18  O   LIG A   1      -6.583   0.111 126.954  0.00  0.00    -0.418 OA
ENDROOT
BRANCH   5  19
ATOM     19  O   LIG A   1     -10.692   0.435 122.437  0.00  0.00    -0.503 OA
ATOM     20  H   LIG A   1     -10.412   0.395 121.505  0.00  0.00    +0.292 HD
ENDBRANCH   5  19
BRANCH   6  21
ATOM     21  O   LIG A   1      -9.335   2.681 121.795  0.00  0.00    -0.501 OA
ATOM     22  H   LIG A   1      -9.985   3.317 122.153  0.00  0.00    +0.292 HD
ENDBRANCH   6  21
BRANCH  16  23
ATOM     23  O   LIG A   1      -4.475   0.987 128.505  0.00  0.00    -0.501 OA
ATOM     24  H   LIG A   1      -3.587   0.610 128.367  0.00  0.00    +0.292 HD
ENDBRANCH  16  23
BRANCH  15  25
ATOM     25  O   LIG A   1      -3.127   3.264 127.933  0.00  0.00    -0.457 OA
BRANCH  25  26
ATOM     26  C   LIG A   1      -3.389   4.480 128.661  0.00  0.00    +0.339 C 
ATOM     27  O   LIG A   1      -2.305   5.390 128.443  0.00  0.00    -0.334 OA
ATOM     28  C   LIG A   1      -2.416   6.640 129.133  0.00  0.00    +0.150 C 
ATOM     29  C   LIG A   1      -3.441   7.543 128.454  0.00  0.00    +0.040 C 
ATOM     30  C   LIG A   1      -2.634   6.461 130.651  0.00  0.00    +0.174 C 
ATOM     31  C   LIG A   1      -3.732   5.445 130.961  0.00  0.00    +0.180 C 
ATOM     32  C   LIG A   1      -3.519   4.149 130.167  0.00  0.00    +0.214 C 
BRANCH  30  33
ATOM     33  O   LIG A   1      -1.430   5.975 131.265  0.00  0.00    -0.387 OA
ATOM     34  H   LIG A   1      -1.538   5.020 131.419  0.00  0.00    +0.210 HD
ENDBRANCH  30  33
BRANCH  31  35
ATOM     35  O   LIG A   1      -5.027   5.991 130.673  0.00  0.00    -0.386 OA
ATOM     36  H   LIG A   1      -4.870   6.704 130.022  0.00  0.00    +0.210 HD
ENDBRANCH  31  35
BRANCH  32  37
ATOM     37  O   LIG A   1      -4.649   3.296 130.441  0.00  0.00    -0.383 OA
ATOM     38  H   LIG A   1      -5.443   3.848 130.306  0.00  0.00    +0.210 HD
ENDBRANCH  32  37
ENDBRANCH  25  26
ENDBRANCH  15  25
TORSDOF 8
ENDMDL
MODEL 8
REMARK VINA RESULT:      -8.1      4.138      6.971
REMARK  Name = NuBBE_1242
REMARK  9 active torsions:
REMARK  status: ('A' for Active; 'I' for Inactive)
REMARK    1  A    between atoms: C_5  and  O_6
REMARK    2  A    between atoms: C_7  and  O_8
REMARK    3  A    between atoms: C_17  and  O_18
REMARK    4  A    between atoms: O_18  and  C_19
REMARK    5  A    between atoms: C_22  and  C_24
REMARK    6  A    between atoms: C_25  and  O_27
REMARK    7  A    between atoms: C_28  and  O_30
REMARK    8  A    between atoms: C_31  and  O_33
REMARK    9  A    between atoms: C_34  and  O_35
REMARK                            x       y       z     vdW  Elec       q    Type
REMARK                         _______ _______ _______ _____ _____    ______ ____
ROOT
ATOM      1  O   LIG A   1      -9.818   1.800 123.220  0.00  0.00    -0.244 OA
ATOM      2  C   LIG A   1      -8.945   2.228 123.962  0.00  0.00    +0.345 A 
ATOM      3  C   LIG A   1      -7.738   2.906 123.424  0.00  0.00    +0.074 A 
ATOM      4  C   LIG A   1      -7.589   3.078 122.038  0.00  0.00    +0.065 A 
ATOM      5  C   LIG A   1      -6.457   3.731 121.556  0.00  0.00    +0.163 A 
ATOM      6  C   LIG A   1      -5.485   4.213 122.432  0.00  0.00    +0.202 A 
ATOM      7  C   LIG A   1      -5.637   4.022 123.800  0.00  0.00    +0.185 A 
ATOM      8  O   LIG A   1      -4.644   4.494 124.685  0.00  0.00    -0.418 OA
ATOM      9  C   LIG A   1      -4.708   4.331 126.071  0.00  0.00    +0.345 A 
ATOM     10  O   LIG A   1      -3.838   4.752 126.817  0.00  0.00    -0.244 OA
ATOM     11  C   LIG A   1      -6.758   3.371 124.303  0.00  0.00    +0.047 A 
ATOM     12  C   LIG A   1      -6.897   3.196 125.721  0.00  0.00    +0.047 A 
ATOM     13  C   LIG A   1      -5.915   3.643 126.601  0.00  0.00    +0.074 A 
ATOM     14  C   LIG A   1      -6.088   3.490 127.987  0.00  0.00    +0.065 A 
ATOM     15  C   LIG A   1      -7.277   2.953 128.501  0.00  0.00    +0.170 A 
ATOM     16  C   LIG A   1      -8.238   2.465 127.606  0.00  0.00    +0.203 A 
ATOM     17  C   LIG A   1      -8.035   2.590 126.231  0.00  0.00    +0.185 A 
ATOM     18  O   LIG A   1      -9.037   2.114 125.352  0.00  0.00    -0.418 OA
ENDROOT
BRANCH   5  19
ATOM     19  O   LIG A   1      -6.254   3.924 120.217  0.00  0.00    -0.503 OA
ATOM     20  H   LIG A   1      -5.342   4.236 120.076  0.00  0.00    +0.292 HD
ENDBRANCH   5  19
BRANCH   6  21
ATOM     21  O   LIG A   1      -4.392   4.861 121.935  0.00  0.00    -0.501 OA
ATOM     22  H   LIG A   1      -4.683   5.781 121.778  0.00  0.00    +0.292 HD
ENDBRANCH   6  21
BRANCH  16  23
ATOM     23  O   LIG A   1      -9.388   1.896 128.081  0.00  0.00    -0.501 OA
ATOM     24  H   LIG A   1      -9.197   0.962 128.283  0.00  0.00    +0.292 HD
ENDBRANCH  16  23
BRANCH  15  25
ATOM     25  O   LIG A   1      -7.576   2.876 129.840  0.00  0.00    -0.457 OA
BRANCH  25  26
ATOM     26  C   LIG A   1      -7.990   4.104 130.469  0.00  0.00    +0.339 C 
ATOM     27  O   LIG A   1      -7.080   4.404 131.534  0.00  0.00    -0.334 OA
ATOM     28  C   LIG A   1      -7.383   5.593 132.273  0.00  0.00    +0.150 C 
ATOM     29  C   LIG A   1      -7.013   6.838 131.472  0.00  0.00    +0.040 C 
ATOM     30  C   LIG A   1      -8.828   5.597 132.820  0.00  0.00    +0.174 C 
ATOM     31  C   LIG A   1      -9.851   5.212 131.753  0.00  0.00    +0.180 C 
ATOM     32  C   LIG A   1      -9.425   3.932 131.021  0.00  0.00    +0.214 C 
BRANCH  30  33
ATOM     33  O   LIG A   1      -8.951   4.637 133.882  0.00  0.00    -0.387 OA
ATOM     34  H   LIG A   1      -9.899   4.461 134.017  0.00  0.00    +0.210 HD
ENDBRANCH  30  33
BRANCH  31  35
ATOM     35  O   LIG A   1     -10.031   6.280 130.812  0.00  0.00    -0.386 OA
ATOM     36  H   LIG A   1      -9.299   6.906 130.986  0.00  0.00    +0.210 HD
ENDBRANCH  31  35
BRANCH  32  37
ATOM     37  O   LIG A   1     -10.388   3.706 129.973  0.00  0.00    -0.383 OA
ATOM     38  H   LIG A   1     -10.768   4.580 129.762  0.00  0.00    +0.210 HD
ENDBRANCH  32  37
ENDBRANCH  25  26
ENDBRANCH  15  25
TORSDOF 8
ENDMDL
MODEL 9
REMARK VINA RESULT:      -8.1      5.266      6.997
REMARK  Name = NuBBE_1242
REMARK  9 active torsions:
REMARK  status: ('A' for Active; 'I' for Inactive)
REMARK    1  A    between atoms: C_5  and  O_6
REMARK    2  A    between atoms: C_7  and  O_8
REMARK    3  A    between atoms: C_17  and  O_18
REMARK    4  A    between atoms: O_18  and  C_19
REMARK    5  A    between atoms: C_22  and  C_24
REMARK    6  A    between atoms: C_25  and  O_27
REMARK    7  A    between atoms: C_28  and  O_30
REMARK    8  A    between atoms: C_31  and  O_33
REMARK    9  A    between atoms: C_34  and  O_35
REMARK                            x       y       z     vdW  Elec       q    Type
REMARK                         _______ _______ _______ _____ _____    ______ ____
ROOT
ATOM      1  O   LIG A   1      -9.185   2.658 122.118  0.00  0.00    -0.244 OA
ATOM      2  C   LIG A   1      -8.461   2.437 123.078  0.00  0.00    +0.345 A 
ATOM      3  C   LIG A   1      -8.372   1.084 123.683  0.00  0.00    +0.074 A 
ATOM      4  C   LIG A   1      -9.119   0.023 123.144  0.00  0.00    +0.065 A 
ATOM      5  C   LIG A   1      -9.007  -1.241 123.716  0.00  0.00    +0.163 A 
ATOM      6  C   LIG A   1      -8.165  -1.459 124.807  0.00  0.00    +0.202 A 
ATOM      7  C   LIG A   1      -7.444  -0.397 125.340  0.00  0.00    +0.185 A 
ATOM      8  O   LIG A   1      -6.605  -0.614 126.455  0.00  0.00    -0.418 OA
ATOM      9  C   LIG A   1      -5.858   0.397 127.064  0.00  0.00    +0.345 A 
ATOM     10  O   LIG A   1      -5.137   0.184 128.025  0.00  0.00    -0.244 OA
ATOM     11  C   LIG A   1      -7.542   0.874 124.786  0.00  0.00    +0.047 A 
ATOM     12  C   LIG A   1      -6.777   1.951 125.349  0.00  0.00    +0.047 A 
ATOM     13  C   LIG A   1      -5.961   1.751 126.458  0.00  0.00    +0.074 A 
ATOM     14  C   LIG A   1      -5.198   2.813 126.972  0.00  0.00    +0.065 A 
ATOM     15  C   LIG A   1      -5.195   4.062 126.333  0.00  0.00    +0.170 A 
ATOM     16  C   LIG A   1      -6.054   4.264 125.247  0.00  0.00    +0.203 A 
ATOM     17  C   LIG A   1      -6.835   3.210 124.770  0.00  0.00    +0.185 A 
ATOM     18  O   LIG A   1      -7.671   3.437 123.653  0.00  0.00    -0.418 OA
ENDROOT
BRANCH   5  19
ATOM     19  O   LIG A   1      -9.713  -2.312 123.239  0.00  0.00    -0.503 OA
ATOM     20  H   LIG A   1     -10.309  -2.636 123.938  0.00  0.00    +0.292 HD
ENDBRANCH   5  19
BRANCH   6  21
ATOM     21  O   LIG A   1      -8.064  -2.710 125.341  0.00  0.00    -0.501 OA
ATOM     22  H   LIG A   1      -7.499  -3.214 124.722  0.00  0.00    +0.292 HD
ENDBRANCH   6  21
BRANCH  16  23
ATOM     23  O   LIG A   1      -6.103   5.486 124.633  0.00  0.00    -0.501 OA
ATOM     24  H   LIG A   1      -6.711   6.052 125.142  0.00  0.00    +0.292 HD
ENDBRANCH  16  23
BRANCH  15  25
ATOM     25  O   LIG A   1      -4.391   5.115 126.698  0.00  0.00    -0.457 OA
BRANCH  25  26
ATOM     26  C   LIG A   1      -4.231   5.330 128.114  0.00  0.00    +0.339 C 
ATOM     27  O   LIG A   1      -5.528   5.462 128.709  0.00  0.00    -0.334 OA
ATOM     28  C   LIG A   1      -5.525   5.709 130.119  0.00  0.00    +0.150 C 
ATOM     29  C   LIG A   1      -5.190   4.436 130.891  0.00  0.00    +0.040 C 
ATOM     30  C   LIG A   1      -4.661   6.930 130.504  0.00  0.00    +0.174 C 
ATOM     31  C   LIG A   1      -3.284   6.895 129.845  0.00  0.00    +0.180 C 
ATOM     32  C   LIG A   1      -3.404   6.618 128.340  0.00  0.00    +0.214 C 
BRANCH  30  33
ATOM     33  O   LIG A   1      -5.302   8.140 130.068  0.00  0.00    -0.387 OA
ATOM     34  H   LIG A   1      -6.261   7.972 130.029  0.00  0.00    +0.210 HD
ENDBRANCH  30  33
BRANCH  31  35
ATOM     35  O   LIG A   1      -2.449   5.904 130.461  0.00  0.00    -0.386 OA
ATOM     36  H   LIG A   1      -1.672   5.817 129.873  0.00  0.00    +0.210 HD
ENDBRANCH  31  35
BRANCH  32  37
ATOM     37  O   LIG A   1      -2.063   6.500 127.825  0.00  0.00    -0.383 OA
ATOM     38  H   LIG A   1      -2.147   6.491 126.852  0.00  0.00    +0.210 HD
ENDBRANCH  32  37
ENDBRANCH  25  26
ENDBRANCH  15  25
TORSDOF 8
ENDMDL
