MODEL 1
REMARK VINA RESULT:      -6.2      0.000      0.000
REMARK  Name = NuBBE_1021
REMARK  11 active torsions:
REMARK  status: ('A' for Active; 'I' for Inactive)
REMARK    1  A    between atoms: C_1  and  C_2
REMARK    2  A    between atoms: C_2  and  C_3
REMARK    3  A    between atoms: C_7  and  O_8
REMARK    4  A    between atoms: O_8  and  C_9
REMARK    5  A    between atoms: C_10  and  C_11
REMARK    6  A    between atoms: C_11  and  C_12
REMARK    7  A    between atoms: C_12  and  C_13
REMARK    8  A    between atoms: C_13  and  O_14
REMARK    9  A    between atoms: O_14  and  C_15
REMARK   10  A    between atoms: C_19  and  O_20
REMARK   11  A    between atoms: O_20  and  C_21
REMARK                            x       y       z     vdW  Elec       q    Type
REMARK                         _______ _______ _______ _____ _____    ______ ____
ROOT
ATOM      1  C   LIG A   1      -7.828  -2.191 130.621  0.00  0.00    +0.060 C 
ATOM      2  C   LIG A   1      -7.284  -2.832 129.338  0.00  0.00    +0.124 C 
ATOM      3  C   LIG A   1      -6.175  -3.829 129.693  0.00  0.00    +0.060 C 
ATOM      4  O   LIG A   1      -6.648  -1.782 128.590  0.00  0.00    -0.478 OA
ATOM      5  C   LIG A   1      -7.036  -1.526 127.301  0.00  0.00    +0.174 A 
ATOM      6  C   LIG A   1      -8.089  -2.199 126.667  0.00  0.00    +0.062 A 
ATOM      7  C   LIG A   1      -8.453  -1.823 125.360  0.00  0.00    +0.134 A 
ATOM      8  C   LIG A   1      -7.797  -0.768 124.703  0.00  0.00    -0.001 A 
ATOM      9  C   LIG A   1      -6.710  -0.145 125.337  0.00  0.00    +0.056 A 
ATOM     10  C   LIG A   1      -6.339  -0.501 126.636  0.00  0.00    +0.163 A 
ATOM     11  C   LIG A   1      -8.796  -3.253 127.387  0.00  0.00    +0.015 C 
ATOM     12  C   LIG A   1      -8.407  -3.549 128.631  0.00  0.00    +0.020 C 
ENDROOT
BRANCH   7  13
ATOM     13  O   LIG A   1      -9.538  -2.414 124.759  0.00  0.00    -0.494 OA
ATOM     14  C   LIG A   1      -9.152  -3.456 123.861  0.00  0.00    +0.277 C 
ENDBRANCH   7  13
BRANCH  10  15
ATOM     15  O   LIG A   1      -5.305   0.087 127.321  0.00  0.00    -0.491 OA
ATOM     16  C   LIG A   1      -5.418   1.486 127.553  0.00  0.00    +0.277 C 
ENDBRANCH  10  15
BRANCH   8  17
ATOM     17  C   LIG A   1      -8.234  -0.270 123.348  0.00  0.00    +0.050 C 
BRANCH  17  18
ATOM     18  C   LIG A   1      -8.507   1.219 123.361  0.00  0.00    +0.125 C 
BRANCH  18  19
ATOM     19  C   LIG A   1      -9.744   1.532 124.157  0.00  0.00    +0.307 C 
ATOM     20  O   LIG A   1     -10.859   1.107 123.928  0.00  0.00    -0.251 OA
BRANCH  19  21
ATOM     21  O   LIG A   1      -9.414   2.459 125.106  0.00  0.00    -0.468 OA
ATOM     22  C   LIG A   1      -8.334   3.299 124.721  0.00  0.00    +0.280 C 
ENDBRANCH  19  21
ENDBRANCH  18  19
ENDBRANCH  17  18
ENDBRANCH   8  17
TORSDOF 6
ENDMDL
MODEL 2
REMARK VINA RESULT:      -5.8      3.351      5.664
REMARK  Name = NuBBE_1021
REMARK  11 active torsions:
REMARK  status: ('A' for Active; 'I' for Inactive)
REMARK    1  A    between atoms: C_1  and  C_2
REMARK    2  A    between atoms: C_2  and  C_3
REMARK    3  A    between atoms: C_7  and  O_8
REMARK    4  A    between atoms: O_8  and  C_9
REMARK    5  A    between atoms: C_10  and  C_11
REMARK    6  A    between atoms: C_11  and  C_12
REMARK    7  A    between atoms: C_12  and  C_13
REMARK    8  A    between atoms: C_13  and  O_14
REMARK    9  A    between atoms: O_14  and  C_15
REMARK   10  A    between atoms: C_19  and  O_20
REMARK   11  A    between atoms: O_20  and  C_21
REMARK                            x       y       z     vdW  Elec       q    Type
REMARK                         _______ _______ _______ _____ _____    ______ ____
ROOT
ATOM      1  C   LIG A   1      -2.831   4.932 127.683  0.00  0.00    +0.060 C 
ATOM      2  C   LIG A   1      -3.118   3.655 126.885  0.00  0.00    +0.124 C 
ATOM      3  C   LIG A   1      -1.799   3.058 126.381  0.00  0.00    +0.060 C 
ATOM      4  O   LIG A   1      -3.845   4.057 125.712  0.00  0.00    -0.478 OA
ATOM      5  C   LIG A   1      -5.069   3.502 125.439  0.00  0.00    +0.174 A 
ATOM      6  C   LIG A   1      -5.705   2.588 126.289  0.00  0.00    +0.062 A 
ATOM      7  C   LIG A   1      -6.988   2.119 125.951  0.00  0.00    +0.134 A 
ATOM      8  C   LIG A   1      -7.645   2.578 124.797  0.00  0.00    -0.001 A 
ATOM      9  C   LIG A   1      -6.965   3.451 123.932  0.00  0.00    +0.056 A 
ATOM     10  C   LIG A   1      -5.694   3.932 124.254  0.00  0.00    +0.163 A 
ATOM     11  C   LIG A   1      -5.031   2.167 127.513  0.00  0.00    +0.015 C 
ATOM     12  C   LIG A   1      -3.819   2.663 127.779  0.00  0.00    +0.020 C 
ENDROOT
BRANCH   7  13
ATOM     13  O   LIG A   1      -7.660   1.290 126.818  0.00  0.00    -0.494 OA
ATOM     14  C   LIG A   1      -8.372   2.022 127.817  0.00  0.00    +0.277 C 
ENDBRANCH   7  13
BRANCH  10  15
ATOM     15  O   LIG A   1      -4.988   4.808 123.467  0.00  0.00    -0.491 OA
ATOM     16  C   LIG A   1      -4.975   4.530 122.072  0.00  0.00    +0.277 C 
ENDBRANCH  10  15
BRANCH   8  17
ATOM     17  C   LIG A   1      -9.061   2.179 124.465  0.00  0.00    +0.050 C 
BRANCH  17  18
ATOM     18  C   LIG A   1      -9.167   1.607 123.067  0.00  0.00    +0.125 C 
BRANCH  18  19
ATOM     19  C   LIG A   1     -10.063   0.399 123.046  0.00  0.00    +0.307 C 
ATOM     20  O   LIG A   1     -11.180   0.356 122.571  0.00  0.00    -0.251 OA
BRANCH  19  21
ATOM     21  O   LIG A   1      -9.447  -0.598 123.750  0.00  0.00    -0.468 OA
ATOM     22  C   LIG A   1      -8.407  -1.239 123.024  0.00  0.00    +0.280 C 
ENDBRANCH  19  21
ENDBRANCH  18  19
ENDBRANCH  17  18
ENDBRANCH   8  17
TORSDOF 6
ENDMDL
MODEL 3
REMARK VINA RESULT:      -5.7      2.835      5.197
REMARK  Name = NuBBE_1021
REMARK  11 active torsions:
REMARK  status: ('A' for Active; 'I' for Inactive)
REMARK    1  A    between atoms: C_1  and  C_2
REMARK    2  A    between atoms: C_2  and  C_3
REMARK    3  A    between atoms: C_7  and  O_8
REMARK    4  A    between atoms: O_8  and  C_9
REMARK    5  A    between atoms: C_10  and  C_11
REMARK    6  A    between atoms: C_11  and  C_12
REMARK    7  A    between atoms: C_12  and  C_13
REMARK    8  A    between atoms: C_13  and  O_14
REMARK    9  A    between atoms: O_14  and  C_15
REMARK   10  A    between atoms: C_19  and  O_20
REMARK   11  A    between atoms: O_20  and  C_21
REMARK                            x       y       z     vdW  Elec       q    Type
REMARK                         _______ _______ _______ _____ _____    ______ ____
ROOT
ATOM      1  C   LIG A   1      -6.058  -2.368 122.443  0.00  0.00    +0.060 C 
ATOM      2  C   LIG A   1      -6.545  -2.222 123.891  0.00  0.00    +0.124 C 
ATOM      3  C   LIG A   1      -7.089  -3.566 124.387  0.00  0.00    +0.060 C 
ATOM      4  O   LIG A   1      -7.669  -1.327 123.859  0.00  0.00    -0.478 OA
ATOM      5  C   LIG A   1      -7.664  -0.192 124.629  0.00  0.00    +0.174 A 
ATOM      6  C   LIG A   1      -6.575   0.195 125.420  0.00  0.00    +0.062 A 
ATOM      7  C   LIG A   1      -6.643   1.409 126.130  0.00  0.00    +0.134 A 
ATOM      8  C   LIG A   1      -7.769   2.243 126.029  0.00  0.00    -0.001 A 
ATOM      9  C   LIG A   1      -8.870   1.808 125.274  0.00  0.00    +0.056 A 
ATOM     10  C   LIG A   1      -8.818   0.609 124.559  0.00  0.00    +0.163 A 
ATOM     11  C   LIG A   1      -5.391  -0.656 125.467  0.00  0.00    +0.015 C 
ATOM     12  C   LIG A   1      -5.389  -1.787 124.757  0.00  0.00    +0.020 C 
ENDROOT
BRANCH   7  13
ATOM     13  O   LIG A   1      -5.550   1.844 126.840  0.00  0.00    -0.494 OA
ATOM     14  C   LIG A   1      -5.597   1.428 128.206  0.00  0.00    +0.277 C 
ENDBRANCH   7  13
BRANCH  10  15
ATOM     15  O   LIG A   1      -9.848   0.140 123.781  0.00  0.00    -0.491 OA
ATOM     16  C   LIG A   1     -10.134   0.882 122.601  0.00  0.00    +0.277 C 
ENDBRANCH  10  15
BRANCH   8  17
ATOM     17  C   LIG A   1      -7.828   3.598 126.689  0.00  0.00    +0.050 C 
BRANCH  17  18
ATOM     18  C   LIG A   1      -7.649   4.717 125.685  0.00  0.00    +0.125 C 
BRANCH  18  19
ATOM     19  C   LIG A   1      -6.193   5.036 125.489  0.00  0.00    +0.307 C 
ATOM     20  O   LIG A   1      -5.385   5.224 126.376  0.00  0.00    -0.251 OA
BRANCH  19  21
ATOM     21  O   LIG A   1      -5.968   5.186 124.148  0.00  0.00    -0.468 OA
ATOM     22  C   LIG A   1      -5.707   3.959 123.481  0.00  0.00    +0.280 C 
ENDBRANCH  19  21
ENDBRANCH  18  19
ENDBRANCH  17  18
ENDBRANCH   8  17
TORSDOF 6
ENDMDL
MODEL 4
REMARK VINA RESULT:      -5.6      2.624      4.998
REMARK  Name = NuBBE_1021
REMARK  11 active torsions:
REMARK  status: ('A' for Active; 'I' for Inactive)
REMARK    1  A    between atoms: C_1  and  C_2
REMARK    2  A    between atoms: C_2  and  C_3
REMARK    3  A    between atoms: C_7  and  O_8
REMARK    4  A    between atoms: O_8  and  C_9
REMARK    5  A    between atoms: C_10  and  C_11
REMARK    6  A    between atoms: C_11  and  C_12
REMARK    7  A    between atoms: C_12  and  C_13
REMARK    8  A    between atoms: C_13  and  O_14
REMARK    9  A    between atoms: O_14  and  C_15
REMARK   10  A    between atoms: C_19  and  O_20
REMARK   11  A    between atoms: O_20  and  C_21
REMARK                            x       y       z     vdW  Elec       q    Type
REMARK                         _______ _______ _______ _____ _____    ______ ____
ROOT
ATOM      1  C   LIG A   1      -9.401   3.035 129.776  0.00  0.00    +0.060 C 
ATOM      2  C   LIG A   1      -8.226   2.623 128.880  0.00  0.00    +0.124 C 
ATOM      3  C   LIG A   1      -7.368   3.852 128.562  0.00  0.00    +0.060 C 
ATOM      4  O   LIG A   1      -8.791   2.199 127.629  0.00  0.00    -0.478 OA
ATOM      5  C   LIG A   1      -8.515   0.948 127.140  0.00  0.00    +0.174 A 
ATOM      6  C   LIG A   1      -7.745   0.004 127.834  0.00  0.00    +0.062 A 
ATOM      7  C   LIG A   1      -7.567  -1.276 127.276  0.00  0.00    +0.134 A 
ATOM      8  C   LIG A   1      -8.173  -1.623 126.056  0.00  0.00    -0.001 A 
ATOM      9  C   LIG A   1      -8.892  -0.644 125.353  0.00  0.00    +0.056 A 
ATOM     10  C   LIG A   1      -9.085   0.629 125.894  0.00  0.00    +0.163 A 
ATOM     11  C   LIG A   1      -7.173   0.365 129.126  0.00  0.00    +0.015 C 
ATOM     12  C   LIG A   1      -7.395   1.593 129.603  0.00  0.00    +0.020 C 
ENDROOT
BRANCH   7  13
ATOM     13  O   LIG A   1      -6.889  -2.239 127.984  0.00  0.00    -0.494 OA
ATOM     14  C   LIG A   1      -5.489  -2.226 127.701  0.00  0.00    +0.277 C 
ENDBRANCH   7  13
BRANCH  10  15
ATOM     15  O   LIG A   1      -9.801   1.622 125.271  0.00  0.00    -0.491 OA
ATOM     16  C   LIG A   1     -10.159   1.384 123.915  0.00  0.00    +0.277 C 
ENDBRANCH  10  15
BRANCH   8  17
ATOM     17  C   LIG A   1      -8.090  -3.018 125.486  0.00  0.00    +0.050 C 
BRANCH  17  18
ATOM     18  C   LIG A   1      -7.880  -2.997 123.987  0.00  0.00    +0.125 C 
BRANCH  18  19
ATOM     19  C   LIG A   1      -6.453  -2.665 123.648  0.00  0.00    +0.307 C 
ATOM     20  O   LIG A   1      -6.092  -1.909 122.768  0.00  0.00    -0.251 OA
BRANCH  19  21
ATOM     21  O   LIG A   1      -5.641  -3.444 124.425  0.00  0.00    -0.468 OA
ATOM     22  C   LIG A   1      -4.631  -4.116 123.685  0.00  0.00    +0.280 C 
ENDBRANCH  19  21
ENDBRANCH  18  19
ENDBRANCH  17  18
ENDBRANCH   8  17
TORSDOF 6
ENDMDL
MODEL 5
REMARK VINA RESULT:      -5.6      2.705      5.012
REMARK  Name = NuBBE_1021
REMARK  11 active torsions:
REMARK  status: ('A' for Active; 'I' for Inactive)
REMARK    1  A    between atoms: C_1  and  C_2
REMARK    2  A    between atoms: C_2  and  C_3
REMARK    3  A    between atoms: C_7  and  O_8
REMARK    4  A    between atoms: O_8  and  C_9
REMARK    5  A    between atoms: C_10  and  C_11
REMARK    6  A    between atoms: C_11  and  C_12
REMARK    7  A    between atoms: C_12  and  C_13
REMARK    8  A    between atoms: C_13  and  O_14
REMARK    9  A    between atoms: O_14  and  C_15
REMARK   10  A    between atoms: C_19  and  O_20
REMARK   11  A    between atoms: O_20  and  C_21
REMARK                            x       y       z     vdW  Elec       q    Type
REMARK                         _______ _______ _______ _____ _____    ______ ____
ROOT
ATOM      1  C   LIG A   1      -7.701  -3.866 124.665  0.00  0.00    +0.060 C 
ATOM      2  C   LIG A   1      -6.523  -2.964 124.277  0.00  0.00    +0.124 C 
ATOM      3  C   LIG A   1      -5.335  -3.830 123.844  0.00  0.00    +0.060 C 
ATOM      4  O   LIG A   1      -6.106  -2.291 125.476  0.00  0.00    -0.478 OA
ATOM      5  C   LIG A   1      -6.058  -0.921 125.514  0.00  0.00    +0.174 A 
ATOM      6  C   LIG A   1      -6.463  -0.108 124.446  0.00  0.00    +0.062 A 
ATOM      7  C   LIG A   1      -6.432   1.290 124.602  0.00  0.00    +0.134 A 
ATOM      8  C   LIG A   1      -6.034   1.873 125.817  0.00  0.00    -0.001 A 
ATOM      9  C   LIG A   1      -5.581   1.041 126.853  0.00  0.00    +0.056 A 
ATOM     10  C   LIG A   1      -5.610  -0.350 126.719  0.00  0.00    +0.163 A 
ATOM     11  C   LIG A   1      -6.928  -0.733 123.213  0.00  0.00    +0.015 C 
ATOM     12  C   LIG A   1      -6.944  -2.067 123.139  0.00  0.00    +0.020 C 
ENDROOT
BRANCH   7  13
ATOM     13  O   LIG A   1      -6.907   2.097 123.597  0.00  0.00    -0.494 OA
ATOM     14  C   LIG A   1      -8.321   2.284 123.681  0.00  0.00    +0.277 C 
ENDBRANCH   7  13
BRANCH  10  15
ATOM     15  O   LIG A   1      -5.208  -1.219 127.702  0.00  0.00    -0.491 OA
ATOM     16  C   LIG A   1      -5.968  -1.205 128.904  0.00  0.00    +0.277 C 
ENDBRANCH  10  15
BRANCH   8  17
ATOM     17  C   LIG A   1      -6.094   3.362 126.052  0.00  0.00    +0.050 C 
BRANCH  17  18
ATOM     18  C   LIG A   1      -4.768   4.029 125.750  0.00  0.00    +0.125 C 
BRANCH  18  19
ATOM     19  C   LIG A   1      -4.233   4.735 126.965  0.00  0.00    +0.307 C 
ATOM     20  O   LIG A   1      -4.553   5.848 127.333  0.00  0.00    -0.251 OA
BRANCH  19  21
ATOM     21  O   LIG A   1      -3.251   3.956 127.512  0.00  0.00    -0.468 OA
ATOM     22  C   LIG A   1      -2.370   3.401 126.544  0.00  0.00    +0.280 C 
ENDBRANCH  19  21
ENDBRANCH  18  19
ENDBRANCH  17  18
ENDBRANCH   8  17
TORSDOF 6
ENDMDL
MODEL 6
REMARK VINA RESULT:      -5.6      2.824      5.275
REMARK  Name = NuBBE_1021
REMARK  11 active torsions:
REMARK  status: ('A' for Active; 'I' for Inactive)
REMARK    1  A    between atoms: C_1  and  C_2
REMARK    2  A    between atoms: C_2  and  C_3
REMARK    3  A    between atoms: C_7  and  O_8
REMARK    4  A    between atoms: O_8  and  C_9
REMARK    5  A    between atoms: C_10  and  C_11
REMARK    6  A    between atoms: C_11  and  C_12
REMARK    7  A    between atoms: C_12  and  C_13
REMARK    8  A    between atoms: C_13  and  O_14
REMARK    9  A    between atoms: O_14  and  C_15
REMARK   10  A    between atoms: C_19  and  O_20
REMARK   11  A    between atoms: O_20  and  C_21
REMARK                            x       y       z     vdW  Elec       q    Type
REMARK                         _______ _______ _______ _____ _____    ______ ____
ROOT
ATOM      1  C   LIG A   1      -7.239  -2.094 122.604  0.00  0.00    +0.060 C 
ATOM      2  C   LIG A   1      -8.191  -2.288 123.791  0.00  0.00    +0.124 C 
ATOM      3  C   LIG A   1      -9.430  -3.065 123.333  0.00  0.00    +0.060 C 
ATOM      4  O   LIG A   1      -8.659  -0.981 124.162  0.00  0.00    -0.478 OA
ATOM      5  C   LIG A   1      -8.491  -0.531 125.446  0.00  0.00    +0.174 A 
ATOM      6  C   LIG A   1      -7.816  -1.261 126.434  0.00  0.00    +0.062 A 
ATOM      7  C   LIG A   1      -7.644  -0.689 127.709  0.00  0.00    +0.134 A 
ATOM      8  C   LIG A   1      -8.110   0.608 127.988  0.00  0.00    -0.001 A 
ATOM      9  C   LIG A   1      -8.831   1.297 127.000  0.00  0.00    +0.056 A 
ATOM     10  C   LIG A   1      -9.007   0.747 125.728  0.00  0.00    +0.163 A 
ATOM     11  C   LIG A   1      -7.289  -2.581 126.108  0.00  0.00    +0.015 C 
ATOM     12  C   LIG A   1      -7.476  -3.057 124.874  0.00  0.00    +0.020 C 
ENDROOT
BRANCH   7  13
ATOM     13  O   LIG A   1      -6.910  -1.355 128.660  0.00  0.00    -0.494 OA
ATOM     14  C   LIG A   1      -7.731  -2.171 129.497  0.00  0.00    +0.277 C 
ENDBRANCH   7  13
BRANCH  10  15
ATOM     15  O   LIG A   1      -9.677   1.380 124.710  0.00  0.00    -0.491 OA
ATOM     16  C   LIG A   1      -9.017   2.492 124.118  0.00  0.00    +0.277 C 
ENDBRANCH  10  15
BRANCH   8  17
ATOM     17  C   LIG A   1      -7.846   1.290 129.307  0.00  0.00    +0.050 C 
BRANCH  17  18
ATOM     18  C   LIG A   1      -8.240   2.751 129.269  0.00  0.00    +0.125 C 
BRANCH  18  19
ATOM     19  C   LIG A   1      -9.330   3.040 130.264  0.00  0.00    +0.307 C 
ATOM     20  O   LIG A   1     -10.465   3.378 129.990  0.00  0.00    -0.251 OA
BRANCH  19  21
ATOM     21  O   LIG A   1      -8.792   2.965 131.518  0.00  0.00    -0.468 OA
ATOM     22  C   LIG A   1      -9.635   2.307 132.454  0.00  0.00    +0.280 C 
ENDBRANCH  19  21
ENDBRANCH  18  19
ENDBRANCH  17  18
ENDBRANCH   8  17
TORSDOF 6
ENDMDL
MODEL 7
REMARK VINA RESULT:      -5.6      5.891      9.354
REMARK  Name = NuBBE_1021
REMARK  11 active torsions:
REMARK  status: ('A' for Active; 'I' for Inactive)
REMARK    1  A    between atoms: C_1  and  C_2
REMARK    2  A    between atoms: C_2  and  C_3
REMARK    3  A    between atoms: C_7  and  O_8
REMARK    4  A    between atoms: O_8  and  C_9
REMARK    5  A    between atoms: C_10  and  C_11
REMARK    6  A    between atoms: C_11  and  C_12
REMARK    7  A    between atoms: C_12  and  C_13
REMARK    8  A    between atoms: C_13  and  O_14
REMARK    9  A    between atoms: O_14  and  C_15
REMARK   10  A    between atoms: C_19  and  O_20
REMARK   11  A    between atoms: O_20  and  C_21
REMARK                            x       y       z     vdW  Elec       q    Type
REMARK                         _______ _______ _______ _____ _____    ______ ____
ROOT
ATOM      1  C   LIG A   1     -13.103   6.659 128.509  0.00  0.00    +0.060 C 
ATOM      2  C   LIG A   1     -11.819   7.202 129.148  0.00  0.00    +0.124 C 
ATOM      3  C   LIG A   1     -11.589   8.646 128.689  0.00  0.00    +0.060 C 
ATOM      4  O   LIG A   1     -10.732   6.436 128.603  0.00  0.00    -0.478 OA
ATOM      5  C   LIG A   1      -9.873   5.771 129.440  0.00  0.00    +0.174 A 
ATOM      6  C   LIG A   1     -10.029   5.738 130.832  0.00  0.00    +0.062 A 
ATOM      7  C   LIG A   1      -9.129   4.978 131.603  0.00  0.00    +0.134 A 
ATOM      8  C   LIG A   1      -8.104   4.235 130.993  0.00  0.00    -0.001 A 
ATOM      9  C   LIG A   1      -7.934   4.328 129.603  0.00  0.00    +0.056 A 
ATOM     10  C   LIG A   1      -8.822   5.072 128.821  0.00  0.00    +0.163 A 
ATOM     11  C   LIG A   1     -11.134   6.470 131.442  0.00  0.00    +0.015 C 
ATOM     12  C   LIG A   1     -11.960   7.158 130.649  0.00  0.00    +0.020 C 
ENDROOT
BRANCH   7  13
ATOM     13  O   LIG A   1      -9.321   4.866 132.959  0.00  0.00    -0.494 OA
ATOM     14  C   LIG A   1      -8.500   5.775 133.694  0.00  0.00    +0.277 C 
ENDBRANCH   7  13
BRANCH  10  15
ATOM     15  O   LIG A   1      -8.728   5.181 127.456  0.00  0.00    -0.491 OA
ATOM     16  C   LIG A   1      -7.847   4.269 126.811  0.00  0.00    +0.277 C 
ENDBRANCH  10  15
BRANCH   8  17
ATOM     17  C   LIG A   1      -7.192   3.327 131.781  0.00  0.00    +0.050 C 
BRANCH  17  18
ATOM     18  C   LIG A   1      -7.363   1.878 131.377  0.00  0.00    +0.125 C 
BRANCH  18  19
ATOM     19  C   LIG A   1      -8.411   1.205 132.220  0.00  0.00    +0.307 C 
ATOM     20  O   LIG A   1      -9.607   1.418 132.165  0.00  0.00    -0.251 OA
BRANCH  19  21
ATOM     21  O   LIG A   1      -7.776   0.402 133.126  0.00  0.00    -0.468 OA
ATOM     22  C   LIG A   1      -7.359  -0.842 132.581  0.00  0.00    +0.280 C 
ENDBRANCH  19  21
ENDBRANCH  18  19
ENDBRANCH  17  18
ENDBRANCH   8  17
TORSDOF 6
ENDMDL
MODEL 8
REMARK VINA RESULT:      -5.5      2.288      5.389
REMARK  Name = NuBBE_1021
REMARK  11 active torsions:
REMARK  status: ('A' for Active; 'I' for Inactive)
REMARK    1  A    between atoms: C_1  and  C_2
REMARK    2  A    between atoms: C_2  and  C_3
REMARK    3  A    between atoms: C_7  and  O_8
REMARK    4  A    between atoms: O_8  and  C_9
REMARK    5  A    between atoms: C_10  and  C_11
REMARK    6  A    between atoms: C_11  and  C_12
REMARK    7  A    between atoms: C_12  and  C_13
REMARK    8  A    between atoms: C_13  and  O_14
REMARK    9  A    between atoms: O_14  and  C_15
REMARK   10  A    between atoms: C_19  and  O_20
REMARK   11  A    between atoms: O_20  and  C_21
REMARK                            x       y       z     vdW  Elec       q    Type
REMARK                         _______ _______ _______ _____ _____    ______ ____
ROOT
ATOM      1  C   LIG A   1      -2.499   3.217 127.028  0.00  0.00    +0.060 C 
ATOM      2  C   LIG A   1      -4.027   3.324 127.107  0.00  0.00    +0.124 C 
ATOM      3  C   LIG A   1      -4.425   4.038 128.403  0.00  0.00    +0.060 C 
ATOM      4  O   LIG A   1      -4.529   1.982 127.224  0.00  0.00    -0.478 OA
ATOM      5  C   LIG A   1      -5.444   1.510 126.319  0.00  0.00    +0.174 A 
ATOM      6  C   LIG A   1      -5.889   2.253 125.217  0.00  0.00    +0.062 A 
ATOM      7  C   LIG A   1      -6.787   1.659 124.310  0.00  0.00    +0.134 A 
ATOM      8  C   LIG A   1      -7.213   0.331 124.481  0.00  0.00    -0.001 A 
ATOM      9  C   LIG A   1      -6.798  -0.374 125.622  0.00  0.00    +0.056 A 
ATOM     10  C   LIG A   1      -5.903   0.197 126.529  0.00  0.00    +0.163 A 
ATOM     11  C   LIG A   1      -5.390   3.610 125.026  0.00  0.00    +0.015 C 
ATOM     12  C   LIG A   1      -4.527   4.106 125.918  0.00  0.00    +0.020 C 
ENDROOT
BRANCH   7  13
ATOM     13  O   LIG A   1      -7.163   2.343 123.179  0.00  0.00    -0.494 OA
ATOM     14  C   LIG A   1      -8.440   2.966 123.330  0.00  0.00    +0.277 C 
ENDBRANCH   7  13
BRANCH  10  15
ATOM     15  O   LIG A   1      -5.437  -0.447 127.648  0.00  0.00    -0.491 OA
ATOM     16  C   LIG A   1      -5.448  -1.869 127.606  0.00  0.00    +0.277 C 
ENDBRANCH  10  15
BRANCH   8  17
ATOM     17  C   LIG A   1      -8.088  -0.368 123.469  0.00  0.00    +0.050 C 
BRANCH  17  18
ATOM     18  C   LIG A   1      -7.573  -1.756 123.150  0.00  0.00    +0.125 C 
BRANCH  18  19
ATOM     19  C   LIG A   1      -8.588  -2.803 123.519  0.00  0.00    +0.307 C 
ATOM     20  O   LIG A   1      -9.788  -2.715 123.350  0.00  0.00    -0.251 OA
BRANCH  19  21
ATOM     21  O   LIG A   1      -7.937  -3.812 124.174  0.00  0.00    -0.468 OA
ATOM     22  C   LIG A   1      -6.532  -3.614 124.257  0.00  0.00    +0.280 C 
ENDBRANCH  19  21
ENDBRANCH  18  19
ENDBRANCH  17  18
ENDBRANCH   8  17
TORSDOF 6
ENDMDL
MODEL 9
REMARK VINA RESULT:      -5.5      2.451      3.770
REMARK  Name = NuBBE_1021
REMARK  11 active torsions:
REMARK  status: ('A' for Active; 'I' for Inactive)
REMARK    1  A    between atoms: C_1  and  C_2
REMARK    2  A    between atoms: C_2  and  C_3
REMARK    3  A    between atoms: C_7  and  O_8
REMARK    4  A    between atoms: O_8  and  C_9
REMARK    5  A    between atoms: C_10  and  C_11
REMARK    6  A    between atoms: C_11  and  C_12
REMARK    7  A    between atoms: C_12  and  C_13
REMARK    8  A    between atoms: C_13  and  O_14
REMARK    9  A    between atoms: O_14  and  C_15
REMARK   10  A    between atoms: C_19  and  O_20
REMARK   11  A    between atoms: O_20  and  C_21
REMARK                            x       y       z     vdW  Elec       q    Type
REMARK                         _______ _______ _______ _____ _____    ______ ____
ROOT
ATOM      1  C   LIG A   1      -5.710  -2.467 128.485  0.00  0.00    +0.060 C 
ATOM      2  C   LIG A   1      -7.156  -2.134 128.096  0.00  0.00    +0.124 C 
ATOM      3  C   LIG A   1      -8.078  -3.284 128.516  0.00  0.00    +0.060 C 
ATOM      4  O   LIG A   1      -7.198  -2.097 126.660  0.00  0.00    -0.478 OA
ATOM      5  C   LIG A   1      -7.649  -0.974 126.016  0.00  0.00    +0.174 A 
ATOM      6  C   LIG A   1      -8.024   0.199 126.685  0.00  0.00    +0.062 A 
ATOM      7  C   LIG A   1      -8.418   1.320 125.932  0.00  0.00    +0.134 A 
ATOM      8  C   LIG A   1      -8.410   1.286 124.527  0.00  0.00    -0.001 A 
ATOM      9  C   LIG A   1      -8.085   0.084 123.880  0.00  0.00    +0.056 A 
ATOM     10  C   LIG A   1      -7.685  -1.038 124.611  0.00  0.00    +0.163 A 
ATOM     11  C   LIG A   1      -7.970   0.233 128.143  0.00  0.00    +0.015 C 
ATOM     12  C   LIG A   1      -7.572  -0.863 128.794  0.00  0.00    +0.020 C 
ENDROOT
BRANCH   7  13
ATOM     13  O   LIG A   1      -8.704   2.503 126.571  0.00  0.00    -0.494 OA
ATOM     14  C   LIG A   1      -7.537   3.305 126.763  0.00  0.00    +0.277 C 
ENDBRANCH   7  13
BRANCH  10  15
ATOM     15  O   LIG A   1      -7.328  -2.233 124.038  0.00  0.00    -0.491 OA
ATOM     16  C   LIG A   1      -6.195  -2.205 123.177  0.00  0.00    +0.277 C 
ENDBRANCH  10  15
BRANCH   8  17
ATOM     17  C   LIG A   1      -8.722   2.503 123.692  0.00  0.00    +0.050 C 
BRANCH  17  18
ATOM     18  C   LIG A   1      -7.508   2.977 122.921  0.00  0.00    +0.125 C 
BRANCH  18  19
ATOM     19  C   LIG A   1      -7.898   3.469 121.554  0.00  0.00    +0.307 C 
ATOM     20  O   LIG A   1      -9.007   3.387 121.063  0.00  0.00    -0.251 OA
BRANCH  19  21
ATOM     21  O   LIG A   1      -6.769   3.916 120.926  0.00  0.00    -0.468 OA
ATOM     22  C   LIG A   1      -6.985   4.269 119.566  0.00  0.00    +0.280 C 
ENDBRANCH  19  21
ENDBRANCH  18  19
ENDBRANCH  17  18
ENDBRANCH   8  17
TORSDOF 6
ENDMDL
