MODEL 1
REMARK VINA RESULT:      -6.8      0.000      0.000
REMARK  Name = NuBBE_1955
REMARK  10 active torsions:
REMARK  status: ('A' for Active; 'I' for Inactive)
REMARK    1  A    between atoms: C_1  and  O_2
REMARK    2  A    between atoms: O_2  and  C_3
REMARK    3  A    between atoms: C_8  and  O_9
REMARK    4  A    between atoms: O_9  and  C_10
REMARK    5  A    between atoms: N_12  and  C_13
REMARK    6  A    between atoms: C_14  and  C_15
REMARK    7  A    between atoms: C_15  and  C_16
REMARK    8  A    between atoms: C_16  and  O_17
REMARK    9  A    between atoms: C_16  and  C_18
REMARK   10  A    between atoms: C_18  and  C_19
REMARK                            x       y       z     vdW  Elec       q    Type
REMARK                         _______ _______ _______ _____ _____    ______ ____
ROOT
ATOM      1  C   LIG A   1      -8.728   0.253 124.221  0.00  0.00    +0.138 A 
ATOM      2  C   LIG A   1      -8.370  -0.994 124.887  0.00  0.00    +0.044 A 
ATOM      3  C   LIG A   1      -9.369  -1.920 125.227  0.00  0.00    +0.014 A 
ATOM      4  C   LIG A   1      -9.106  -3.266 125.118  0.00  0.00    +0.004 A 
ATOM      5  C   LIG A   1      -7.801  -3.668 124.913  0.00  0.00    +0.048 A 
ATOM      6  C   LIG A   1      -6.739  -2.741 124.937  0.00  0.00    +0.144 A 
ATOM      7  C   LIG A   1      -7.042  -1.360 124.956  0.00  0.00    +0.097 A 
ATOM      8  N   LIG A   1      -6.144  -0.258 125.141  0.00  0.00    -0.308 N 
ATOM      9  C   LIG A   1      -5.217  -0.376 126.258  0.00  0.00    +0.152 C 
ATOM     10  C   LIG A   1      -7.832   1.294 124.086  0.00  0.00    +0.062 A 
ATOM     11  C   LIG A   1      -6.527   1.056 124.831  0.00  0.00    +0.258 A 
ATOM     12  O   LIG A   1      -5.840   2.048 125.187  0.00  0.00    -0.267 OA
ENDROOT
BRANCH   1  14
ATOM     13  C   LIG A   1     -10.154   0.157 122.309  0.00  0.00    +0.277 C 
ATOM     14  O   LIG A   1     -10.006   0.249 123.751  0.00  0.00    -0.494 OA
ENDBRANCH   1  14
BRANCH   6  15
ATOM     15  O   LIG A   1      -5.429  -3.158 124.873  0.00  0.00    -0.493 OA
ATOM     16  C   LIG A   1      -4.881  -3.261 123.551  0.00  0.00    +0.277 C 
ENDBRANCH   6  15
BRANCH  10  17
ATOM     17  C   LIG A   1      -7.933   2.719 123.467  0.00  0.00    +0.080 C 
BRANCH  17  18
ATOM     18  C   LIG A   1      -7.663   3.165 121.982  0.00  0.00    +0.144 C 
BRANCH  18  19
ATOM     19  C   LIG A   1      -6.363   3.843 121.580  0.00  0.00    -0.051 C 
ATOM     20  C   LIG A   1      -5.450   4.258 122.654  0.00  0.00    +0.041 C 
ATOM     21  C   LIG A   1      -5.952   4.206 120.356  0.00  0.00    +0.010 C 
ENDBRANCH  18  19
BRANCH  18  22
ATOM     22  O   LIG A   1      -8.764   3.961 121.532  0.00  0.00    -0.387 OA
ATOM     23  H   LIG A   1      -9.506   3.778 122.133  0.00  0.00    +0.210 HD
ENDBRANCH  18  22
ENDBRANCH  17  18
ENDBRANCH  10  17
TORSDOF 6
ENDMDL
MODEL 2
REMARK VINA RESULT:      -6.7      1.553      6.159
REMARK  Name = NuBBE_1955
REMARK  10 active torsions:
REMARK  status: ('A' for Active; 'I' for Inactive)
REMARK    1  A    between atoms: C_1  and  O_2
REMARK    2  A    between atoms: O_2  and  C_3
REMARK    3  A    between atoms: C_8  and  O_9
REMARK    4  A    between atoms: O_9  and  C_10
REMARK    5  A    between atoms: N_12  and  C_13
REMARK    6  A    between atoms: C_14  and  C_15
REMARK    7  A    between atoms: C_15  and  C_16
REMARK    8  A    between atoms: C_16  and  O_17
REMARK    9  A    between atoms: C_16  and  C_18
REMARK   10  A    between atoms: C_18  and  C_19
REMARK                            x       y       z     vdW  Elec       q    Type
REMARK                         _______ _______ _______ _____ _____    ______ ____
ROOT
ATOM      1  C   LIG A   1      -6.233   0.754 125.415  0.00  0.00    +0.138 A 
ATOM      2  C   LIG A   1      -6.432   2.089 124.863  0.00  0.00    +0.044 A 
ATOM      3  C   LIG A   1      -5.748   3.185 125.413  0.00  0.00    +0.014 A 
ATOM      4  C   LIG A   1      -5.294   4.183 124.581  0.00  0.00    +0.004 A 
ATOM      5  C   LIG A   1      -5.732   4.199 123.272  0.00  0.00    +0.048 A 
ATOM      6  C   LIG A   1      -6.716   3.296 122.819  0.00  0.00    +0.144 A 
ATOM      7  C   LIG A   1      -7.096   2.225 123.662  0.00  0.00    +0.097 A 
ATOM      8  N   LIG A   1      -8.171   1.294 123.482  0.00  0.00    -0.308 N 
ATOM      9  C   LIG A   1      -9.460   1.875 123.136  0.00  0.00    +0.152 C 
ATOM     10  C   LIG A   1      -7.051  -0.306 125.082  0.00  0.00    +0.062 A 
ATOM     11  C   LIG A   1      -8.240   0.108 124.227  0.00  0.00    +0.258 A 
ATOM     12  O   LIG A   1      -9.276  -0.606 124.241  0.00  0.00    -0.267 OA
ENDROOT
BRANCH   1  14
ATOM     13  C   LIG A   1      -5.467   0.488 127.661  0.00  0.00    +0.277 C 
ATOM     14  O   LIG A   1      -5.162   0.688 126.255  0.00  0.00    -0.494 OA
ENDBRANCH   1  14
BRANCH   6  15
ATOM     15  O   LIG A   1      -7.252   3.402 121.556  0.00  0.00    -0.493 OA
ATOM     16  C   LIG A   1      -6.356   3.884 120.546  0.00  0.00    +0.277 C 
ENDBRANCH   6  15
BRANCH  10  17
ATOM     17  C   LIG A   1      -7.101  -1.799 125.521  0.00  0.00    +0.080 C 
BRANCH  17  18
ATOM     18  C   LIG A   1      -6.796  -3.083 124.666  0.00  0.00    +0.144 C 
BRANCH  18  19
ATOM     19  C   LIG A   1      -5.665  -3.112 123.650  0.00  0.00    -0.051 C 
ATOM     20  C   LIG A   1      -5.807  -2.278 122.448  0.00  0.00    +0.041 C 
ATOM     21  C   LIG A   1      -4.562  -3.873 123.647  0.00  0.00    +0.010 C 
ENDBRANCH  18  19
BRANCH  18  22
ATOM     22  O   LIG A   1      -8.005  -3.513 124.031  0.00  0.00    -0.387 OA
ATOM     23  H   LIG A   1      -7.849  -4.421 123.717  0.00  0.00    +0.210 HD
ENDBRANCH  18  22
ENDBRANCH  17  18
ENDBRANCH  10  17
TORSDOF 6
ENDMDL
MODEL 3
REMARK VINA RESULT:      -6.5      2.264      2.690
REMARK  Name = NuBBE_1955
REMARK  10 active torsions:
REMARK  status: ('A' for Active; 'I' for Inactive)
REMARK    1  A    between atoms: C_1  and  O_2
REMARK    2  A    between atoms: O_2  and  C_3
REMARK    3  A    between atoms: C_8  and  O_9
REMARK    4  A    between atoms: O_9  and  C_10
REMARK    5  A    between atoms: N_12  and  C_13
REMARK    6  A    between atoms: C_14  and  C_15
REMARK    7  A    between atoms: C_15  and  C_16
REMARK    8  A    between atoms: C_16  and  O_17
REMARK    9  A    between atoms: C_16  and  C_18
REMARK   10  A    between atoms: C_18  and  C_19
REMARK                            x       y       z     vdW  Elec       q    Type
REMARK                         _______ _______ _______ _____ _____    ______ ____
ROOT
ATOM      1  C   LIG A   1      -8.194  -0.503 124.709  0.00  0.00    +0.138 A 
ATOM      2  C   LIG A   1      -8.548  -1.223 125.927  0.00  0.00    +0.044 A 
ATOM      3  C   LIG A   1      -9.342  -2.379 125.853  0.00  0.00    +0.014 A 
ATOM      4  C   LIG A   1      -9.085  -3.429 126.703  0.00  0.00    +0.004 A 
ATOM      5  C   LIG A   1      -8.219  -3.226 127.759  0.00  0.00    +0.048 A 
ATOM      6  C   LIG A   1      -7.702  -1.945 128.043  0.00  0.00    +0.144 A 
ATOM      7  C   LIG A   1      -7.904  -0.906 127.104  0.00  0.00    +0.097 A 
ATOM      8  N   LIG A   1      -7.613   0.490 127.251  0.00  0.00    -0.308 N 
ATOM      9  C   LIG A   1      -8.076   1.107 128.486  0.00  0.00    +0.152 C 
ATOM     10  C   LIG A   1      -7.630   0.756 124.741  0.00  0.00    +0.062 A 
ATOM     11  C   LIG A   1      -7.576   1.348 126.142  0.00  0.00    +0.258 A 
ATOM     12  O   LIG A   1      -7.540   2.598 126.272  0.00  0.00    -0.267 OA
ENDROOT
BRANCH   1  14
ATOM     13  C   LIG A   1      -7.316  -1.808 122.912  0.00  0.00    +0.277 C 
ATOM     14  O   LIG A   1      -8.462  -1.217 123.581  0.00  0.00    -0.494 OA
ENDBRANCH   1  14
BRANCH   6  15
ATOM     15  O   LIG A   1      -6.952  -1.715 129.174  0.00  0.00    -0.493 OA
ATOM     16  C   LIG A   1      -5.624  -2.255 129.151  0.00  0.00    +0.277 C 
ENDBRANCH   6  15
BRANCH  10  17
ATOM     17  C   LIG A   1      -7.185   1.757 123.635  0.00  0.00    +0.080 C 
BRANCH  17  18
ATOM     18  C   LIG A   1      -8.044   2.849 122.896  0.00  0.00    +0.144 C 
BRANCH  18  19
ATOM     19  C   LIG A   1      -7.603   3.444 121.569  0.00  0.00    -0.051 C 
ATOM     20  C   LIG A   1      -8.650   3.828 120.612  0.00  0.00    +0.041 C 
ATOM     21  C   LIG A   1      -6.359   3.598 121.093  0.00  0.00    +0.010 C 
ENDBRANCH  18  19
BRANCH  18  22
ATOM     22  O   LIG A   1      -8.327   3.911 123.813  0.00  0.00    -0.387 OA
ATOM     23  H   LIG A   1      -9.137   3.661 124.290  0.00  0.00    +0.210 HD
ENDBRANCH  18  22
ENDBRANCH  17  18
ENDBRANCH  10  17
TORSDOF 6
ENDMDL
MODEL 4
REMARK VINA RESULT:      -6.4      1.456      1.645
REMARK  Name = NuBBE_1955
REMARK  10 active torsions:
REMARK  status: ('A' for Active; 'I' for Inactive)
REMARK    1  A    between atoms: C_1  and  O_2
REMARK    2  A    between atoms: O_2  and  C_3
REMARK    3  A    between atoms: C_8  and  O_9
REMARK    4  A    between atoms: O_9  and  C_10
REMARK    5  A    between atoms: N_12  and  C_13
REMARK    6  A    between atoms: C_14  and  C_15
REMARK    7  A    between atoms: C_15  and  C_16
REMARK    8  A    between atoms: C_16  and  O_17
REMARK    9  A    between atoms: C_16  and  C_18
REMARK   10  A    between atoms: C_18  and  C_19
REMARK                            x       y       z     vdW  Elec       q    Type
REMARK                         _______ _______ _______ _____ _____    ______ ____
ROOT
ATOM      1  C   LIG A   1      -8.757   0.062 125.137  0.00  0.00    +0.138 A 
ATOM      2  C   LIG A   1      -8.330  -1.327 125.267  0.00  0.00    +0.044 A 
ATOM      3  C   LIG A   1      -9.239  -2.367 125.014  0.00  0.00    +0.014 A 
ATOM      4  C   LIG A   1      -8.795  -3.514 124.396  0.00  0.00    +0.004 A 
ATOM      5  C   LIG A   1      -7.435  -3.707 124.263  0.00  0.00    +0.048 A 
ATOM      6  C   LIG A   1      -6.510  -2.820 124.852  0.00  0.00    +0.144 A 
ATOM      7  C   LIG A   1      -6.986  -1.605 125.398  0.00  0.00    +0.097 A 
ATOM      8  N   LIG A   1      -6.265  -0.641 126.176  0.00  0.00    -0.308 N 
ATOM      9  C   LIG A   1      -5.477  -1.176 127.278  0.00  0.00    +0.152 C 
ATOM     10  C   LIG A   1      -7.991   1.110 125.604  0.00  0.00    +0.062 A 
ATOM     11  C   LIG A   1      -6.770   0.651 126.387  0.00  0.00    +0.258 A 
ATOM     12  O   LIG A   1      -6.264   1.429 127.236  0.00  0.00    -0.267 OA
ENDROOT
BRANCH   1  14
ATOM     13  C   LIG A   1      -9.906   0.686 123.139  0.00  0.00    +0.277 C 
ATOM     14  O   LIG A   1      -9.956   0.185 124.501  0.00  0.00    -0.494 OA
ENDBRANCH   1  14
BRANCH   6  15
ATOM     15  O   LIG A   1      -5.160  -3.087 124.838  0.00  0.00    -0.493 OA
ATOM     16  C   LIG A   1      -4.671  -3.722 123.649  0.00  0.00    +0.277 C 
ENDBRANCH   6  15
BRANCH  10  17
ATOM     17  C   LIG A   1      -8.194   2.654 125.633  0.00  0.00    +0.080 C 
BRANCH  17  18
ATOM     18  C   LIG A   1      -7.781   3.718 124.550  0.00  0.00    +0.144 C 
BRANCH  18  19
ATOM     19  C   LIG A   1      -6.381   3.748 123.959  0.00  0.00    -0.051 C 
ATOM     20  C   LIG A   1      -5.256   3.967 124.879  0.00  0.00    +0.041 C 
ATOM     21  C   LIG A   1      -6.015   3.686 122.670  0.00  0.00    +0.010 C 
ENDBRANCH  18  19
BRANCH  18  22
ATOM     22  O   LIG A   1      -8.110   5.023 125.037  0.00  0.00    -0.387 OA
ATOM     23  H   LIG A   1      -8.081   4.975 126.008  0.00  0.00    +0.210 HD
ENDBRANCH  18  22
ENDBRANCH  17  18
ENDBRANCH  10  17
TORSDOF 6
ENDMDL
MODEL 5
REMARK VINA RESULT:      -6.4      1.954      6.684
REMARK  Name = NuBBE_1955
REMARK  10 active torsions:
REMARK  status: ('A' for Active; 'I' for Inactive)
REMARK    1  A    between atoms: C_1  and  O_2
REMARK    2  A    between atoms: O_2  and  C_3
REMARK    3  A    between atoms: C_8  and  O_9
REMARK    4  A    between atoms: O_9  and  C_10
REMARK    5  A    between atoms: N_12  and  C_13
REMARK    6  A    between atoms: C_14  and  C_15
REMARK    7  A    between atoms: C_15  and  C_16
REMARK    8  A    between atoms: C_16  and  O_17
REMARK    9  A    between atoms: C_16  and  C_18
REMARK   10  A    between atoms: C_18  and  C_19
REMARK                            x       y       z     vdW  Elec       q    Type
REMARK                         _______ _______ _______ _____ _____    ______ ____
ROOT
ATOM      1  C   LIG A   1      -6.551   0.921 125.308  0.00  0.00    +0.138 A 
ATOM      2  C   LIG A   1      -6.566   2.238 124.682  0.00  0.00    +0.044 A 
ATOM      3  C   LIG A   1      -5.864   3.302 125.271  0.00  0.00    +0.014 A 
ATOM      4  C   LIG A   1      -5.227   4.217 124.465  0.00  0.00    +0.004 A 
ATOM      5  C   LIG A   1      -5.496   4.203 123.111  0.00  0.00    +0.048 A 
ATOM      6  C   LIG A   1      -6.490   3.360 122.572  0.00  0.00    +0.144 A 
ATOM      7  C   LIG A   1      -7.062   2.366 123.402  0.00  0.00    +0.097 A 
ATOM      8  N   LIG A   1      -8.182   1.516 123.123  0.00  0.00    -0.308 N 
ATOM      9  C   LIG A   1      -9.364   2.180 122.592  0.00  0.00    +0.152 C 
ATOM     10  C   LIG A   1      -7.409  -0.086 124.915  0.00  0.00    +0.062 A 
ATOM     11  C   LIG A   1      -8.444   0.378 123.900  0.00  0.00    +0.258 A 
ATOM     12  O   LIG A   1      -9.531  -0.250 123.810  0.00  0.00    -0.267 OA
ENDROOT
BRANCH   1  14
ATOM     13  C   LIG A   1      -6.096   0.678 127.639  0.00  0.00    +0.277 C 
ATOM     14  O   LIG A   1      -5.603   0.812 126.279  0.00  0.00    -0.494 OA
ENDBRANCH   1  14
BRANCH   6  15
ATOM     15  O   LIG A   1      -6.855   3.445 121.248  0.00  0.00    -0.493 OA
ATOM     16  C   LIG A   1      -5.968   4.201 120.414  0.00  0.00    +0.277 C 
ENDBRANCH   6  15
BRANCH  10  17
ATOM     17  C   LIG A   1      -7.641  -1.546 125.403  0.00  0.00    +0.080 C 
BRANCH  17  18
ATOM     18  C   LIG A   1      -8.692  -2.075 126.448  0.00  0.00    +0.144 C 
BRANCH  18  19
ATOM     19  C   LIG A   1      -8.281  -2.970 127.606  0.00  0.00    -0.051 C 
ATOM     20  C   LIG A   1      -9.122  -4.139 127.897  0.00  0.00    +0.041 C 
ATOM     21  C   LIG A   1      -7.279  -2.799 128.481  0.00  0.00    +0.010 C 
ENDBRANCH  18  19
BRANCH  18  22
ATOM     22  O   LIG A   1      -9.774  -2.693 125.742  0.00  0.00    -0.387 OA
ATOM     23  H   LIG A   1     -10.072  -3.442 126.287  0.00  0.00    +0.210 HD
ENDBRANCH  18  22
ENDBRANCH  17  18
ENDBRANCH  10  17
TORSDOF 6
ENDMDL
MODEL 6
REMARK VINA RESULT:      -6.2      1.882      6.230
REMARK  Name = NuBBE_1955
REMARK  10 active torsions:
REMARK  status: ('A' for Active; 'I' for Inactive)
REMARK    1  A    between atoms: C_1  and  O_2
REMARK    2  A    between atoms: O_2  and  C_3
REMARK    3  A    between atoms: C_8  and  O_9
REMARK    4  A    between atoms: O_9  and  C_10
REMARK    5  A    between atoms: N_12  and  C_13
REMARK    6  A    between atoms: C_14  and  C_15
REMARK    7  A    between atoms: C_15  and  C_16
REMARK    8  A    between atoms: C_16  and  O_17
REMARK    9  A    between atoms: C_16  and  C_18
REMARK   10  A    between atoms: C_18  and  C_19
REMARK                            x       y       z     vdW  Elec       q    Type
REMARK                         _______ _______ _______ _____ _____    ______ ____
ROOT
ATOM      1  C   LIG A   1      -7.320   1.875 124.724  0.00  0.00    +0.138 A 
ATOM      2  C   LIG A   1      -6.840   3.054 124.011  0.00  0.00    +0.044 A 
ATOM      3  C   LIG A   1      -6.045   4.001 124.677  0.00  0.00    +0.014 A 
ATOM      4  C   LIG A   1      -5.018   4.615 123.999  0.00  0.00    +0.004 A 
ATOM      5  C   LIG A   1      -4.951   4.464 122.628  0.00  0.00    +0.048 A 
ATOM      6  C   LIG A   1      -5.972   3.804 121.914  0.00  0.00    +0.144 A 
ATOM      7  C   LIG A   1      -6.964   3.103 122.639  0.00  0.00    +0.097 A 
ATOM      8  N   LIG A   1      -8.168   2.504 122.141  0.00  0.00    -0.308 N 
ATOM      9  C   LIG A   1      -8.973   3.338 121.260  0.00  0.00    +0.152 C 
ATOM     10  C   LIG A   1      -8.292   1.048 124.200  0.00  0.00    +0.062 A 
ATOM     11  C   LIG A   1      -8.896   1.584 122.910  0.00  0.00    +0.258 A 
ATOM     12  O   LIG A   1     -10.055   1.219 122.584  0.00  0.00    -0.267 OA
ENDROOT
BRANCH   1  14
ATOM     13  C   LIG A   1      -5.690   0.645 125.961  0.00  0.00    +0.277 C 
ATOM     14  O   LIG A   1      -6.694   1.694 125.920  0.00  0.00    -0.494 OA
ENDBRANCH   1  14
BRANCH   6  15
ATOM     15  O   LIG A   1      -5.975   3.776 120.538  0.00  0.00    -0.493 OA
ATOM     16  C   LIG A   1      -5.529   4.979 119.898  0.00  0.00    +0.277 C 
ENDBRANCH   6  15
BRANCH  10  17
ATOM     17  C   LIG A   1      -9.008  -0.231 124.726  0.00  0.00    +0.080 C 
BRANCH  17  18
ATOM     18  C   LIG A   1      -8.651  -1.738 124.450  0.00  0.00    +0.144 C 
BRANCH  18  19
ATOM     19  C   LIG A   1      -7.257  -2.157 124.010  0.00  0.00    -0.051 C 
ATOM     20  C   LIG A   1      -6.834  -1.794 122.650  0.00  0.00    +0.041 C 
ATOM     21  C   LIG A   1      -6.361  -2.905 124.669  0.00  0.00    +0.010 C 
ENDBRANCH  18  19
BRANCH  18  22
ATOM     22  O   LIG A   1      -9.612  -2.280 123.538  0.00  0.00    -0.387 OA
ATOM     23  H   LIG A   1      -9.457  -1.850 122.680  0.00  0.00    +0.210 HD
ENDBRANCH  18  22
ENDBRANCH  17  18
ENDBRANCH  10  17
TORSDOF 6
ENDMDL
MODEL 7
REMARK VINA RESULT:      -6.1      7.763      8.862
REMARK  Name = NuBBE_1955
REMARK  10 active torsions:
REMARK  status: ('A' for Active; 'I' for Inactive)
REMARK    1  A    between atoms: C_1  and  O_2
REMARK    2  A    between atoms: O_2  and  C_3
REMARK    3  A    between atoms: C_8  and  O_9
REMARK    4  A    between atoms: O_9  and  C_10
REMARK    5  A    between atoms: N_12  and  C_13
REMARK    6  A    between atoms: C_14  and  C_15
REMARK    7  A    between atoms: C_15  and  C_16
REMARK    8  A    between atoms: C_16  and  O_17
REMARK    9  A    between atoms: C_16  and  C_18
REMARK   10  A    between atoms: C_18  and  C_19
REMARK                            x       y       z     vdW  Elec       q    Type
REMARK                         _______ _______ _______ _____ _____    ______ ____
ROOT
ATOM      1  C   LIG A   1      -8.978   4.500 130.022  0.00  0.00    +0.138 A 
ATOM      2  C   LIG A   1      -8.850   3.210 130.688  0.00  0.00    +0.044 A 
ATOM      3  C   LIG A   1      -9.057   2.023 129.966  0.00  0.00    +0.014 A 
ATOM      4  C   LIG A   1      -8.275   0.924 130.237  0.00  0.00    +0.004 A 
ATOM      5  C   LIG A   1      -7.482   0.942 131.367  0.00  0.00    +0.048 A 
ATOM      6  C   LIG A   1      -7.555   2.002 132.294  0.00  0.00    +0.144 A 
ATOM      7  C   LIG A   1      -8.291   3.159 131.948  0.00  0.00    +0.097 A 
ATOM      8  N   LIG A   1      -8.632   4.275 132.781  0.00  0.00    -0.308 N 
ATOM      9  C   LIG A   1      -9.187   3.945 134.086  0.00  0.00    +0.152 C 
ATOM     10  C   LIG A   1      -9.027   5.686 130.726  0.00  0.00    +0.062 A 
ATOM     11  C   LIG A   1      -9.093   5.480 132.232  0.00  0.00    +0.258 A 
ATOM     12  O   LIG A   1      -9.597   6.384 132.947  0.00  0.00    -0.267 OA
ENDROOT
BRANCH   1  14
ATOM     13  C   LIG A   1      -7.740   4.417 127.981  0.00  0.00    +0.277 C 
ATOM     14  O   LIG A   1      -9.022   4.389 128.665  0.00  0.00    -0.494 OA
ENDBRANCH   1  14
BRANCH   6  15
ATOM     15  O   LIG A   1      -6.870   1.952 133.487  0.00  0.00    -0.493 OA
ATOM     16  C   LIG A   1      -5.523   2.442 133.442  0.00  0.00    +0.277 C 
ENDBRANCH   6  15
BRANCH  10  17
ATOM     17  C   LIG A   1      -9.186   7.176 130.303  0.00  0.00    +0.080 C 
BRANCH  17  18
ATOM     18  C   LIG A   1     -10.220   7.805 129.297  0.00  0.00    +0.144 C 
BRANCH  18  19
ATOM     19  C   LIG A   1     -11.699   7.907 129.637  0.00  0.00    -0.051 C 
ATOM     20  C   LIG A   1     -12.543   8.737 128.767  0.00  0.00    +0.041 C 
ATOM     21  C   LIG A   1     -12.351   7.404 130.695  0.00  0.00    +0.010 C 
ENDBRANCH  18  19
BRANCH  18  22
ATOM     22  O   LIG A   1     -10.077   7.163 128.026  0.00  0.00    -0.387 OA
ATOM     23  H   LIG A   1     -10.839   6.566 127.926  0.00  0.00    +0.210 HD
ENDBRANCH  18  22
ENDBRANCH  17  18
ENDBRANCH  10  17
TORSDOF 6
ENDMDL
MODEL 8
REMARK VINA RESULT:      -6.0      3.772      6.188
REMARK  Name = NuBBE_1955
REMARK  10 active torsions:
REMARK  status: ('A' for Active; 'I' for Inactive)
REMARK    1  A    between atoms: C_1  and  O_2
REMARK    2  A    between atoms: O_2  and  C_3
REMARK    3  A    between atoms: C_8  and  O_9
REMARK    4  A    between atoms: O_9  and  C_10
REMARK    5  A    between atoms: N_12  and  C_13
REMARK    6  A    between atoms: C_14  and  C_15
REMARK    7  A    between atoms: C_15  and  C_16
REMARK    8  A    between atoms: C_16  and  O_17
REMARK    9  A    between atoms: C_16  and  C_18
REMARK   10  A    between atoms: C_18  and  C_19
REMARK                            x       y       z     vdW  Elec       q    Type
REMARK                         _______ _______ _______ _____ _____    ______ ____
ROOT
ATOM      1  C   LIG A   1      -8.068  -1.061 126.891  0.00  0.00    +0.138 A 
ATOM      2  C   LIG A   1      -7.378  -0.583 128.084  0.00  0.00    +0.044 A 
ATOM      3  C   LIG A   1      -6.548   0.547 128.009  0.00  0.00    +0.014 A 
ATOM      4  C   LIG A   1      -6.517   1.433 129.061  0.00  0.00    +0.004 A 
ATOM      5  C   LIG A   1      -7.112   1.062 130.251  0.00  0.00    +0.048 A 
ATOM      6  C   LIG A   1      -7.632  -0.235 130.436  0.00  0.00    +0.144 A 
ATOM      7  C   LIG A   1      -7.737  -1.092 129.315  0.00  0.00    +0.097 A 
ATOM      8  N   LIG A   1      -8.079  -2.484 129.292  0.00  0.00    -0.308 N 
ATOM      9  C   LIG A   1      -7.373  -3.326 130.247  0.00  0.00    +0.152 C 
ATOM     10  C   LIG A   1      -8.692  -2.291 126.850  0.00  0.00    +0.062 A 
ATOM     11  C   LIG A   1      -8.444  -3.125 128.099  0.00  0.00    +0.258 A 
ATOM     12  O   LIG A   1      -8.534  -4.378 128.021  0.00  0.00    -0.267 OA
ENDROOT
BRANCH   1  14
ATOM     13  C   LIG A   1      -9.284   0.514 125.572  0.00  0.00    +0.277 C 
ATOM     14  O   LIG A   1      -8.034  -0.162 125.869  0.00  0.00    -0.494 OA
ENDBRANCH   1  14
BRANCH   6  15
ATOM     15  O   LIG A   1      -8.097  -0.648 131.663  0.00  0.00    -0.493 OA
ATOM     16  C   LIG A   1      -7.184  -0.479 132.755  0.00  0.00    +0.277 C 
ENDBRANCH   6  15
BRANCH  10  17
ATOM     17  C   LIG A   1      -9.462  -3.064 125.740  0.00  0.00    +0.080 C 
BRANCH  17  18
ATOM     18  C   LIG A   1      -8.981  -3.432 124.287  0.00  0.00    +0.144 C 
BRANCH  18  19
ATOM     19  C   LIG A   1      -7.710  -2.841 123.698  0.00  0.00    -0.051 C 
ATOM     20  C   LIG A   1      -6.426  -3.308 124.240  0.00  0.00    +0.041 C 
ATOM     21  C   LIG A   1      -7.585  -1.866 122.787  0.00  0.00    +0.010 C 
ENDBRANCH  18  19
BRANCH  18  22
ATOM     22  O   LIG A   1     -10.063  -3.217 123.375  0.00  0.00    -0.387 OA
ATOM     23  H   LIG A   1      -9.796  -3.612 122.527  0.00  0.00    +0.210 HD
ENDBRANCH  18  22
ENDBRANCH  17  18
ENDBRANCH  10  17
TORSDOF 6
ENDMDL
MODEL 9
REMARK VINA RESULT:      -6.0      2.347      5.846
REMARK  Name = NuBBE_1955
REMARK  10 active torsions:
REMARK  status: ('A' for Active; 'I' for Inactive)
REMARK    1  A    between atoms: C_1  and  O_2
REMARK    2  A    between atoms: O_2  and  C_3
REMARK    3  A    between atoms: C_8  and  O_9
REMARK    4  A    between atoms: O_9  and  C_10
REMARK    5  A    between atoms: N_12  and  C_13
REMARK    6  A    between atoms: C_14  and  C_15
REMARK    7  A    between atoms: C_15  and  C_16
REMARK    8  A    between atoms: C_16  and  O_17
REMARK    9  A    between atoms: C_16  and  C_18
REMARK   10  A    between atoms: C_18  and  C_19
REMARK                            x       y       z     vdW  Elec       q    Type
REMARK                         _______ _______ _______ _____ _____    ______ ____
ROOT
ATOM      1  C   LIG A   1      -7.723   1.052 124.685  0.00  0.00    +0.138 A 
ATOM      2  C   LIG A   1      -6.725   2.116 124.678  0.00  0.00    +0.044 A 
ATOM      3  C   LIG A   1      -6.341   2.709 123.464  0.00  0.00    +0.014 A 
ATOM      4  C   LIG A   1      -6.076   4.059 123.428  0.00  0.00    +0.004 A 
ATOM      5  C   LIG A   1      -5.960   4.740 124.623  0.00  0.00    +0.048 A 
ATOM      6  C   LIG A   1      -5.986   4.059 125.858  0.00  0.00    +0.144 A 
ATOM      7  C   LIG A   1      -6.353   2.693 125.874  0.00  0.00    +0.097 A 
ATOM      8  N   LIG A   1      -6.294   1.772 126.971  0.00  0.00    -0.308 N 
ATOM      9  C   LIG A   1      -5.045   1.755 127.719  0.00  0.00    +0.152 C 
ATOM     10  C   LIG A   1      -7.957   0.275 125.801  0.00  0.00    +0.062 A 
ATOM     11  C   LIG A   1      -6.972   0.544 126.929  0.00  0.00    +0.258 A 
ATOM     12  O   LIG A   1      -6.758  -0.359 127.778  0.00  0.00    -0.267 OA
ENDROOT
BRANCH   1  14
ATOM     13  C   LIG A   1      -9.741   1.455 123.475  0.00  0.00    +0.277 C 
ATOM     14  O   LIG A   1      -8.383   0.943 123.498  0.00  0.00    -0.494 OA
ENDBRANCH   1  14
BRANCH   6  15
ATOM     15  O   LIG A   1      -5.731   4.717 127.039  0.00  0.00    -0.493 OA
ATOM     16  C   LIG A   1      -4.410   5.261 127.167  0.00  0.00    +0.277 C 
ENDBRANCH   6  15
BRANCH  10  17
ATOM     17  C   LIG A   1      -8.910  -0.921 126.092  0.00  0.00    +0.080 C 
BRANCH  17  18
ATOM     18  C   LIG A   1      -8.847  -2.386 125.523  0.00  0.00    +0.144 C 
BRANCH  18  19
ATOM     19  C   LIG A   1      -8.229  -2.687 124.167  0.00  0.00    -0.051 C 
ATOM     20  C   LIG A   1      -6.801  -3.031 124.130  0.00  0.00    +0.041 C 
ATOM     21  C   LIG A   1      -8.792  -2.599 122.953  0.00  0.00    +0.010 C 
ENDBRANCH  18  19
BRANCH  18  22
ATOM     22  O   LIG A   1     -10.158  -2.959 125.576  0.00  0.00    -0.387 OA
ATOM     23  H   LIG A   1     -10.349  -3.303 124.687  0.00  0.00    +0.210 HD
ENDBRANCH  18  22
ENDBRANCH  17  18
ENDBRANCH  10  17
TORSDOF 6
ENDMDL
