MODEL 1
REMARK VINA RESULT:      -8.4      0.000      0.000
REMARK  Name = NuBBE_1050
REMARK  14 active torsions:
REMARK  status: ('A' for Active; 'I' for Inactive)
REMARK    1  A    between atoms: C_1  and  C_2
REMARK    2  A    between atoms: C_6  and  C_27
REMARK    3  A    between atoms: C_7  and  C_8
REMARK    4  A    between atoms: C_9  and  C_11
REMARK    5  A    between atoms: C_11  and  C_13
REMARK    6  A    between atoms: C_11  and  C_14
REMARK    7  A    between atoms: C_14  and  O_16
REMARK    8  A    between atoms: C_14  and  C_17
REMARK    9  A    between atoms: C_17  and  C_18
REMARK   10  A    between atoms: C_19  and  C_20
REMARK   11  A    between atoms: C_19  and  C_21
REMARK   12  A    between atoms: C_32  and  C_33
REMARK   13  A    between atoms: C_32  and  C_39
REMARK   14  A    between atoms: C_34  and  O_38
REMARK                            x       y       z     vdW  Elec       q    Type
REMARK                         _______ _______ _______ _____ _____    ______ ____
ROOT
ATOM      1  C   LIG A   1      -8.652   0.704 126.570  0.00  0.00    +0.012 C 
ATOM      2  C   LIG A   1      -8.141  -0.764 126.376  0.00  0.00    -0.022 C 
ATOM      3  C   LIG A   1      -7.638  -1.240 127.824  0.00  0.00    +0.021 C 
ATOM      4  C   LIG A   1      -6.121  -1.234 128.063  0.00  0.00    -0.063 C 
ATOM      5  C   LIG A   1      -5.634  -1.618 129.493  0.00  0.00    -0.005 C 
ATOM      6  C   LIG A   1      -6.475  -2.807 130.155  0.00  0.00    -0.020 C 
ATOM      7  C   LIG A   1      -7.404  -2.315 131.276  0.00  0.00    +0.012 C 
ATOM      8  C   LIG A   1      -5.420  -3.918 130.602  0.00  0.00    +0.002 C 
ATOM      9  C   LIG A   1      -4.268  -3.646 129.620  0.00  0.00    +0.005 C 
ATOM     10  C   LIG A   1      -4.172  -2.136 129.584  0.00  0.00    +0.012 C 
ATOM     11  C   LIG A   1      -7.381  -3.467 129.078  0.00  0.00    +0.008 C 
ATOM     12  C   LIG A   1      -8.338  -2.475 128.432  0.00  0.00    +0.009 C 
ATOM     13  C   LIG A   1      -5.685  -0.285 130.284  0.00  0.00    +0.016 C 
ATOM     14  C   LIG A   1      -5.287  -0.715 127.144  0.00  0.00    -0.026 C 
ATOM     15  C   LIG A   1      -5.722  -0.109 125.855  0.00  0.00    +0.031 C 
ATOM     16  C   LIG A   1      -7.002  -0.728 125.280  0.00  0.00    +0.007 C 
ATOM     17  C   LIG A   1      -6.800  -2.076 124.460  0.00  0.00    -0.005 C 
ATOM     18  C   LIG A   1      -5.323  -2.498 124.274  0.00  0.00    +0.014 C 
ATOM     19  C   LIG A   1      -7.562  -3.240 125.131  0.00  0.00    +0.120 C 
ATOM     20  C   LIG A   1      -9.051  -2.952 125.283  0.00  0.00    +0.032 C 
ATOM     21  C   LIG A   1      -9.354  -1.546 125.802  0.00  0.00    +0.010 C 
ATOM     22  C   LIG A   1      -7.348  -1.852 123.022  0.00  0.00    +0.014 C 
ENDROOT
BRANCH   8  23
ATOM     23  C   LIG A   1      -4.975  -3.987 132.122  0.00  0.00    +0.026 C 
ATOM     24  C   LIG A   1      -5.241  -5.401 132.701  0.00  0.00    +0.011 C 
BRANCH  23  25
ATOM     25  C   LIG A   1      -3.462  -3.657 132.323  0.00  0.00    +0.188 C 
BRANCH  25  26
ATOM     26  O   LIG A   1      -2.847  -4.780 132.982  0.00  0.00    -0.384 OA
ATOM     27  H   LIG A   1      -2.357  -5.267 132.288  0.00  0.00    +0.210 HD
ENDBRANCH  25  26
BRANCH  25  28
ATOM     28  C   LIG A   1      -3.193  -2.403 133.167  0.00  0.00    +0.184 C 
ATOM     29  O   LIG A   1      -2.072  -2.252 133.699  0.00  0.00    -0.290 OA
BRANCH  28  30
ATOM     30  C   LIG A   1      -4.178  -1.298 133.381  0.00  0.00    +0.047 C 
ATOM     31  C   LIG A   1      -5.270  -1.080 134.145  0.00  0.00    -0.072 C 
ATOM     32  C   LIG A   1      -5.905  -2.008 135.131  0.00  0.00    +0.038 C 
ATOM     33  C   LIG A   1      -5.951   0.270 134.050  0.00  0.00    +0.038 C 
ENDBRANCH  28  30
ENDBRANCH  25  28
ENDBRANCH  23  25
ENDBRANCH   8  23
BRANCH  19  34
ATOM     34  O   LIG A   1      -7.418  -4.452 124.391  0.00  0.00    -0.391 OA
ATOM     35  H   LIG A   1      -7.036  -4.218 123.527  0.00  0.00    +0.210 HD
ENDBRANCH  19  34
TORSDOF 6
ENDMDL
MODEL 2
REMARK VINA RESULT:      -8.2      5.208      8.306
REMARK  Name = NuBBE_1050
REMARK  14 active torsions:
REMARK  status: ('A' for Active; 'I' for Inactive)
REMARK    1  A    between atoms: C_1  and  C_2
REMARK    2  A    between atoms: C_6  and  C_27
REMARK    3  A    between atoms: C_7  and  C_8
REMARK    4  A    between atoms: C_9  and  C_11
REMARK    5  A    between atoms: C_11  and  C_13
REMARK    6  A    between atoms: C_11  and  C_14
REMARK    7  A    between atoms: C_14  and  O_16
REMARK    8  A    between atoms: C_14  and  C_17
REMARK    9  A    between atoms: C_17  and  C_18
REMARK   10  A    between atoms: C_19  and  C_20
REMARK   11  A    between atoms: C_19  and  C_21
REMARK   12  A    between atoms: C_32  and  C_33
REMARK   13  A    between atoms: C_32  and  C_39
REMARK   14  A    between atoms: C_34  and  O_38
REMARK                            x       y       z     vdW  Elec       q    Type
REMARK                         _______ _______ _______ _____ _____    ______ ____
ROOT
ATOM      1  C   LIG A   1      -7.583  -2.867 133.007  0.00  0.00    +0.012 C 
ATOM      2  C   LIG A   1      -6.612  -1.976 132.162  0.00  0.00    -0.022 C 
ATOM      3  C   LIG A   1      -7.181  -0.480 132.286  0.00  0.00    +0.021 C 
ATOM      4  C   LIG A   1      -7.977   0.058 131.088  0.00  0.00    -0.063 C 
ATOM      5  C   LIG A   1      -8.600   1.477 131.239  0.00  0.00    -0.005 C 
ATOM      6  C   LIG A   1      -7.653   2.510 132.011  0.00  0.00    -0.020 C 
ATOM      7  C   LIG A   1      -8.155   2.816 133.431  0.00  0.00    +0.012 C 
ATOM      8  C   LIG A   1      -7.503   3.788 131.066  0.00  0.00    +0.002 C 
ATOM      9  C   LIG A   1      -7.743   3.162 129.682  0.00  0.00    +0.005 C 
ATOM     10  C   LIG A   1      -8.904   2.218 129.906  0.00  0.00    +0.012 C 
ATOM     11  C   LIG A   1      -6.231   1.903 132.159  0.00  0.00    +0.008 C 
ATOM     12  C   LIG A   1      -6.237   0.574 132.903  0.00  0.00    +0.009 C 
ATOM     13  C   LIG A   1      -9.964   1.225 131.930  0.00  0.00    +0.016 C 
ATOM     14  C   LIG A   1      -8.291  -0.751 130.059  0.00  0.00    -0.026 C 
ATOM     15  C   LIG A   1      -7.927  -2.193 129.976  0.00  0.00    +0.031 C 
ATOM     16  C   LIG A   1      -6.613  -2.541 130.685  0.00  0.00    +0.007 C 
ATOM     17  C   LIG A   1      -5.290  -2.265 129.847  0.00  0.00    -0.005 C 
ATOM     18  C   LIG A   1      -5.539  -1.787 128.396  0.00  0.00    +0.014 C 
ATOM     19  C   LIG A   1      -4.402  -1.222 130.560  0.00  0.00    +0.120 C 
ATOM     20  C   LIG A   1      -4.030  -1.644 131.977  0.00  0.00    +0.032 C 
ATOM     21  C   LIG A   1      -5.205  -2.207 132.778  0.00  0.00    +0.010 C 
ATOM     22  C   LIG A   1      -4.516  -3.607 129.711  0.00  0.00    +0.014 C 
ENDROOT
BRANCH   8  23
ATOM     23  C   LIG A   1      -8.389   5.070 131.361  0.00  0.00    +0.026 C 
ATOM     24  C   LIG A   1      -7.607   6.076 132.244  0.00  0.00    +0.011 C 
BRANCH  23  25
ATOM     25  C   LIG A   1      -8.833   5.808 130.060  0.00  0.00    +0.188 C 
BRANCH  25  26
ATOM     26  O   LIG A   1      -8.373   7.170 130.144  0.00  0.00    -0.384 OA
ATOM     27  H   LIG A   1      -7.496   7.134 130.581  0.00  0.00    +0.210 HD
ENDBRANCH  25  26
BRANCH  25  28
ATOM     28  C   LIG A   1     -10.351   5.833 129.831  0.00  0.00    +0.184 C 
ATOM     29  O   LIG A   1     -11.003   4.771 129.938  0.00  0.00    -0.290 OA
BRANCH  28  30
ATOM     30  C   LIG A   1     -11.143   7.063 129.520  0.00  0.00    +0.047 C 
ATOM     31  C   LIG A   1     -12.145   7.764 130.090  0.00  0.00    -0.072 C 
ATOM     32  C   LIG A   1     -12.860   7.475 131.373  0.00  0.00    +0.038 C 
ATOM     33  C   LIG A   1     -12.618   9.027 129.399  0.00  0.00    +0.038 C 
ENDBRANCH  28  30
ENDBRANCH  25  28
ENDBRANCH  23  25
ENDBRANCH   8  23
BRANCH  19  34
ATOM     34  O   LIG A   1      -3.194  -0.985 129.838  0.00  0.00    -0.391 OA
ATOM     35  H   LIG A   1      -3.443  -0.798 128.915  0.00  0.00    +0.210 HD
ENDBRANCH  19  34
TORSDOF 6
ENDMDL
MODEL 3
REMARK VINA RESULT:      -8.0      2.067      7.948
REMARK  Name = NuBBE_1050
REMARK  14 active torsions:
REMARK  status: ('A' for Active; 'I' for Inactive)
REMARK    1  A    between atoms: C_1  and  C_2
REMARK    2  A    between atoms: C_6  and  C_27
REMARK    3  A    between atoms: C_7  and  C_8
REMARK    4  A    between atoms: C_9  and  C_11
REMARK    5  A    between atoms: C_11  and  C_13
REMARK    6  A    between atoms: C_11  and  C_14
REMARK    7  A    between atoms: C_14  and  O_16
REMARK    8  A    between atoms: C_14  and  C_17
REMARK    9  A    between atoms: C_17  and  C_18
REMARK   10  A    between atoms: C_19  and  C_20
REMARK   11  A    between atoms: C_19  and  C_21
REMARK   12  A    between atoms: C_32  and  C_33
REMARK   13  A    between atoms: C_32  and  C_39
REMARK   14  A    between atoms: C_34  and  O_38
REMARK                            x       y       z     vdW  Elec       q    Type
REMARK                         _______ _______ _______ _____ _____    ______ ____
ROOT
ATOM      1  C   LIG A   1      -4.872  -4.890 131.815  0.00  0.00    +0.012 C 
ATOM      2  C   LIG A   1      -5.504  -3.473 132.027  0.00  0.00    -0.022 C 
ATOM      3  C   LIG A   1      -6.148  -3.072 130.613  0.00  0.00    +0.021 C 
ATOM      4  C   LIG A   1      -5.355  -2.081 129.748  0.00  0.00    -0.063 C 
ATOM      5  C   LIG A   1      -5.938  -1.754 128.341  0.00  0.00    -0.005 C 
ATOM      6  C   LIG A   1      -7.532  -1.624 128.326  0.00  0.00    -0.020 C 
ATOM      7  C   LIG A   1      -8.211  -2.823 127.645  0.00  0.00    +0.012 C 
ATOM      8  C   LIG A   1      -7.870  -0.207 127.673  0.00  0.00    +0.002 C 
ATOM      9  C   LIG A   1      -6.590   0.582 128.000  0.00  0.00    +0.005 C 
ATOM     10  C   LIG A   1      -5.476  -0.404 127.725  0.00  0.00    +0.012 C 
ATOM     11  C   LIG A   1      -8.065  -1.576 129.785  0.00  0.00    +0.008 C 
ATOM     12  C   LIG A   1      -7.669  -2.804 130.592  0.00  0.00    +0.009 C 
ATOM     13  C   LIG A   1      -5.381  -2.875 127.427  0.00  0.00    +0.016 C 
ATOM     14  C   LIG A   1      -4.118  -1.695 130.112  0.00  0.00    -0.026 C 
ATOM     15  C   LIG A   1      -3.411  -2.171 131.334  0.00  0.00    +0.031 C 
ATOM     16  C   LIG A   1      -4.347  -2.505 132.501  0.00  0.00    +0.007 C 
ATOM     17  C   LIG A   1      -4.813  -1.263 133.380  0.00  0.00    -0.005 C 
ATOM     18  C   LIG A   1      -4.159   0.083 132.985  0.00  0.00    +0.014 C 
ATOM     19  C   LIG A   1      -6.347  -1.098 133.318  0.00  0.00    +0.120 C 
ATOM     20  C   LIG A   1      -7.087  -2.352 133.772  0.00  0.00    +0.032 C 
ATOM     21  C   LIG A   1      -6.513  -3.646 133.194  0.00  0.00    +0.010 C 
ATOM     22  C   LIG A   1      -4.372  -1.519 134.849  0.00  0.00    +0.014 C 
ENDROOT
BRANCH   8  23
ATOM     23  C   LIG A   1      -8.297  -0.146 126.148  0.00  0.00    +0.026 C 
ATOM     24  C   LIG A   1      -9.710   0.480 126.007  0.00  0.00    +0.011 C 
BRANCH  23  25
ATOM     25  C   LIG A   1      -7.308   0.690 125.277  0.00  0.00    +0.188 C 
BRANCH  25  26
ATOM     26  O   LIG A   1      -7.982   1.895 124.871  0.00  0.00    -0.384 OA
ATOM     27  H   LIG A   1      -8.619   1.628 124.176  0.00  0.00    +0.210 HD
ENDBRANCH  25  26
BRANCH  25  28
ATOM     28  C   LIG A   1      -6.815  -0.028 124.013  0.00  0.00    +0.184 C 
ATOM     29  O   LIG A   1      -6.965   0.520 122.899  0.00  0.00    -0.290 OA
BRANCH  28  30
ATOM     30  C   LIG A   1      -6.117  -1.351 124.005  0.00  0.00    +0.047 C 
ATOM     31  C   LIG A   1      -6.468  -2.655 123.996  0.00  0.00    -0.072 C 
ATOM     32  C   LIG A   1      -7.846  -3.239 123.996  0.00  0.00    +0.038 C 
ATOM     33  C   LIG A   1      -5.365  -3.693 123.947  0.00  0.00    +0.038 C 
ENDBRANCH  28  30
ENDBRANCH  25  28
ENDBRANCH  23  25
ENDBRANCH   8  23
BRANCH  19  34
ATOM     34  O   LIG A   1      -6.787  -0.007 134.127  0.00  0.00    -0.391 OA
ATOM     35  H   LIG A   1      -7.371  -0.374 134.813  0.00  0.00    +0.210 HD
ENDBRANCH  19  34
TORSDOF 6
ENDMDL
MODEL 4
REMARK VINA RESULT:      -8.0      4.566      7.098
REMARK  Name = NuBBE_1050
REMARK  14 active torsions:
REMARK  status: ('A' for Active; 'I' for Inactive)
REMARK    1  A    between atoms: C_1  and  C_2
REMARK    2  A    between atoms: C_6  and  C_27
REMARK    3  A    between atoms: C_7  and  C_8
REMARK    4  A    between atoms: C_9  and  C_11
REMARK    5  A    between atoms: C_11  and  C_13
REMARK    6  A    between atoms: C_11  and  C_14
REMARK    7  A    between atoms: C_14  and  O_16
REMARK    8  A    between atoms: C_14  and  C_17
REMARK    9  A    between atoms: C_17  and  C_18
REMARK   10  A    between atoms: C_19  and  C_20
REMARK   11  A    between atoms: C_19  and  C_21
REMARK   12  A    between atoms: C_32  and  C_33
REMARK   13  A    between atoms: C_32  and  C_39
REMARK   14  A    between atoms: C_34  and  O_38
REMARK                            x       y       z     vdW  Elec       q    Type
REMARK                         _______ _______ _______ _____ _____    ______ ____
ROOT
ATOM      1  C   LIG A   1      -8.094  -2.701 128.196  0.00  0.00    +0.012 C 
ATOM      2  C   LIG A   1      -7.182  -2.349 129.419  0.00  0.00    -0.022 C 
ATOM      3  C   LIG A   1      -7.792  -0.999 130.038  0.00  0.00    +0.021 C 
ATOM      4  C   LIG A   1      -7.057   0.307 129.703  0.00  0.00    -0.063 C 
ATOM      5  C   LIG A   1      -7.692   1.626 130.234  0.00  0.00    -0.005 C 
ATOM      6  C   LIG A   1      -8.309   1.490 131.703  0.00  0.00    -0.020 C 
ATOM      7  C   LIG A   1      -9.846   1.482 131.696  0.00  0.00    +0.012 C 
ATOM      8  C   LIG A   1      -7.653   2.648 132.584  0.00  0.00    +0.002 C 
ATOM      9  C   LIG A   1      -6.325   2.869 131.840  0.00  0.00    +0.005 C 
ATOM     10  C   LIG A   1      -6.715   2.826 130.379  0.00  0.00    +0.012 C 
ATOM     11  C   LIG A   1      -7.857   0.145 132.336  0.00  0.00    +0.008 C 
ATOM     12  C   LIG A   1      -8.270  -1.061 131.504  0.00  0.00    +0.009 C 
ATOM     13  C   LIG A   1      -8.723   2.019 129.144  0.00  0.00    +0.016 C 
ATOM     14  C   LIG A   1      -6.043   0.312 128.817  0.00  0.00    -0.026 C 
ATOM     15  C   LIG A   1      -5.550  -0.891 128.091  0.00  0.00    +0.031 C 
ATOM     16  C   LIG A   1      -5.704  -2.197 128.880  0.00  0.00    +0.007 C 
ATOM     17  C   LIG A   1      -4.556  -2.494 129.940  0.00  0.00    -0.005 C 
ATOM     18  C   LIG A   1      -3.397  -1.467 129.934  0.00  0.00    +0.014 C 
ATOM     19  C   LIG A   1      -5.140  -2.565 131.368  0.00  0.00    +0.120 C 
ATOM     20  C   LIG A   1      -6.238  -3.615 131.497  0.00  0.00    +0.032 C 
ATOM     21  C   LIG A   1      -7.244  -3.594 130.345  0.00  0.00    +0.010 C 
ATOM     22  C   LIG A   1      -3.900  -3.855 129.573  0.00  0.00    +0.014 C 
ENDROOT
BRANCH   8  23
ATOM     23  C   LIG A   1      -8.479   3.977 132.846  0.00  0.00    +0.026 C 
ATOM     24  C   LIG A   1      -8.914   4.059 134.332  0.00  0.00    +0.011 C 
BRANCH  23  25
ATOM     25  C   LIG A   1      -7.669   5.267 132.504  0.00  0.00    +0.188 C 
BRANCH  25  26
ATOM     26  O   LIG A   1      -7.427   5.977 133.733  0.00  0.00    -0.384 OA
ATOM     27  H   LIG A   1      -6.471   6.193 133.737  0.00  0.00    +0.210 HD
ENDBRANCH  25  26
BRANCH  25  28
ATOM     28  C   LIG A   1      -8.380   6.222 131.535  0.00  0.00    +0.184 C 
ATOM     29  O   LIG A   1      -7.742   6.706 130.574  0.00  0.00    -0.290 OA
BRANCH  28  30
ATOM     30  C   LIG A   1      -9.824   6.604 131.625  0.00  0.00    +0.047 C 
ATOM     31  C   LIG A   1     -11.003   6.123 131.178  0.00  0.00    -0.072 C 
ATOM     32  C   LIG A   1     -11.247   4.905 130.345  0.00  0.00    +0.038 C 
ATOM     33  C   LIG A   1     -12.269   6.856 131.572  0.00  0.00    +0.038 C 
ENDBRANCH  28  30
ENDBRANCH  25  28
ENDBRANCH  23  25
ENDBRANCH   8  23
BRANCH  19  34
ATOM     34  O   LIG A   1      -4.128  -2.862 132.330  0.00  0.00    -0.391 OA
ATOM     35  H   LIG A   1      -4.578  -3.170 133.136  0.00  0.00    +0.210 HD
ENDBRANCH  19  34
TORSDOF 6
ENDMDL
MODEL 5
REMARK VINA RESULT:      -8.0      1.341      2.044
REMARK  Name = NuBBE_1050
REMARK  14 active torsions:
REMARK  status: ('A' for Active; 'I' for Inactive)
REMARK    1  A    between atoms: C_1  and  C_2
REMARK    2  A    between atoms: C_6  and  C_27
REMARK    3  A    between atoms: C_7  and  C_8
REMARK    4  A    between atoms: C_9  and  C_11
REMARK    5  A    between atoms: C_11  and  C_13
REMARK    6  A    between atoms: C_11  and  C_14
REMARK    7  A    between atoms: C_14  and  O_16
REMARK    8  A    between atoms: C_14  and  C_17
REMARK    9  A    between atoms: C_17  and  C_18
REMARK   10  A    between atoms: C_19  and  C_20
REMARK   11  A    between atoms: C_19  and  C_21
REMARK   12  A    between atoms: C_32  and  C_33
REMARK   13  A    between atoms: C_32  and  C_39
REMARK   14  A    between atoms: C_34  and  O_38
REMARK                            x       y       z     vdW  Elec       q    Type
REMARK                         _______ _______ _______ _____ _____    ______ ____
ROOT
ATOM      1  C   LIG A   1      -5.899   0.977 125.699  0.00  0.00    +0.012 C 
ATOM      2  C   LIG A   1      -6.910  -0.162 126.062  0.00  0.00    -0.022 C 
ATOM      3  C   LIG A   1      -6.606  -0.537 127.593  0.00  0.00    +0.021 C 
ATOM      4  C   LIG A   1      -5.789  -1.813 127.842  0.00  0.00    -0.063 C 
ATOM      5  C   LIG A   1      -5.423  -2.135 129.322  0.00  0.00    -0.005 C 
ATOM      6  C   LIG A   1      -6.598  -1.804 130.355  0.00  0.00    -0.020 C 
ATOM      7  C   LIG A   1      -6.300  -0.558 131.203  0.00  0.00    +0.012 C 
ATOM      8  C   LIG A   1      -6.855  -3.137 131.196  0.00  0.00    +0.002 C 
ATOM      9  C   LIG A   1      -6.377  -4.210 130.204  0.00  0.00    +0.005 C 
ATOM     10  C   LIG A   1      -5.108  -3.627 129.622  0.00  0.00    +0.012 C 
ATOM     11  C   LIG A   1      -7.911  -1.515 129.577  0.00  0.00    +0.008 C 
ATOM     12  C   LIG A   1      -7.766  -0.360 128.596  0.00  0.00    +0.009 C 
ATOM     13  C   LIG A   1      -4.113  -1.344 129.572  0.00  0.00    +0.016 C 
ATOM     14  C   LIG A   1      -5.245  -2.487 126.812  0.00  0.00    -0.026 C 
ATOM     15  C   LIG A   1      -5.361  -2.084 125.383  0.00  0.00    +0.031 C 
ATOM     16  C   LIG A   1      -6.666  -1.352 125.050  0.00  0.00    +0.007 C 
ATOM     17  C   LIG A   1      -7.924  -2.288 124.781  0.00  0.00    -0.005 C 
ATOM     18  C   LIG A   1      -7.609  -3.803 124.789  0.00  0.00    +0.014 C 
ATOM     19  C   LIG A   1      -9.037  -2.014 125.816  0.00  0.00    +0.120 C 
ATOM     20  C   LIG A   1      -9.479  -0.555 125.825  0.00  0.00    +0.032 C 
ATOM     21  C   LIG A   1      -8.316   0.438 125.790  0.00  0.00    +0.010 C 
ATOM     22  C   LIG A   1      -8.453  -1.986 123.350  0.00  0.00    +0.014 C 
ENDROOT
BRANCH   8  23
ATOM     23  C   LIG A   1      -6.223  -3.265 132.645  0.00  0.00    +0.026 C 
ATOM     24  C   LIG A   1      -7.325  -3.583 133.690  0.00  0.00    +0.011 C 
BRANCH  23  25
ATOM     25  C   LIG A   1      -5.136  -4.381 132.732  0.00  0.00    +0.188 C 
BRANCH  25  26
ATOM     26  O   LIG A   1      -5.458  -5.229 133.851  0.00  0.00    -0.384 OA
ATOM     27  H   LIG A   1      -5.259  -4.704 134.654  0.00  0.00    +0.210 HD
ENDBRANCH  25  26
BRANCH  25  28
ATOM     28  C   LIG A   1      -3.706  -3.858 132.928  0.00  0.00    +0.184 C 
ATOM     29  O   LIG A   1      -2.765  -4.675 133.033  0.00  0.00    -0.290 OA
BRANCH  28  30
ATOM     30  C   LIG A   1      -3.329  -2.411 132.967  0.00  0.00    +0.047 C 
ATOM     31  C   LIG A   1      -3.504  -1.366 133.804  0.00  0.00    -0.072 C 
ATOM     32  C   LIG A   1      -4.229  -1.344 135.112  0.00  0.00    +0.038 C 
ATOM     33  C   LIG A   1      -2.879  -0.038 133.429  0.00  0.00    +0.038 C 
ENDBRANCH  28  30
ENDBRANCH  25  28
ENDBRANCH  23  25
ENDBRANCH   8  23
BRANCH  19  34
ATOM     34  O   LIG A   1     -10.187  -2.823 125.570  0.00  0.00    -0.391 OA
ATOM     35  H   LIG A   1      -9.945  -3.741 125.785  0.00  0.00    +0.210 HD
ENDBRANCH  19  34
TORSDOF 6
ENDMDL
MODEL 6
REMARK VINA RESULT:      -7.9      3.632      7.847
REMARK  Name = NuBBE_1050
REMARK  14 active torsions:
REMARK  status: ('A' for Active; 'I' for Inactive)
REMARK    1  A    between atoms: C_1  and  C_2
REMARK    2  A    between atoms: C_6  and  C_27
REMARK    3  A    between atoms: C_7  and  C_8
REMARK    4  A    between atoms: C_9  and  C_11
REMARK    5  A    between atoms: C_11  and  C_13
REMARK    6  A    between atoms: C_11  and  C_14
REMARK    7  A    between atoms: C_14  and  O_16
REMARK    8  A    between atoms: C_14  and  C_17
REMARK    9  A    between atoms: C_17  and  C_18
REMARK   10  A    between atoms: C_19  and  C_20
REMARK   11  A    between atoms: C_19  and  C_21
REMARK   12  A    between atoms: C_32  and  C_33
REMARK   13  A    between atoms: C_32  and  C_39
REMARK   14  A    between atoms: C_34  and  O_38
REMARK                            x       y       z     vdW  Elec       q    Type
REMARK                         _______ _______ _______ _____ _____    ______ ____
ROOT
ATOM      1  C   LIG A   1      -2.956   3.256 128.633  0.00  0.00    +0.012 C 
ATOM      2  C   LIG A   1      -4.361   3.006 129.277  0.00  0.00    -0.022 C 
ATOM      3  C   LIG A   1      -4.873   1.612 128.669  0.00  0.00    +0.021 C 
ATOM      4  C   LIG A   1      -5.914   1.689 127.543  0.00  0.00    -0.063 C 
ATOM      5  C   LIG A   1      -6.351   0.341 126.896  0.00  0.00    -0.005 C 
ATOM      6  C   LIG A   1      -6.501  -0.853 127.950  0.00  0.00    -0.020 C 
ATOM      7  C   LIG A   1      -5.364  -1.880 127.837  0.00  0.00    +0.012 C 
ATOM      8  C   LIG A   1      -7.966  -1.455 127.754  0.00  0.00    +0.002 C 
ATOM      9  C   LIG A   1      -8.713  -0.236 127.185  0.00  0.00    +0.005 C 
ATOM     10  C   LIG A   1      -7.737   0.357 126.193  0.00  0.00    +0.012 C 
ATOM     11  C   LIG A   1      -6.449  -0.282 129.395  0.00  0.00    +0.008 C 
ATOM     12  C   LIG A   1      -5.160   0.478 129.677  0.00  0.00    +0.009 C 
ATOM     13  C   LIG A   1      -5.293   0.087 125.792  0.00  0.00    +0.016 C 
ATOM     14  C   LIG A   1      -6.257   2.877 127.012  0.00  0.00    -0.026 C 
ATOM     15  C   LIG A   1      -5.685   4.187 127.431  0.00  0.00    +0.031 C 
ATOM     16  C   LIG A   1      -5.278   4.241 128.908  0.00  0.00    +0.007 C 
ATOM     17  C   LIG A   1      -6.457   4.546 129.931  0.00  0.00    -0.005 C 
ATOM     18  C   LIG A   1      -7.821   4.851 129.264  0.00  0.00    +0.014 C 
ATOM     19  C   LIG A   1      -6.645   3.368 130.912  0.00  0.00    +0.120 C 
ATOM     20  C   LIG A   1      -5.370   3.043 131.683  0.00  0.00    +0.032 C 
ATOM     21  C   LIG A   1      -4.115   3.015 130.810  0.00  0.00    +0.010 C 
ATOM     22  C   LIG A   1      -6.089   5.833 130.722  0.00  0.00    +0.014 C 
ENDROOT
BRANCH   8  23
ATOM     23  C   LIG A   1      -8.144  -2.781 126.903  0.00  0.00    +0.026 C 
ATOM     24  C   LIG A   1      -8.805  -3.890 127.762  0.00  0.00    +0.011 C 
BRANCH  23  25
ATOM     25  C   LIG A   1      -9.021  -2.566 125.629  0.00  0.00    +0.188 C 
BRANCH  25  26
ATOM     26  O   LIG A   1     -10.294  -3.200 125.854  0.00  0.00    -0.384 OA
ATOM     27  H   LIG A   1     -10.601  -3.509 124.976  0.00  0.00    +0.210 HD
ENDBRANCH  25  26
BRANCH  25  28
ATOM     28  C   LIG A   1      -8.420  -3.150 124.342  0.00  0.00    +0.184 C 
ATOM     29  O   LIG A   1      -9.160  -3.335 123.351  0.00  0.00    -0.290 OA
BRANCH  28  30
ATOM     30  C   LIG A   1      -6.975  -3.489 124.157  0.00  0.00    +0.047 C 
ATOM     31  C   LIG A   1      -5.939  -3.035 123.421  0.00  0.00    -0.072 C 
ATOM     32  C   LIG A   1      -5.931  -1.909 122.436  0.00  0.00    +0.038 C 
ATOM     33  C   LIG A   1      -4.587  -3.695 123.605  0.00  0.00    +0.038 C 
ENDBRANCH  28  30
ENDBRANCH  25  28
ENDBRANCH  23  25
ENDBRANCH   8  23
BRANCH  19  34
ATOM     34  O   LIG A   1      -7.679   3.638 131.858  0.00  0.00    -0.391 OA
ATOM     35  H   LIG A   1      -7.273   4.124 132.597  0.00  0.00    +0.210 HD
ENDBRANCH  19  34
TORSDOF 6
ENDMDL
MODEL 7
REMARK VINA RESULT:      -7.4      4.551      8.309
REMARK  Name = NuBBE_1050
REMARK  14 active torsions:
REMARK  status: ('A' for Active; 'I' for Inactive)
REMARK    1  A    between atoms: C_1  and  C_2
REMARK    2  A    between atoms: C_6  and  C_27
REMARK    3  A    between atoms: C_7  and  C_8
REMARK    4  A    between atoms: C_9  and  C_11
REMARK    5  A    between atoms: C_11  and  C_13
REMARK    6  A    between atoms: C_11  and  C_14
REMARK    7  A    between atoms: C_14  and  O_16
REMARK    8  A    between atoms: C_14  and  C_17
REMARK    9  A    between atoms: C_17  and  C_18
REMARK   10  A    between atoms: C_19  and  C_20
REMARK   11  A    between atoms: C_19  and  C_21
REMARK   12  A    between atoms: C_32  and  C_33
REMARK   13  A    between atoms: C_32  and  C_39
REMARK   14  A    between atoms: C_34  and  O_38
REMARK                            x       y       z     vdW  Elec       q    Type
REMARK                         _______ _______ _______ _____ _____    ______ ____
ROOT
ATOM      1  C   LIG A   1      -6.253   4.410 133.481  0.00  0.00    +0.012 C 
ATOM      2  C   LIG A   1      -5.874   4.955 132.063  0.00  0.00    -0.022 C 
ATOM      3  C   LIG A   1      -6.448   3.879 131.020  0.00  0.00    +0.021 C 
ATOM      4  C   LIG A   1      -5.433   2.902 130.408  0.00  0.00    -0.063 C 
ATOM      5  C   LIG A   1      -5.999   1.804 129.458  0.00  0.00    -0.005 C 
ATOM      6  C   LIG A   1      -7.175   2.329 128.508  0.00  0.00    -0.020 C 
ATOM      7  C   LIG A   1      -8.552   1.796 128.932  0.00  0.00    +0.012 C 
ATOM      8  C   LIG A   1      -6.750   1.965 127.013  0.00  0.00    +0.002 C 
ATOM      9  C   LIG A   1      -5.218   1.927 127.141  0.00  0.00    +0.005 C 
ATOM     10  C   LIG A   1      -4.981   1.205 128.449  0.00  0.00    +0.012 C 
ATOM     11  C   LIG A   1      -7.251   3.879 128.580  0.00  0.00    +0.008 C 
ATOM     12  C   LIG A   1      -7.485   4.387 129.996  0.00  0.00    +0.009 C 
ATOM     13  C   LIG A   1      -6.414   0.653 130.409  0.00  0.00    +0.016 C 
ATOM     14  C   LIG A   1      -4.161   2.874 130.848  0.00  0.00    -0.026 C 
ATOM     15  C   LIG A   1      -3.624   3.741 131.933  0.00  0.00    +0.031 C 
ATOM     16  C   LIG A   1      -4.301   5.114 132.022  0.00  0.00    +0.007 C 
ATOM     17  C   LIG A   1      -3.753   6.213 131.012  0.00  0.00    -0.005 C 
ATOM     18  C   LIG A   1      -2.538   5.758 130.167  0.00  0.00    +0.014 C 
ATOM     19  C   LIG A   1      -4.871   6.677 130.053  0.00  0.00    +0.120 C 
ATOM     20  C   LIG A   1      -6.085   7.225 130.794  0.00  0.00    +0.032 C 
ATOM     21  C   LIG A   1      -6.516   6.367 131.985  0.00  0.00    +0.010 C 
ATOM     22  C   LIG A   1      -3.243   7.422 131.846  0.00  0.00    +0.014 C 
ENDROOT
BRANCH   8  23
ATOM     23  C   LIG A   1      -7.376   0.680 126.327  0.00  0.00    +0.026 C 
ATOM     24  C   LIG A   1      -8.370   1.092 125.210  0.00  0.00    +0.011 C 
BRANCH  23  25
ATOM     25  C   LIG A   1      -6.296  -0.254 125.696  0.00  0.00    +0.188 C 
BRANCH  25  26
ATOM     26  O   LIG A   1      -6.607  -0.413 124.300  0.00  0.00    -0.384 OA
ATOM     27  H   LIG A   1      -5.773  -0.242 123.815  0.00  0.00    +0.210 HD
ENDBRANCH  25  26
BRANCH  25  28
ATOM     28  C   LIG A   1      -6.218  -1.651 126.329  0.00  0.00    +0.184 C 
ATOM     29  O   LIG A   1      -5.610  -2.562 125.726  0.00  0.00    -0.290 OA
BRANCH  28  30
ATOM     30  C   LIG A   1      -6.792  -2.012 127.662  0.00  0.00    +0.047 C 
ATOM     31  C   LIG A   1      -7.808  -2.768 128.128  0.00  0.00    -0.072 C 
ATOM     32  C   LIG A   1      -8.796  -3.572 127.343  0.00  0.00    +0.038 C 
ATOM     33  C   LIG A   1      -7.992  -2.873 129.629  0.00  0.00    +0.038 C 
ENDBRANCH  28  30
ENDBRANCH  25  28
ENDBRANCH  23  25
ENDBRANCH   8  23
BRANCH  19  34
ATOM     34  O   LIG A   1      -4.404   7.687 129.159  0.00  0.00    -0.391 OA
ATOM     35  H   LIG A   1      -3.457   7.521 129.005  0.00  0.00    +0.210 HD
ENDBRANCH  19  34
TORSDOF 6
ENDMDL
MODEL 8
REMARK VINA RESULT:      -7.4      2.073      8.384
REMARK  Name = NuBBE_1050
REMARK  14 active torsions:
REMARK  status: ('A' for Active; 'I' for Inactive)
REMARK    1  A    between atoms: C_1  and  C_2
REMARK    2  A    between atoms: C_6  and  C_27
REMARK    3  A    between atoms: C_7  and  C_8
REMARK    4  A    between atoms: C_9  and  C_11
REMARK    5  A    between atoms: C_11  and  C_13
REMARK    6  A    between atoms: C_11  and  C_14
REMARK    7  A    between atoms: C_14  and  O_16
REMARK    8  A    between atoms: C_14  and  C_17
REMARK    9  A    between atoms: C_17  and  C_18
REMARK   10  A    between atoms: C_19  and  C_20
REMARK   11  A    between atoms: C_19  and  C_21
REMARK   12  A    between atoms: C_32  and  C_33
REMARK   13  A    between atoms: C_32  and  C_39
REMARK   14  A    between atoms: C_34  and  O_38
REMARK                            x       y       z     vdW  Elec       q    Type
REMARK                         _______ _______ _______ _____ _____    ______ ____
ROOT
ATOM      1  C   LIG A   1      -2.153  -4.352 134.494  0.00  0.00    +0.012 C 
ATOM      2  C   LIG A   1      -3.415  -3.425 134.537  0.00  0.00    -0.022 C 
ATOM      3  C   LIG A   1      -4.133  -3.609 133.114  0.00  0.00    +0.021 C 
ATOM      4  C   LIG A   1      -3.918  -2.492 132.082  0.00  0.00    -0.063 C 
ATOM      5  C   LIG A   1      -4.546  -2.707 130.673  0.00  0.00    -0.005 C 
ATOM      6  C   LIG A   1      -5.990  -3.394 130.717  0.00  0.00    -0.020 C 
ATOM      7  C   LIG A   1      -5.959  -4.855 130.243  0.00  0.00    +0.012 C 
ATOM      8  C   LIG A   1      -6.973  -2.445 129.890  0.00  0.00    +0.002 C 
ATOM      9  C   LIG A   1      -6.269  -1.086 130.042  0.00  0.00    +0.005 C 
ATOM     10  C   LIG A   1      -4.804  -1.412 129.852  0.00  0.00    +0.012 C 
ATOM     11  C   LIG A   1      -6.517  -3.406 132.179  0.00  0.00    +0.008 C 
ATOM     12  C   LIG A   1      -5.583  -4.141 133.130  0.00  0.00    +0.009 C 
ATOM     13  C   LIG A   1      -3.478  -3.520 129.898  0.00  0.00    +0.016 C 
ATOM     14  C   LIG A   1      -3.051  -1.493 132.328  0.00  0.00    -0.026 C 
ATOM     15  C   LIG A   1      -2.235  -1.370 133.569  0.00  0.00    +0.031 C 
ATOM     16  C   LIG A   1      -2.911  -1.952 134.815  0.00  0.00    +0.007 C 
ATOM     17  C   LIG A   1      -3.960  -0.996 135.534  0.00  0.00    -0.005 C 
ATOM     18  C   LIG A   1      -4.056   0.423 134.923  0.00  0.00    +0.014 C 
ATOM     19  C   LIG A   1      -5.369  -1.629 135.524  0.00  0.00    +0.120 C 
ATOM     20  C   LIG A   1      -5.395  -3.004 136.183  0.00  0.00    +0.032 C 
ATOM     21  C   LIG A   1      -4.234  -3.908 135.765  0.00  0.00    +0.010 C 
ATOM     22  C   LIG A   1      -3.492  -0.782 137.001  0.00  0.00    +0.014 C 
ENDROOT
BRANCH   8  23
ATOM     23  C   LIG A   1      -7.331  -2.827 128.394  0.00  0.00    +0.026 C 
ATOM     24  C   LIG A   1      -8.662  -3.621 128.341  0.00  0.00    +0.011 C 
BRANCH  23  25
ATOM     25  C   LIG A   1      -7.475  -1.577 127.470  0.00  0.00    +0.188 C 
BRANCH  25  26
ATOM     26  O   LIG A   1      -8.619  -1.783 126.620  0.00  0.00    -0.384 OA
ATOM     27  H   LIG A   1      -8.653  -1.008 126.020  0.00  0.00    +0.210 HD
ENDBRANCH  25  26
BRANCH  25  28
ATOM     28  C   LIG A   1      -6.258  -1.308 126.573  0.00  0.00    +0.184 C 
ATOM     29  O   LIG A   1      -5.729  -0.176 126.583  0.00  0.00    -0.290 OA
BRANCH  28  30
ATOM     30  C   LIG A   1      -5.611  -2.329 125.692  0.00  0.00    +0.047 C 
ATOM     31  C   LIG A   1      -5.802  -2.829 124.452  0.00  0.00    -0.072 C 
ATOM     32  C   LIG A   1      -6.863  -2.463 123.464  0.00  0.00    +0.038 C 
ATOM     33  C   LIG A   1      -4.825  -3.869 123.943  0.00  0.00    +0.038 C 
ENDBRANCH  28  30
ENDBRANCH  25  28
ENDBRANCH  23  25
ENDBRANCH   8  23
BRANCH  19  34
ATOM     34  O   LIG A   1      -6.317  -0.799 136.192  0.00  0.00    -0.391 OA
ATOM     35  H   LIG A   1      -7.176  -1.257 136.159  0.00  0.00    +0.210 HD
ENDBRANCH  19  34
TORSDOF 6
ENDMDL
MODEL 9
REMARK VINA RESULT:      -7.3      3.725      5.605
REMARK  Name = NuBBE_1050
REMARK  14 active torsions:
REMARK  status: ('A' for Active; 'I' for Inactive)
REMARK    1  A    between atoms: C_1  and  C_2
REMARK    2  A    between atoms: C_6  and  C_27
REMARK    3  A    between atoms: C_7  and  C_8
REMARK    4  A    between atoms: C_9  and  C_11
REMARK    5  A    between atoms: C_11  and  C_13
REMARK    6  A    between atoms: C_11  and  C_14
REMARK    7  A    between atoms: C_14  and  O_16
REMARK    8  A    between atoms: C_14  and  C_17
REMARK    9  A    between atoms: C_17  and  C_18
REMARK   10  A    between atoms: C_19  and  C_20
REMARK   11  A    between atoms: C_19  and  C_21
REMARK   12  A    between atoms: C_32  and  C_33
REMARK   13  A    between atoms: C_32  and  C_39
REMARK   14  A    between atoms: C_34  and  O_38
REMARK                            x       y       z     vdW  Elec       q    Type
REMARK                         _______ _______ _______ _____ _____    ______ ____
ROOT
ATOM      1  C   LIG A   1      -4.983  -0.539 125.332  0.00  0.00    +0.012 C 
ATOM      2  C   LIG A   1      -6.456  -0.770 125.808  0.00  0.00    -0.022 C 
ATOM      3  C   LIG A   1      -6.748   0.384 126.884  0.00  0.00    +0.021 C 
ATOM      4  C   LIG A   1      -6.694  -0.021 128.364  0.00  0.00    -0.063 C 
ATOM      5  C   LIG A   1      -6.896   1.114 129.412  0.00  0.00    -0.005 C 
ATOM      6  C   LIG A   1      -8.007   2.183 128.986  0.00  0.00    -0.020 C 
ATOM      7  C   LIG A   1      -7.395   3.528 128.564  0.00  0.00    +0.012 C 
ATOM      8  C   LIG A   1      -9.043   2.272 130.197  0.00  0.00    +0.002 C 
ATOM      9  C   LIG A   1      -8.876   0.881 130.832  0.00  0.00    +0.005 C 
ATOM     10  C   LIG A   1      -7.381   0.650 130.813  0.00  0.00    +0.012 C 
ATOM     11  C   LIG A   1      -8.803   1.649 127.763  0.00  0.00    +0.008 C 
ATOM     12  C   LIG A   1      -7.909   1.352 126.568  0.00  0.00    +0.009 C 
ATOM     13  C   LIG A   1      -5.478   1.711 129.606  0.00  0.00    +0.016 C 
ATOM     14  C   LIG A   1      -6.279  -1.251 128.720  0.00  0.00    -0.026 C 
ATOM     15  C   LIG A   1      -5.839  -2.304 127.762  0.00  0.00    +0.031 C 
ATOM     16  C   LIG A   1      -6.538  -2.234 126.400  0.00  0.00    +0.007 C 
ATOM     17  C   LIG A   1      -7.973  -2.919 126.333  0.00  0.00    -0.005 C 
ATOM     18  C   LIG A   1      -8.396  -3.649 127.630  0.00  0.00    +0.014 C 
ATOM     19  C   LIG A   1      -9.057  -1.876 125.982  0.00  0.00    +0.120 C 
ATOM     20  C   LIG A   1      -8.772  -1.157 124.668  0.00  0.00    +0.032 C 
ATOM     21  C   LIG A   1      -7.316  -0.711 124.517  0.00  0.00    +0.010 C 
ATOM     22  C   LIG A   1      -7.930  -4.020 125.236  0.00  0.00    +0.014 C 
ENDROOT
BRANCH   8  23
ATOM     23  C   LIG A   1      -8.922   3.473 131.225  0.00  0.00    +0.026 C 
ATOM     24  C   LIG A   1     -10.202   4.349 131.187  0.00  0.00    +0.011 C 
BRANCH  23  25
ATOM     25  C   LIG A   1      -8.707   2.991 132.694  0.00  0.00    +0.188 C 
BRANCH  25  26
ATOM     26  O   LIG A   1      -9.776   3.526 133.498  0.00  0.00    -0.384 OA
ATOM     27  H   LIG A   1      -9.530   3.345 134.429  0.00  0.00    +0.210 HD
ENDBRANCH  25  26
BRANCH  25  28
ATOM     28  C   LIG A   1      -7.376   3.433 133.318  0.00  0.00    +0.184 C 
ATOM     29  O   LIG A   1      -7.238   3.390 134.559  0.00  0.00    -0.290 OA
BRANCH  28  30
ATOM     30  C   LIG A   1      -6.183   3.887 132.538  0.00  0.00    +0.047 C 
ATOM     31  C   LIG A   1      -5.794   5.004 131.887  0.00  0.00    -0.072 C 
ATOM     32  C   LIG A   1      -6.546   6.287 131.727  0.00  0.00    +0.038 C 
ATOM     33  C   LIG A   1      -4.419   5.018 131.250  0.00  0.00    +0.038 C 
ENDBRANCH  28  30
ENDBRANCH  25  28
ENDBRANCH  23  25
ENDBRANCH   8  23
BRANCH  19  34
ATOM     34  O   LIG A   1     -10.347  -2.479 125.886  0.00  0.00    -0.391 OA
ATOM     35  H   LIG A   1     -10.600  -2.469 124.946  0.00  0.00    +0.210 HD
ENDBRANCH  19  34
TORSDOF 6
ENDMDL
