MODEL 1
REMARK VINA RESULT:      -7.5      0.000      0.000
REMARK  Name = NuBBE_2219
REMARK  14 active torsions:
REMARK  status: ('A' for Active; 'I' for Inactive)
REMARK    1  A    between atoms: O_1  and  C_2
REMARK    2  A    between atoms: O_1  and  C_18
REMARK    3  A    between atoms: C_2  and  C_4
REMARK    4  A    between atoms: C_2  and  C_17
REMARK    5  A    between atoms: C_4  and  O_6
REMARK    6  A    between atoms: C_4  and  C_7
REMARK    7  A    between atoms: C_9  and  O_10
REMARK    8  A    between atoms: O_10  and  C_11
REMARK    9  A    between atoms: C_12  and  O_15
REMARK   10  A    between atoms: O_15  and  C_16
REMARK   11  A    between atoms: C_19  and  O_20
REMARK   12  A    between atoms: O_20  and  C_21
REMARK   13  A    between atoms: C_23  and  C_26
REMARK   14  A    between atoms: C_27  and  C_28
REMARK                            x       y       z     vdW  Elec       q    Type
REMARK                         _______ _______ _______ _____ _____    ______ ____
ROOT
ATOM      1  C   LIG A   1      -9.272   0.500 123.573  0.00  0.00    +0.203 C 
ATOM      2  C   LIG A   1      -9.824  -0.348 122.428  0.00  0.00    +0.055 C 
ENDROOT
BRANCH   1   3
ATOM      3  O   LIG A   1      -9.860   0.080 124.815  0.00  0.00    -0.482 OA
BRANCH   3   4
ATOM      4  C   LIG A   1      -9.050  -0.398 125.824  0.00  0.00    +0.163 A 
ATOM      5  C   LIG A   1      -9.066  -1.796 126.000  0.00  0.00    +0.162 A 
ATOM      6  C   LIG A   1      -8.323  -2.394 127.028  0.00  0.00    +0.057 A 
ATOM      7  C   LIG A   1      -7.562  -1.610 127.907  0.00  0.00    -0.022 A 
ATOM      8  C   LIG A   1      -7.536  -0.226 127.725  0.00  0.00    +0.012 A 
ATOM      9  C   LIG A   1      -8.272   0.376 126.692  0.00  0.00    +0.050 A 
BRANCH   7  10
ATOM     10  C   LIG A   1      -6.808  -2.234 128.996  0.00  0.00    +0.003 C 
ATOM     11  C   LIG A   1      -6.983  -3.529 129.342  0.00  0.00    -0.030 C 
ATOM     12  C   LIG A   1      -6.230  -4.212 130.436  0.00  0.00    +0.035 C 
ENDBRANCH   7  10
BRANCH   5  13
ATOM     13  O   LIG A   1      -9.786  -2.504 125.067  0.00  0.00    -0.491 OA
ATOM     14  C   LIG A   1      -9.050  -3.409 124.256  0.00  0.00    +0.277 C 
ENDBRANCH   5  13
ENDBRANCH   3   4
ENDBRANCH   1   3
BRANCH   1  15
ATOM     15  C   LIG A   1      -9.548   2.022 123.377  0.00  0.00    +0.185 C 
BRANCH  15  16
ATOM     16  C   LIG A   1      -8.460   2.696 122.566  0.00  0.00    -0.012 A 
ATOM     17  C   LIG A   1      -8.695   3.213 121.284  0.00  0.00    +0.055 A 
ATOM     18  C   LIG A   1      -7.659   3.827 120.562  0.00  0.00    +0.162 A 
ATOM     19  C   LIG A   1      -6.364   3.915 121.100  0.00  0.00    +0.162 A 
ATOM     20  C   LIG A   1      -6.142   3.420 122.388  0.00  0.00    +0.050 A 
ATOM     21  C   LIG A   1      -7.177   2.834 123.113  0.00  0.00    +0.010 A 
BRANCH  18  22
ATOM     22  O   LIG A   1      -8.017   4.479 119.409  0.00  0.00    -0.491 OA
ATOM     23  C   LIG A   1      -9.390   4.319 119.062  0.00  0.00    +0.277 C 
ENDBRANCH  18  22
BRANCH  19  24
ATOM     24  O   LIG A   1      -5.395   4.547 120.362  0.00  0.00    -0.491 OA
ATOM     25  C   LIG A   1      -4.483   5.353 121.108  0.00  0.00    +0.277 C 
ENDBRANCH  19  24
ENDBRANCH  15  16
BRANCH  15  26
ATOM     26  O   LIG A   1      -9.563   2.660 124.665  0.00  0.00    -0.384 OA
ATOM     27  H   LIG A   1     -10.313   3.282 124.640  0.00  0.00    +0.210 HD
ENDBRANCH  15  26
ENDBRANCH   1  15
TORSDOF 9
ENDMDL
MODEL 2
REMARK VINA RESULT:      -7.4      8.909     10.795
REMARK  Name = NuBBE_2219
REMARK  14 active torsions:
REMARK  status: ('A' for Active; 'I' for Inactive)
REMARK    1  A    between atoms: O_1  and  C_2
REMARK    2  A    between atoms: O_1  and  C_18
REMARK    3  A    between atoms: C_2  and  C_4
REMARK    4  A    between atoms: C_2  and  C_17
REMARK    5  A    between atoms: C_4  and  O_6
REMARK    6  A    between atoms: C_4  and  C_7
REMARK    7  A    between atoms: C_9  and  O_10
REMARK    8  A    between atoms: O_10  and  C_11
REMARK    9  A    between atoms: C_12  and  O_15
REMARK   10  A    between atoms: O_15  and  C_16
REMARK   11  A    between atoms: C_19  and  O_20
REMARK   12  A    between atoms: O_20  and  C_21
REMARK   13  A    between atoms: C_23  and  C_26
REMARK   14  A    between atoms: C_27  and  C_28
REMARK                            x       y       z     vdW  Elec       q    Type
REMARK                         _______ _______ _______ _____ _____    ______ ____
ROOT
ATOM      1  C   LIG A   1      -8.704   5.587 131.325  0.00  0.00    +0.203 C 
ATOM      2  C   LIG A   1      -8.496   4.236 130.642  0.00  0.00    +0.055 C 
ENDROOT
BRANCH   1   3
ATOM      3  O   LIG A   1      -7.799   5.715 132.434  0.00  0.00    -0.482 OA
BRANCH   3   4
ATOM      4  C   LIG A   1      -6.501   6.123 132.209  0.00  0.00    +0.163 A 
ATOM      5  C   LIG A   1      -5.588   5.831 133.242  0.00  0.00    +0.162 A 
ATOM      6  C   LIG A   1      -4.250   6.242 133.149  0.00  0.00    +0.057 A 
ATOM      7  C   LIG A   1      -3.803   6.964 132.034  0.00  0.00    -0.022 A 
ATOM      8  C   LIG A   1      -4.704   7.244 131.004  0.00  0.00    +0.012 A 
ATOM      9  C   LIG A   1      -6.041   6.826 131.089  0.00  0.00    +0.050 A 
BRANCH   7  10
ATOM     10  C   LIG A   1      -2.412   7.417 131.951  0.00  0.00    +0.003 C 
ATOM     11  C   LIG A   1      -1.502   7.120 132.906  0.00  0.00    -0.030 C 
ATOM     12  C   LIG A   1      -0.072   7.549 132.860  0.00  0.00    +0.035 C 
ENDBRANCH   7  10
BRANCH   5  13
ATOM     13  O   LIG A   1      -6.083   5.071 134.275  0.00  0.00    -0.491 OA
ATOM     14  C   LIG A   1      -6.105   5.686 135.555  0.00  0.00    +0.277 C 
ENDBRANCH   5  13
ENDBRANCH   3   4
ENDBRANCH   1   3
BRANCH   1  15
ATOM     15  C   LIG A   1     -10.162   5.775 131.844  0.00  0.00    +0.185 C 
BRANCH  15  16
ATOM     16  C   LIG A   1     -10.948   6.748 130.988  0.00  0.00    -0.012 A 
ATOM     17  C   LIG A   1     -10.412   7.323 129.826  0.00  0.00    +0.055 A 
ATOM     18  C   LIG A   1     -11.171   8.223 129.062  0.00  0.00    +0.162 A 
ATOM     19  C   LIG A   1     -12.470   8.582 129.457  0.00  0.00    +0.162 A 
ATOM     20  C   LIG A   1     -13.008   7.987 130.602  0.00  0.00    +0.050 A 
ATOM     21  C   LIG A   1     -12.263   7.075 131.345  0.00  0.00    +0.010 A 
BRANCH  18  22
ATOM     22  O   LIG A   1     -10.652   8.583 127.843  0.00  0.00    -0.491 OA
ATOM     23  C   LIG A   1     -10.729   7.554 126.860  0.00  0.00    +0.277 C 
ENDBRANCH  18  22
BRANCH  19  24
ATOM     24  O   LIG A   1     -13.177   9.447 128.660  0.00  0.00    -0.491 OA
ATOM     25  C   LIG A   1     -13.628  10.642 129.297  0.00  0.00    +0.277 C 
ENDBRANCH  19  24
ENDBRANCH  15  16
BRANCH  15  26
ATOM     26  O   LIG A   1     -10.114   6.332 133.168  0.00  0.00    -0.384 OA
ATOM     27  H   LIG A   1     -10.530   5.667 133.747  0.00  0.00    +0.210 HD
ENDBRANCH  15  26
ENDBRANCH   1  15
TORSDOF 9
ENDMDL
MODEL 3
REMARK VINA RESULT:      -7.3      1.330      2.281
REMARK  Name = NuBBE_2219
REMARK  14 active torsions:
REMARK  status: ('A' for Active; 'I' for Inactive)
REMARK    1  A    between atoms: O_1  and  C_2
REMARK    2  A    between atoms: O_1  and  C_18
REMARK    3  A    between atoms: C_2  and  C_4
REMARK    4  A    between atoms: C_2  and  C_17
REMARK    5  A    between atoms: C_4  and  O_6
REMARK    6  A    between atoms: C_4  and  C_7
REMARK    7  A    between atoms: C_9  and  O_10
REMARK    8  A    between atoms: O_10  and  C_11
REMARK    9  A    between atoms: C_12  and  O_15
REMARK   10  A    between atoms: O_15  and  C_16
REMARK   11  A    between atoms: C_19  and  O_20
REMARK   12  A    between atoms: O_20  and  C_21
REMARK   13  A    between atoms: C_23  and  C_26
REMARK   14  A    between atoms: C_27  and  C_28
REMARK                            x       y       z     vdW  Elec       q    Type
REMARK                         _______ _______ _______ _____ _____    ______ ____
ROOT
ATOM      1  C   LIG A   1      -9.240   0.427 123.595  0.00  0.00    +0.203 C 
ATOM      2  C   LIG A   1      -9.834  -0.306 122.393  0.00  0.00    +0.055 C 
ENDROOT
BRANCH   1   3
ATOM      3  O   LIG A   1      -9.831  -0.069 124.807  0.00  0.00    -0.482 OA
BRANCH   3   4
ATOM      4  C   LIG A   1      -9.026  -0.635 125.774  0.00  0.00    +0.163 A 
ATOM      5  C   LIG A   1      -9.088  -2.040 125.864  0.00  0.00    +0.162 A 
ATOM      6  C   LIG A   1      -8.353  -2.725 126.844  0.00  0.00    +0.057 A 
ATOM      7  C   LIG A   1      -7.558  -2.021 127.759  0.00  0.00    -0.022 A 
ATOM      8  C   LIG A   1      -7.487  -0.630 127.662  0.00  0.00    +0.012 A 
ATOM      9  C   LIG A   1      -8.213   0.058 126.678  0.00  0.00    +0.050 A 
BRANCH   7  10
ATOM     10  C   LIG A   1      -6.812  -2.736 128.799  0.00  0.00    +0.003 C 
ATOM     11  C   LIG A   1      -7.296  -2.889 130.052  0.00  0.00    -0.030 C 
ATOM     12  C   LIG A   1      -6.579  -3.617 131.141  0.00  0.00    +0.035 C 
ENDBRANCH   7  10
BRANCH   5  13
ATOM     13  O   LIG A   1      -9.841  -2.666 124.899  0.00  0.00    -0.491 OA
ATOM     14  C   LIG A   1      -9.136  -3.496 123.988  0.00  0.00    +0.277 C 
ENDBRANCH   5  13
ENDBRANCH   3   4
ENDBRANCH   1   3
BRANCH   1  15
ATOM     15  C   LIG A   1      -9.461   1.968 123.525  0.00  0.00    +0.185 C 
BRANCH  15  16
ATOM     16  C   LIG A   1      -8.187   2.709 123.172  0.00  0.00    -0.012 A 
ATOM     17  C   LIG A   1      -7.227   3.046 124.137  0.00  0.00    +0.055 A 
ATOM     18  C   LIG A   1      -6.060   3.736 123.772  0.00  0.00    +0.162 A 
ATOM     19  C   LIG A   1      -5.843   4.122 122.438  0.00  0.00    +0.162 A 
ATOM     20  C   LIG A   1      -6.792   3.762 121.477  0.00  0.00    +0.050 A 
ATOM     21  C   LIG A   1      -7.936   3.055 121.837  0.00  0.00    +0.010 A 
BRANCH  18  22
ATOM     22  O   LIG A   1      -5.087   3.850 124.733  0.00  0.00    -0.491 OA
ATOM     23  C   LIG A   1      -5.466   4.666 125.838  0.00  0.00    +0.277 C 
ENDBRANCH  18  22
BRANCH  19  24
ATOM     24  O   LIG A   1      -4.675   4.773 122.132  0.00  0.00    -0.491 OA
ATOM     25  C   LIG A   1      -4.612   5.342 120.824  0.00  0.00    +0.277 C 
ENDBRANCH  19  24
ENDBRANCH  15  16
BRANCH  15  26
ATOM     26  O   LIG A   1      -9.870   2.438 124.820  0.00  0.00    -0.384 OA
ATOM     27  H   LIG A   1      -9.725   3.402 124.807  0.00  0.00    +0.210 HD
ENDBRANCH  15  26
ENDBRANCH   1  15
TORSDOF 9
ENDMDL
MODEL 4
REMARK VINA RESULT:      -7.3      7.400      9.451
REMARK  Name = NuBBE_2219
REMARK  14 active torsions:
REMARK  status: ('A' for Active; 'I' for Inactive)
REMARK    1  A    between atoms: O_1  and  C_2
REMARK    2  A    between atoms: O_1  and  C_18
REMARK    3  A    between atoms: C_2  and  C_4
REMARK    4  A    between atoms: C_2  and  C_17
REMARK    5  A    between atoms: C_4  and  O_6
REMARK    6  A    between atoms: C_4  and  C_7
REMARK    7  A    between atoms: C_9  and  O_10
REMARK    8  A    between atoms: O_10  and  C_11
REMARK    9  A    between atoms: C_12  and  O_15
REMARK   10  A    between atoms: O_15  and  C_16
REMARK   11  A    between atoms: C_19  and  O_20
REMARK   12  A    between atoms: O_20  and  C_21
REMARK   13  A    between atoms: C_23  and  C_26
REMARK   14  A    between atoms: C_27  and  C_28
REMARK                            x       y       z     vdW  Elec       q    Type
REMARK                         _______ _______ _______ _____ _____    ______ ____
ROOT
ATOM      1  C   LIG A   1      -9.397   4.562 130.788  0.00  0.00    +0.203 C 
ATOM      2  C   LIG A   1     -10.360   3.407 130.517  0.00  0.00    +0.055 C 
ENDROOT
BRANCH   1   3
ATOM      3  O   LIG A   1      -8.184   4.056 131.369  0.00  0.00    -0.482 OA
BRANCH   3   4
ATOM      4  C   LIG A   1      -7.046   3.963 130.595  0.00  0.00    +0.163 A 
ATOM      5  C   LIG A   1      -5.991   4.819 130.968  0.00  0.00    +0.162 A 
ATOM      6  C   LIG A   1      -4.802   4.851 130.224  0.00  0.00    +0.057 A 
ATOM      7  C   LIG A   1      -4.649   4.042 129.089  0.00  0.00    -0.022 A 
ATOM      8  C   LIG A   1      -5.690   3.184 128.727  0.00  0.00    +0.012 A 
ATOM      9  C   LIG A   1      -6.877   3.143 129.474  0.00  0.00    +0.050 A 
BRANCH   7  10
ATOM     10  C   LIG A   1      -3.418   4.095 128.298  0.00  0.00    +0.003 C 
ATOM     11  C   LIG A   1      -2.964   3.028 127.602  0.00  0.00    -0.030 C 
ATOM     12  C   LIG A   1      -1.722   3.038 126.773  0.00  0.00    +0.035 C 
ENDBRANCH   7  10
BRANCH   5  13
ATOM     13  O   LIG A   1      -6.188   5.540 132.121  0.00  0.00    -0.491 OA
ATOM     14  C   LIG A   1      -5.514   5.072 133.280  0.00  0.00    +0.277 C 
ENDBRANCH   5  13
ENDBRANCH   3   4
ENDBRANCH   1   3
BRANCH   1  15
ATOM     15  C   LIG A   1     -10.002   5.633 131.745  0.00  0.00    +0.185 C 
BRANCH  15  16
ATOM     16  C   LIG A   1     -10.833   6.656 130.997  0.00  0.00    -0.012 A 
ATOM     17  C   LIG A   1     -10.361   7.308 129.848  0.00  0.00    +0.055 A 
ATOM     18  C   LIG A   1     -11.160   8.253 129.186  0.00  0.00    +0.162 A 
ATOM     19  C   LIG A   1     -12.436   8.582 129.674  0.00  0.00    +0.162 A 
ATOM     20  C   LIG A   1     -12.911   7.912 130.805  0.00  0.00    +0.050 A 
ATOM     21  C   LIG A   1     -12.127   6.955 131.445  0.00  0.00    +0.010 A 
BRANCH  18  22
ATOM     22  O   LIG A   1     -10.708   8.693 127.967  0.00  0.00    -0.491 OA
ATOM     23  C   LIG A   1     -10.879   7.747 126.916  0.00  0.00    +0.277 C 
ENDBRANCH  18  22
BRANCH  19  24
ATOM     24  O   LIG A   1     -13.185   9.494 128.974  0.00  0.00    -0.491 OA
ATOM     25  C   LIG A   1     -13.504  10.696 129.675  0.00  0.00    +0.277 C 
ENDBRANCH  19  24
ENDBRANCH  15  16
BRANCH  15  26
ATOM     26  O   LIG A   1      -8.929   6.350 132.376  0.00  0.00    -0.384 OA
ATOM     27  H   LIG A   1      -9.354   7.072 132.874  0.00  0.00    +0.210 HD
ENDBRANCH  15  26
ENDBRANCH   1  15
TORSDOF 9
ENDMDL
MODEL 5
REMARK VINA RESULT:      -7.2      7.923      9.903
REMARK  Name = NuBBE_2219
REMARK  14 active torsions:
REMARK  status: ('A' for Active; 'I' for Inactive)
REMARK    1  A    between atoms: O_1  and  C_2
REMARK    2  A    between atoms: O_1  and  C_18
REMARK    3  A    between atoms: C_2  and  C_4
REMARK    4  A    between atoms: C_2  and  C_17
REMARK    5  A    between atoms: C_4  and  O_6
REMARK    6  A    between atoms: C_4  and  C_7
REMARK    7  A    between atoms: C_9  and  O_10
REMARK    8  A    between atoms: O_10  and  C_11
REMARK    9  A    between atoms: C_12  and  O_15
REMARK   10  A    between atoms: O_15  and  C_16
REMARK   11  A    between atoms: C_19  and  O_20
REMARK   12  A    between atoms: O_20  and  C_21
REMARK   13  A    between atoms: C_23  and  C_26
REMARK   14  A    between atoms: C_27  and  C_28
REMARK                            x       y       z     vdW  Elec       q    Type
REMARK                         _______ _______ _______ _____ _____    ______ ____
ROOT
ATOM      1  C   LIG A   1      -9.849   4.845 131.197  0.00  0.00    +0.203 C 
ATOM      2  C   LIG A   1     -10.383   3.445 130.900  0.00  0.00    +0.055 C 
ENDROOT
BRANCH   1   3
ATOM      3  O   LIG A   1      -8.635   4.751 131.958  0.00  0.00    -0.482 OA
BRANCH   3   4
ATOM      4  C   LIG A   1      -7.463   5.258 131.436  0.00  0.00    +0.163 A 
ATOM      5  C   LIG A   1      -6.518   4.295 131.027  0.00  0.00    +0.162 A 
ATOM      6  C   LIG A   1      -5.268   4.690 130.528  0.00  0.00    +0.057 A 
ATOM      7  C   LIG A   1      -4.932   6.049 130.441  0.00  0.00    -0.022 A 
ATOM      8  C   LIG A   1      -5.873   7.003 130.834  0.00  0.00    +0.012 A 
ATOM      9  C   LIG A   1      -7.128   6.612 131.325  0.00  0.00    +0.050 A 
BRANCH   7  10
ATOM     10  C   LIG A   1      -3.617   6.459 129.944  0.00  0.00    +0.003 C 
ATOM     11  C   LIG A   1      -3.394   6.729 128.638  0.00  0.00    -0.030 C 
ATOM     12  C   LIG A   1      -2.075   7.161 128.087  0.00  0.00    +0.035 C 
ENDBRANCH   7  10
BRANCH   5  13
ATOM     13  O   LIG A   1      -6.937   2.988 131.087  0.00  0.00    -0.491 OA
ATOM     14  C   LIG A   1      -6.510   2.139 130.031  0.00  0.00    +0.277 C 
ENDBRANCH   5  13
ENDBRANCH   3   4
ENDBRANCH   1   3
BRANCH   1  15
ATOM     15  C   LIG A   1     -10.869   5.719 131.988  0.00  0.00    +0.185 C 
BRANCH  15  16
ATOM     16  C   LIG A   1     -11.460   6.819 131.129  0.00  0.00    -0.012 A 
ATOM     17  C   LIG A   1     -10.794   7.330 130.005  0.00  0.00    +0.055 A 
ATOM     18  C   LIG A   1     -11.373   8.352 129.237  0.00  0.00    +0.162 A 
ATOM     19  C   LIG A   1     -12.617   8.900 129.593  0.00  0.00    +0.162 A 
ATOM     20  C   LIG A   1     -13.287   8.371 130.699  0.00  0.00    +0.050 A 
ATOM     21  C   LIG A   1     -12.723   7.339 131.445  0.00  0.00    +0.010 A 
BRANCH  18  22
ATOM     22  O   LIG A   1     -10.754   8.653 128.050  0.00  0.00    -0.491 OA
ATOM     23  C   LIG A   1     -10.948   7.671 127.036  0.00  0.00    +0.277 C 
ENDBRANCH  18  22
BRANCH  19  24
ATOM     24  O   LIG A   1     -13.148   9.880 128.793  0.00  0.00    -0.491 OA
ATOM     25  C   LIG A   1     -13.627  11.038 129.475  0.00  0.00    +0.277 C 
ENDBRANCH  19  24
ENDBRANCH  15  16
BRANCH  15  26
ATOM     26  O   LIG A   1     -10.184   6.362 133.075  0.00  0.00    -0.384 OA
ATOM     27  H   LIG A   1     -10.662   7.198 133.228  0.00  0.00    +0.210 HD
ENDBRANCH  15  26
ENDBRANCH   1  15
TORSDOF 9
ENDMDL
MODEL 6
REMARK VINA RESULT:      -7.1      6.732      8.452
REMARK  Name = NuBBE_2219
REMARK  14 active torsions:
REMARK  status: ('A' for Active; 'I' for Inactive)
REMARK    1  A    between atoms: O_1  and  C_2
REMARK    2  A    between atoms: O_1  and  C_18
REMARK    3  A    between atoms: C_2  and  C_4
REMARK    4  A    between atoms: C_2  and  C_17
REMARK    5  A    between atoms: C_4  and  O_6
REMARK    6  A    between atoms: C_4  and  C_7
REMARK    7  A    between atoms: C_9  and  O_10
REMARK    8  A    between atoms: O_10  and  C_11
REMARK    9  A    between atoms: C_12  and  O_15
REMARK   10  A    between atoms: O_15  and  C_16
REMARK   11  A    between atoms: C_19  and  O_20
REMARK   12  A    between atoms: O_20  and  C_21
REMARK   13  A    between atoms: C_23  and  C_26
REMARK   14  A    between atoms: C_27  and  C_28
REMARK                            x       y       z     vdW  Elec       q    Type
REMARK                         _______ _______ _______ _____ _____    ______ ____
ROOT
ATOM      1  C   LIG A   1      -9.720   4.547 130.856  0.00  0.00    +0.203 C 
ATOM      2  C   LIG A   1     -10.802   3.552 130.437  0.00  0.00    +0.055 C 
ENDROOT
BRANCH   1   3
ATOM      3  O   LIG A   1      -8.667   3.856 131.547  0.00  0.00    -0.482 OA
BRANCH   3   4
ATOM      4  C   LIG A   1      -8.534   2.491 131.396  0.00  0.00    +0.163 A 
ATOM      5  C   LIG A   1      -7.685   2.080 130.349  0.00  0.00    +0.162 A 
ATOM      6  C   LIG A   1      -7.512   0.716 130.066  0.00  0.00    +0.057 A 
ATOM      7  C   LIG A   1      -8.192  -0.258 130.809  0.00  0.00    -0.022 A 
ATOM      8  C   LIG A   1      -9.024   0.149 131.854  0.00  0.00    +0.012 A 
ATOM      9  C   LIG A   1      -9.193   1.511 132.146  0.00  0.00    +0.050 A 
BRANCH   7  10
ATOM     10  C   LIG A   1      -8.031  -1.680 130.495  0.00  0.00    +0.003 C 
ATOM     11  C   LIG A   1      -7.891  -2.123 129.225  0.00  0.00    -0.030 C 
ATOM     12  C   LIG A   1      -7.713  -3.559 128.856  0.00  0.00    +0.035 C 
ENDBRANCH   7  10
BRANCH   5  13
ATOM     13  O   LIG A   1      -7.007   3.085 129.702  0.00  0.00    -0.491 OA
ATOM     14  C   LIG A   1      -6.943   2.993 128.286  0.00  0.00    +0.277 C 
ENDBRANCH   5  13
ENDBRANCH   3   4
ENDBRANCH   1   3
BRANCH   1  15
ATOM     15  C   LIG A   1     -10.270   5.675 131.779  0.00  0.00    +0.185 C 
BRANCH  15  16
ATOM     16  C   LIG A   1     -11.037   6.723 130.999  0.00  0.00    -0.012 A 
ATOM     17  C   LIG A   1     -10.518   7.324 129.843  0.00  0.00    +0.055 A 
ATOM     18  C   LIG A   1     -11.259   8.294 129.150  0.00  0.00    +0.162 A 
ATOM     19  C   LIG A   1     -12.522   8.699 129.614  0.00  0.00    +0.162 A 
ATOM     20  C   LIG A   1     -13.045   8.080 130.753  0.00  0.00    +0.050 A 
ATOM     21  C   LIG A   1     -12.319   7.099 131.424  0.00  0.00    +0.010 A 
BRANCH  18  22
ATOM     22  O   LIG A   1     -10.770   8.684 127.929  0.00  0.00    -0.491 OA
ATOM     23  C   LIG A   1     -10.876   7.681 126.922  0.00  0.00    +0.277 C 
ENDBRANCH  18  22
BRANCH  19  24
ATOM     24  O   LIG A   1     -13.214   9.633 128.885  0.00  0.00    -0.491 OA
ATOM     25  C   LIG A   1     -13.543  10.836 129.580  0.00  0.00    +0.277 C 
ENDBRANCH  19  24
ENDBRANCH  15  16
BRANCH  15  26
ATOM     26  O   LIG A   1      -9.161   6.347 132.400  0.00  0.00    -0.384 OA
ATOM     27  H   LIG A   1      -9.542   6.849 133.144  0.00  0.00    +0.210 HD
ENDBRANCH  15  26
ENDBRANCH   1  15
TORSDOF 9
ENDMDL
MODEL 7
REMARK VINA RESULT:      -7.0      5.003      7.799
REMARK  Name = NuBBE_2219
REMARK  14 active torsions:
REMARK  status: ('A' for Active; 'I' for Inactive)
REMARK    1  A    between atoms: O_1  and  C_2
REMARK    2  A    between atoms: O_1  and  C_18
REMARK    3  A    between atoms: C_2  and  C_4
REMARK    4  A    between atoms: C_2  and  C_17
REMARK    5  A    between atoms: C_4  and  O_6
REMARK    6  A    between atoms: C_4  and  C_7
REMARK    7  A    between atoms: C_9  and  O_10
REMARK    8  A    between atoms: O_10  and  C_11
REMARK    9  A    between atoms: C_12  and  O_15
REMARK   10  A    between atoms: O_15  and  C_16
REMARK   11  A    between atoms: C_19  and  O_20
REMARK   12  A    between atoms: O_20  and  C_21
REMARK   13  A    between atoms: C_23  and  C_26
REMARK   14  A    between atoms: C_27  and  C_28
REMARK                            x       y       z     vdW  Elec       q    Type
REMARK                         _______ _______ _______ _____ _____    ______ ____
ROOT
ATOM      1  C   LIG A   1      -7.562  -1.657 131.553  0.00  0.00    +0.203 C 
ATOM      2  C   LIG A   1      -7.490  -2.558 132.785  0.00  0.00    +0.055 C 
ENDROOT
BRANCH   1   3
ATOM      3  O   LIG A   1      -6.759  -2.212 130.498  0.00  0.00    -0.482 OA
BRANCH   3   4
ATOM      4  C   LIG A   1      -7.361  -2.607 129.321  0.00  0.00    +0.163 A 
ATOM      5  C   LIG A   1      -6.951  -1.906 128.169  0.00  0.00    +0.162 A 
ATOM      6  C   LIG A   1      -7.530  -2.184 126.922  0.00  0.00    +0.057 A 
ATOM      7  C   LIG A   1      -8.537  -3.152 126.803  0.00  0.00    -0.022 A 
ATOM      8  C   LIG A   1      -8.935  -3.854 127.943  0.00  0.00    +0.012 A 
ATOM      9  C   LIG A   1      -8.352  -3.586 129.190  0.00  0.00    +0.050 A 
BRANCH   7  10
ATOM     10  C   LIG A   1      -9.160  -3.422 125.505  0.00  0.00    +0.003 C 
ATOM     11  C   LIG A   1      -8.785  -2.773 124.380  0.00  0.00    -0.030 C 
ATOM     12  C   LIG A   1      -9.382  -3.021 123.033  0.00  0.00    +0.035 C 
ENDBRANCH   7  10
BRANCH   5  13
ATOM     13  O   LIG A   1      -5.921  -1.015 128.350  0.00  0.00    -0.491 OA
ATOM     14  C   LIG A   1      -5.688  -0.096 127.293  0.00  0.00    +0.277 C 
ENDBRANCH   5  13
ENDBRANCH   3   4
ENDBRANCH   1   3
BRANCH   1  15
ATOM     15  C   LIG A   1      -7.073  -0.206 131.844  0.00  0.00    +0.185 C 
BRANCH  15  16
ATOM     16  C   LIG A   1      -8.055   0.834 131.344  0.00  0.00    -0.012 A 
ATOM     17  C   LIG A   1      -7.983   1.369 130.050  0.00  0.00    +0.055 A 
ATOM     18  C   LIG A   1      -8.910   2.334 129.625  0.00  0.00    +0.162 A 
ATOM     19  C   LIG A   1      -9.911   2.799 130.495  0.00  0.00    +0.162 A 
ATOM     20  C   LIG A   1      -9.993   2.245 131.775  0.00  0.00    +0.050 A 
ATOM     21  C   LIG A   1      -9.089   1.268 132.186  0.00  0.00    +0.010 A 
BRANCH  18  22
ATOM     22  O   LIG A   1      -8.893   2.657 128.292  0.00  0.00    -0.491 OA
ATOM     23  C   LIG A   1      -7.621   3.099 127.825  0.00  0.00    +0.277 C 
ENDBRANCH  18  22
BRANCH  19  24
ATOM     24  O   LIG A   1     -10.806   3.726 130.020  0.00  0.00    -0.491 OA
ATOM     25  C   LIG A   1     -10.601   5.065 130.470  0.00  0.00    +0.277 C 
ENDBRANCH  19  24
ENDBRANCH  15  16
BRANCH  15  26
ATOM     26  O   LIG A   1      -5.839   0.016 131.143  0.00  0.00    -0.384 OA
ATOM     27  H   LIG A   1      -6.041  -0.134 130.201  0.00  0.00    +0.210 HD
ENDBRANCH  15  26
ENDBRANCH   1  15
TORSDOF 9
ENDMDL
MODEL 8
REMARK VINA RESULT:      -7.0      6.433      8.905
REMARK  Name = NuBBE_2219
REMARK  14 active torsions:
REMARK  status: ('A' for Active; 'I' for Inactive)
REMARK    1  A    between atoms: O_1  and  C_2
REMARK    2  A    between atoms: O_1  and  C_18
REMARK    3  A    between atoms: C_2  and  C_4
REMARK    4  A    between atoms: C_2  and  C_17
REMARK    5  A    between atoms: C_4  and  O_6
REMARK    6  A    between atoms: C_4  and  C_7
REMARK    7  A    between atoms: C_9  and  O_10
REMARK    8  A    between atoms: O_10  and  C_11
REMARK    9  A    between atoms: C_12  and  O_15
REMARK   10  A    between atoms: O_15  and  C_16
REMARK   11  A    between atoms: C_19  and  O_20
REMARK   12  A    between atoms: O_20  and  C_21
REMARK   13  A    between atoms: C_23  and  C_26
REMARK   14  A    between atoms: C_27  and  C_28
REMARK                            x       y       z     vdW  Elec       q    Type
REMARK                         _______ _______ _______ _____ _____    ______ ____
ROOT
ATOM      1  C   LIG A   1      -9.149   4.196 132.159  0.00  0.00    +0.203 C 
ATOM      2  C   LIG A   1      -9.244   3.369 133.441  0.00  0.00    +0.055 C 
ENDROOT
BRANCH   1   3
ATOM      3  O   LIG A   1      -7.922   3.893 131.476  0.00  0.00    -0.482 OA
BRANCH   3   4
ATOM      4  C   LIG A   1      -7.965   3.381 130.196  0.00  0.00    +0.163 A 
ATOM      5  C   LIG A   1      -7.359   4.180 129.205  0.00  0.00    +0.162 A 
ATOM      6  C   LIG A   1      -7.385   3.788 127.858  0.00  0.00    +0.057 A 
ATOM      7  C   LIG A   1      -8.027   2.603 127.473  0.00  0.00    -0.022 A 
ATOM      8  C   LIG A   1      -8.618   1.805 128.456  0.00  0.00    +0.012 A 
ATOM      9  C   LIG A   1      -8.586   2.189 129.805  0.00  0.00    +0.050 A 
BRANCH   7  10
ATOM     10  C   LIG A   1      -8.077   2.209 126.063  0.00  0.00    +0.003 C 
ATOM     11  C   LIG A   1      -8.226   0.920 125.683  0.00  0.00    -0.030 C 
ATOM     12  C   LIG A   1      -8.294   0.471 124.260  0.00  0.00    +0.035 C 
ENDBRANCH   7  10
BRANCH   5  13
ATOM     13  O   LIG A   1      -6.699   5.295 129.663  0.00  0.00    -0.491 OA
ATOM     14  C   LIG A   1      -5.280   5.243 129.640  0.00  0.00    +0.277 C 
ENDBRANCH   5  13
ENDBRANCH   3   4
ENDBRANCH   1   3
BRANCH   1  15
ATOM     15  C   LIG A   1      -9.204   5.730 132.432  0.00  0.00    +0.185 C 
BRANCH  15  16
ATOM     16  C   LIG A   1     -10.163   6.438 131.497  0.00  0.00    -0.012 A 
ATOM     17  C   LIG A   1      -9.737   7.039 130.303  0.00  0.00    +0.055 A 
ATOM     18  C   LIG A   1     -10.657   7.689 129.465  0.00  0.00    +0.162 A 
ATOM     19  C   LIG A   1     -12.014   7.772 129.817  0.00  0.00    +0.162 A 
ATOM     20  C   LIG A   1     -12.437   7.151 130.995  0.00  0.00    +0.050 A 
ATOM     21  C   LIG A   1     -11.528   6.484 131.813  0.00  0.00    +0.010 A 
BRANCH  18  22
ATOM     22  O   LIG A   1     -10.197   8.072 128.230  0.00  0.00    -0.491 OA
ATOM     23  C   LIG A   1     -10.299   7.054 127.238  0.00  0.00    +0.277 C 
ENDBRANCH  18  22
BRANCH  19  24
ATOM     24  O   LIG A   1     -12.874   8.398 128.949  0.00  0.00    -0.491 OA
ATOM     25  C   LIG A   1     -13.675   7.532 128.145  0.00  0.00    +0.277 C 
ENDBRANCH  19  24
ENDBRANCH  15  16
BRANCH  15  26
ATOM     26  O   LIG A   1      -7.902   6.290 132.195  0.00  0.00    -0.384 OA
ATOM     27  H   LIG A   1      -7.515   5.758 131.475  0.00  0.00    +0.210 HD
ENDBRANCH  15  26
ENDBRANCH   1  15
TORSDOF 9
ENDMDL
MODEL 9
REMARK VINA RESULT:      -7.0      2.616      7.444
REMARK  Name = NuBBE_2219
REMARK  14 active torsions:
REMARK  status: ('A' for Active; 'I' for Inactive)
REMARK    1  A    between atoms: O_1  and  C_2
REMARK    2  A    between atoms: O_1  and  C_18
REMARK    3  A    between atoms: C_2  and  C_4
REMARK    4  A    between atoms: C_2  and  C_17
REMARK    5  A    between atoms: C_4  and  O_6
REMARK    6  A    between atoms: C_4  and  C_7
REMARK    7  A    between atoms: C_9  and  O_10
REMARK    8  A    between atoms: O_10  and  C_11
REMARK    9  A    between atoms: C_12  and  O_15
REMARK   10  A    between atoms: O_15  and  C_16
REMARK   11  A    between atoms: C_19  and  O_20
REMARK   12  A    between atoms: O_20  and  C_21
REMARK   13  A    between atoms: C_23  and  C_26
REMARK   14  A    between atoms: C_27  and  C_28
REMARK                            x       y       z     vdW  Elec       q    Type
REMARK                         _______ _______ _______ _____ _____    ______ ____
ROOT
ATOM      1  C   LIG A   1      -6.045   2.235 126.617  0.00  0.00    +0.203 C 
ATOM      2  C   LIG A   1      -5.326   2.954 127.757  0.00  0.00    +0.055 C 
ENDROOT
BRANCH   1   3
ATOM      3  O   LIG A   1      -6.929   3.149 125.948  0.00  0.00    -0.482 OA
BRANCH   3   4
ATOM      4  C   LIG A   1      -6.745   3.414 124.607  0.00  0.00    +0.163 A 
ATOM      5  C   LIG A   1      -7.812   3.041 123.765  0.00  0.00    +0.162 A 
ATOM      6  C   LIG A   1      -7.719   3.214 122.376  0.00  0.00    +0.057 A 
ATOM      7  C   LIG A   1      -6.557   3.747 121.801  0.00  0.00    -0.022 A 
ATOM      8  C   LIG A   1      -5.504   4.129 122.635  0.00  0.00    +0.012 A 
ATOM      9  C   LIG A   1      -5.597   3.965 124.026  0.00  0.00    +0.050 A 
BRANCH   7  10
ATOM     10  C   LIG A   1      -6.450   3.903 120.348  0.00  0.00    +0.003 C 
ATOM     11  C   LIG A   1      -7.507   4.261 119.585  0.00  0.00    -0.030 C 
ATOM     12  C   LIG A   1      -7.445   4.443 118.103  0.00  0.00    +0.035 C 
ENDBRANCH   7  10
BRANCH   5  13
ATOM     13  O   LIG A   1      -8.939   2.580 124.402  0.00  0.00    -0.491 OA
ATOM     14  C   LIG A   1      -9.790   1.732 123.645  0.00  0.00    +0.277 C 
ENDBRANCH   5  13
ENDBRANCH   3   4
ENDBRANCH   1   3
BRANCH   1  15
ATOM     15  C   LIG A   1      -6.872   1.009 127.110  0.00  0.00    +0.185 C 
BRANCH  15  16
ATOM     16  C   LIG A   1      -6.600  -0.230 126.281  0.00  0.00    -0.012 A 
ATOM     17  C   LIG A   1      -7.142  -0.405 124.999  0.00  0.00    +0.055 A 
ATOM     18  C   LIG A   1      -6.870  -1.569 124.263  0.00  0.00    +0.162 A 
ATOM     19  C   LIG A   1      -6.070  -2.589 124.805  0.00  0.00    +0.162 A 
ATOM     20  C   LIG A   1      -5.513  -2.398 126.072  0.00  0.00    +0.050 A 
ATOM     21  C   LIG A   1      -5.763  -1.232 126.790  0.00  0.00    +0.010 A 
BRANCH  18  22
ATOM     22  O   LIG A   1      -7.272  -1.574 122.951  0.00  0.00    -0.491 OA
ATOM     23  C   LIG A   1      -8.678  -1.733 122.783  0.00  0.00    +0.277 C 
ENDBRANCH  18  22
BRANCH  19  24
ATOM     24  O   LIG A   1      -5.816  -3.695 124.033  0.00  0.00    -0.491 OA
ATOM     25  C   LIG A   1      -4.449  -3.891 123.671  0.00  0.00    +0.277 C 
ENDBRANCH  19  24
ENDBRANCH  15  16
BRANCH  15  26
ATOM     26  O   LIG A   1      -8.271   1.306 126.969  0.00  0.00    -0.384 OA
ATOM     27  H   LIG A   1      -8.474   1.166 126.025  0.00  0.00    +0.210 HD
ENDBRANCH  15  26
ENDBRANCH   1  15
TORSDOF 9
ENDMDL
