MODEL 1
REMARK VINA RESULT:      -8.6      0.000      0.000
REMARK  Name = NuBBE_581
REMARK  7 active torsions:
REMARK  status: ('A' for Active; 'I' for Inactive)
REMARK    1  A    between atoms: O_1  and  C_2
REMARK    2  A    between atoms: C_5  and  C_21
REMARK    3  A    between atoms: C_8  and  C_10
REMARK    4  A    between atoms: C_11  and  C_12
REMARK    5  A    between atoms: C_18  and  O_20
REMARK    6  A    between atoms: C_21  and  C_22
REMARK    7  A    between atoms: C_23  and  C_24
REMARK                            x       y       z     vdW  Elec       q    Type
REMARK                         _______ _______ _______ _____ _____    ______ ____
ROOT
ATOM      1  C   LIG A   1      -7.563   3.433 127.096  0.00  0.00    +0.148 C 
ATOM      2  C   LIG A   1      -6.466   2.378 127.152  0.00  0.00    +0.066 C 
ATOM      3  C   LIG A   1      -6.653   1.369 126.014  0.00  0.00    +0.125 C 
ATOM      4  O   LIG A   1      -6.638   2.070 124.761  0.00  0.00    -0.366 OA
ATOM      5  C   LIG A   1      -7.720   2.994 124.631  0.00  0.00    +0.172 C 
ATOM      6  C   LIG A   1      -7.626   4.091 125.711  0.00  0.00    +0.175 C 
ENDROOT
BRANCH   1   7
ATOM      7  O   LIG A   1      -7.322   4.426 128.095  0.00  0.00    -0.389 OA
ATOM      8  H   LIG A   1      -8.164   4.521 128.586  0.00  0.00    +0.210 HD
ENDBRANCH   1   7
BRANCH   5   9
ATOM      9  C   LIG A   1      -7.616   3.577 123.254  0.00  0.00    +0.007 C 
ATOM     10  C   LIG A   1      -6.552   3.444 122.446  0.00  0.00    +0.006 C 
BRANCH  10  11
ATOM     11  C   LIG A   1      -6.493   4.031 121.100  0.00  0.00    -0.025 A 
ATOM     12  C   LIG A   1      -7.555   3.900 120.195  0.00  0.00    +0.008 A 
ATOM     13  C   LIG A   1      -7.491   4.482 118.930  0.00  0.00    +0.001 A 
ATOM     14  C   LIG A   1      -6.353   5.186 118.546  0.00  0.00    +0.000 A 
ATOM     15  C   LIG A   1      -5.275   5.295 119.422  0.00  0.00    +0.001 A 
ATOM     16  C   LIG A   1      -5.339   4.714 120.692  0.00  0.00    +0.008 A 
ENDBRANCH  10  11
ENDBRANCH   5   9
BRANCH   6  17
ATOM     17  O   LIG A   1      -8.739   4.998 125.704  0.00  0.00    -0.386 OA
ATOM     18  H   LIG A   1      -8.391   5.907 125.730  0.00  0.00    +0.210 HD
ENDBRANCH   6  17
BRANCH   3  19
ATOM     19  C   LIG A   1      -5.528   0.317 126.012  0.00  0.00    +0.058 C 
BRANCH  19  20
ATOM     20  C   LIG A   1      -5.955  -0.971 125.353  0.00  0.00    -0.025 C 
ATOM     21  C   LIG A   1      -6.268  -1.088 124.053  0.00  0.00    +0.013 C 
BRANCH  21  22
ATOM     22  C   LIG A   1      -6.653  -2.387 123.382  0.00  0.00    +0.203 C 
ATOM     23  O   LIG A   1      -7.870  -2.167 122.639  0.00  0.00    -0.454 OA
ATOM     24  C   LIG A   1      -9.077  -2.211 123.255  0.00  0.00    +0.332 C 
ATOM     25  C   LIG A   1      -9.127  -2.849 124.587  0.00  0.00    +0.087 C 
ATOM     26  C   LIG A   1      -8.080  -3.512 125.091  0.00  0.00    -0.016 C 
ATOM     27  C   LIG A   1      -6.785  -3.570 124.348  0.00  0.00    +0.076 C 
ATOM     28  O   LIG A   1     -10.094  -1.775 122.742  0.00  0.00    -0.246 OA
ENDBRANCH  21  22
ENDBRANCH  19  20
ENDBRANCH   3  19
TORSDOF 7
ENDMDL
MODEL 2
REMARK VINA RESULT:      -8.3      3.593      7.002
REMARK  Name = NuBBE_581
REMARK  7 active torsions:
REMARK  status: ('A' for Active; 'I' for Inactive)
REMARK    1  A    between atoms: O_1  and  C_2
REMARK    2  A    between atoms: C_5  and  C_21
REMARK    3  A    between atoms: C_8  and  C_10
REMARK    4  A    between atoms: C_11  and  C_12
REMARK    5  A    between atoms: C_18  and  O_20
REMARK    6  A    between atoms: C_21  and  C_22
REMARK    7  A    between atoms: C_23  and  C_24
REMARK                            x       y       z     vdW  Elec       q    Type
REMARK                         _______ _______ _______ _____ _____    ______ ____
ROOT
ATOM      1  C   LIG A   1      -7.467   2.654 127.061  0.00  0.00    +0.148 C 
ATOM      2  C   LIG A   1      -6.052   3.060 127.453  0.00  0.00    +0.066 C 
ATOM      3  C   LIG A   1      -5.051   2.522 126.427  0.00  0.00    +0.125 C 
ATOM      4  O   LIG A   1      -5.395   3.026 125.127  0.00  0.00    -0.366 OA
ATOM      5  C   LIG A   1      -6.677   2.575 124.681  0.00  0.00    +0.172 C 
ATOM      6  C   LIG A   1      -7.786   3.085 125.623  0.00  0.00    +0.175 C 
ENDROOT
BRANCH   1   7
ATOM      7  O   LIG A   1      -8.402   3.247 127.965  0.00  0.00    -0.389 OA
ATOM      8  H   LIG A   1      -9.066   3.697 127.405  0.00  0.00    +0.210 HD
ENDBRANCH   1   7
BRANCH   5   9
ATOM      9  C   LIG A   1      -6.854   3.111 123.293  0.00  0.00    +0.007 C 
ATOM     10  C   LIG A   1      -5.876   3.661 122.554  0.00  0.00    +0.006 C 
BRANCH  10  11
ATOM     11  C   LIG A   1      -6.093   4.173 121.194  0.00  0.00    -0.025 A 
ATOM     12  C   LIG A   1      -5.164   5.016 120.570  0.00  0.00    +0.008 A 
ATOM     13  C   LIG A   1      -5.375   5.474 119.270  0.00  0.00    +0.001 A 
ATOM     14  C   LIG A   1      -6.532   5.112 118.586  0.00  0.00    +0.000 A 
ATOM     15  C   LIG A   1      -7.481   4.303 119.206  0.00  0.00    +0.001 A 
ATOM     16  C   LIG A   1      -7.268   3.840 120.508  0.00  0.00    +0.008 A 
ENDBRANCH  10  11
ENDBRANCH   5   9
BRANCH   6  17
ATOM     17  O   LIG A   1      -9.091   2.586 125.293  0.00  0.00    -0.386 OA
ATOM     18  H   LIG A   1      -9.688   3.346 125.178  0.00  0.00    +0.210 HD
ENDBRANCH   6  17
BRANCH   3  19
ATOM     19  C   LIG A   1      -3.614   2.959 126.768  0.00  0.00    +0.058 C 
BRANCH  19  20
ATOM     20  C   LIG A   1      -3.540   4.415 127.159  0.00  0.00    -0.025 C 
ATOM     21  C   LIG A   1      -2.522   4.964 127.840  0.00  0.00    +0.013 C 
BRANCH  21  22
ATOM     22  C   LIG A   1      -2.425   6.430 128.194  0.00  0.00    +0.203 C 
ATOM     23  O   LIG A   1      -1.515   6.567 129.305  0.00  0.00    -0.454 OA
ATOM     24  C   LIG A   1      -1.938   6.361 130.578  0.00  0.00    +0.332 C 
ATOM     25  C   LIG A   1      -3.397   6.369 130.809  0.00  0.00    +0.087 C 
ATOM     26  C   LIG A   1      -4.261   6.739 129.856  0.00  0.00    -0.016 C 
ATOM     27  C   LIG A   1      -3.779   7.090 128.485  0.00  0.00    +0.076 C 
ATOM     28  O   LIG A   1      -1.167   6.201 131.509  0.00  0.00    -0.246 OA
ENDBRANCH  21  22
ENDBRANCH  19  20
ENDBRANCH   3  19
TORSDOF 7
ENDMDL
MODEL 3
REMARK VINA RESULT:      -8.2      1.783      2.424
REMARK  Name = NuBBE_581
REMARK  7 active torsions:
REMARK  status: ('A' for Active; 'I' for Inactive)
REMARK    1  A    between atoms: O_1  and  C_2
REMARK    2  A    between atoms: C_5  and  C_21
REMARK    3  A    between atoms: C_8  and  C_10
REMARK    4  A    between atoms: C_11  and  C_12
REMARK    5  A    between atoms: C_18  and  O_20
REMARK    6  A    between atoms: C_21  and  C_22
REMARK    7  A    between atoms: C_23  and  C_24
REMARK                            x       y       z     vdW  Elec       q    Type
REMARK                         _______ _______ _______ _____ _____    ______ ____
ROOT
ATOM      1  C   LIG A   1      -4.363   3.862 128.490  0.00  0.00    +0.148 C 
ATOM      2  C   LIG A   1      -4.326   2.339 128.460  0.00  0.00    +0.066 C 
ATOM      3  C   LIG A   1      -5.486   1.806 127.614  0.00  0.00    +0.125 C 
ATOM      4  O   LIG A   1      -5.390   2.355 126.290  0.00  0.00    -0.366 OA
ATOM      5  C   LIG A   1      -5.528   3.778 126.270  0.00  0.00    +0.172 C 
ATOM      6  C   LIG A   1      -4.388   4.441 127.070  0.00  0.00    +0.175 C 
ENDROOT
BRANCH   1   7
ATOM      7  O   LIG A   1      -3.220   4.354 129.195  0.00  0.00    -0.389 OA
ATOM      8  H   LIG A   1      -2.909   5.132 128.690  0.00  0.00    +0.210 HD
ENDBRANCH   1   7
BRANCH   5   9
ATOM      9  C   LIG A   1      -5.490   4.186 124.829  0.00  0.00    +0.007 C 
ATOM     10  C   LIG A   1      -5.994   3.463 123.815  0.00  0.00    +0.006 C 
BRANCH  10  11
ATOM     11  C   LIG A   1      -5.937   3.903 122.414  0.00  0.00    -0.025 A 
ATOM     12  C   LIG A   1      -4.874   4.678 121.931  0.00  0.00    +0.008 A 
ATOM     13  C   LIG A   1      -4.825   5.068 120.593  0.00  0.00    +0.001 A 
ATOM     14  C   LIG A   1      -5.852   4.705 119.727  0.00  0.00    +0.000 A 
ATOM     15  C   LIG A   1      -6.933   3.965 120.201  0.00  0.00    +0.001 A 
ATOM     16  C   LIG A   1      -6.981   3.571 121.541  0.00  0.00    +0.008 A 
ENDBRANCH  10  11
ENDBRANCH   5   9
BRANCH   6  17
ATOM     17  O   LIG A   1      -4.520   5.867 127.177  0.00  0.00    -0.386 OA
ATOM     18  H   LIG A   1      -3.813   6.279 126.650  0.00  0.00    +0.210 HD
ENDBRANCH   6  17
BRANCH   3  19
ATOM     19  C   LIG A   1      -5.447   0.269 127.521  0.00  0.00    +0.058 C 
BRANCH  19  20
ATOM     20  C   LIG A   1      -5.423  -0.215 126.092  0.00  0.00    -0.025 C 
ATOM     21  C   LIG A   1      -6.504  -0.639 125.419  0.00  0.00    +0.013 C 
BRANCH  21  22
ATOM     22  C   LIG A   1      -6.489  -1.082 123.974  0.00  0.00    +0.203 C 
ATOM     23  O   LIG A   1      -7.853  -1.295 123.553  0.00  0.00    -0.454 OA
ATOM     24  C   LIG A   1      -8.490  -2.460 123.829  0.00  0.00    +0.332 C 
ATOM     25  C   LIG A   1      -7.648  -3.609 124.221  0.00  0.00    +0.087 C 
ATOM     26  C   LIG A   1      -6.313  -3.565 124.138  0.00  0.00    -0.016 C 
ATOM     27  C   LIG A   1      -5.616  -2.315 123.711  0.00  0.00    +0.076 C 
ATOM     28  O   LIG A   1      -9.700  -2.586 123.738  0.00  0.00    -0.246 OA
ENDBRANCH  21  22
ENDBRANCH  19  20
ENDBRANCH   3  19
TORSDOF 7
ENDMDL
MODEL 4
REMARK VINA RESULT:      -8.1      3.056      6.416
REMARK  Name = NuBBE_581
REMARK  7 active torsions:
REMARK  status: ('A' for Active; 'I' for Inactive)
REMARK    1  A    between atoms: O_1  and  C_2
REMARK    2  A    between atoms: C_5  and  C_21
REMARK    3  A    between atoms: C_8  and  C_10
REMARK    4  A    between atoms: C_11  and  C_12
REMARK    5  A    between atoms: C_18  and  O_20
REMARK    6  A    between atoms: C_21  and  C_22
REMARK    7  A    between atoms: C_23  and  C_24
REMARK                            x       y       z     vdW  Elec       q    Type
REMARK                         _______ _______ _______ _____ _____    ______ ____
ROOT
ATOM      1  C   LIG A   1      -8.799   0.583 125.682  0.00  0.00    +0.148 C 
ATOM      2  C   LIG A   1      -8.652   1.518 126.876  0.00  0.00    +0.066 C 
ATOM      3  C   LIG A   1      -7.334   2.291 126.774  0.00  0.00    +0.125 C 
ATOM      4  O   LIG A   1      -7.312   3.019 125.537  0.00  0.00    -0.366 OA
ATOM      5  C   LIG A   1      -7.341   2.165 124.392  0.00  0.00    +0.172 C 
ATOM      6  C   LIG A   1      -8.649   1.348 124.360  0.00  0.00    +0.175 C 
ENDROOT
BRANCH   1   7
ATOM      7  O   LIG A   1     -10.077  -0.057 125.730  0.00  0.00    -0.389 OA
ATOM      8  H   LIG A   1     -10.349  -0.040 126.670  0.00  0.00    +0.210 HD
ENDBRANCH   1   7
BRANCH   5   9
ATOM      9  C   LIG A   1      -7.230   3.059 123.194  0.00  0.00    +0.007 C 
ATOM     10  C   LIG A   1      -6.430   2.829 122.139  0.00  0.00    +0.006 C 
BRANCH  10  11
ATOM     11  C   LIG A   1      -6.353   3.733 120.983  0.00  0.00    -0.025 A 
ATOM     12  C   LIG A   1      -5.263   4.592 120.795  0.00  0.00    +0.008 A 
ATOM     13  C   LIG A   1      -5.195   5.427 119.680  0.00  0.00    +0.001 A 
ATOM     14  C   LIG A   1      -6.231   5.428 118.750  0.00  0.00    +0.000 A 
ATOM     15  C   LIG A   1      -7.338   4.605 118.942  0.00  0.00    +0.001 A 
ATOM     16  C   LIG A   1      -7.405   3.765 120.058  0.00  0.00    +0.008 A 
ENDBRANCH  10  11
ENDBRANCH   5   9
BRANCH   6  17
ATOM     17  O   LIG A   1      -8.701   0.393 123.290  0.00  0.00    -0.386 OA
ATOM     18  H   LIG A   1      -9.629   0.300 123.009  0.00  0.00    +0.210 HD
ENDBRANCH   6  17
BRANCH   3  19
ATOM     19  C   LIG A   1      -7.179   3.283 127.941  0.00  0.00    +0.058 C 
BRANCH  19  20
ATOM     20  C   LIG A   1      -8.271   3.126 128.971  0.00  0.00    -0.025 C 
ATOM     21  C   LIG A   1      -8.800   4.140 129.674  0.00  0.00    +0.013 C 
BRANCH  21  22
ATOM     22  C   LIG A   1      -9.924   3.991 130.673  0.00  0.00    +0.203 C 
ATOM     23  O   LIG A   1     -11.164   4.304 130.007  0.00  0.00    -0.454 OA
ATOM     24  C   LIG A   1     -11.565   5.591 129.856  0.00  0.00    +0.332 C 
ATOM     25  C   LIG A   1     -10.904   6.603 130.706  0.00  0.00    +0.087 C 
ATOM     26  C   LIG A   1     -10.080   6.258 131.702  0.00  0.00    -0.016 C 
ATOM     27  C   LIG A   1      -9.738   4.825 131.947  0.00  0.00    +0.076 C 
ATOM     28  O   LIG A   1     -12.448   5.919 129.081  0.00  0.00    -0.246 OA
ENDBRANCH  21  22
ENDBRANCH  19  20
ENDBRANCH   3  19
TORSDOF 7
ENDMDL
MODEL 5
REMARK VINA RESULT:      -8.0      1.921      2.914
REMARK  Name = NuBBE_581
REMARK  7 active torsions:
REMARK  status: ('A' for Active; 'I' for Inactive)
REMARK    1  A    between atoms: O_1  and  C_2
REMARK    2  A    between atoms: C_5  and  C_21
REMARK    3  A    between atoms: C_8  and  C_10
REMARK    4  A    between atoms: C_11  and  C_12
REMARK    5  A    between atoms: C_18  and  O_20
REMARK    6  A    between atoms: C_21  and  C_22
REMARK    7  A    between atoms: C_23  and  C_24
REMARK                            x       y       z     vdW  Elec       q    Type
REMARK                         _______ _______ _______ _____ _____    ______ ____
ROOT
ATOM      1  C   LIG A   1      -4.688   2.420 127.774  0.00  0.00    +0.148 C 
ATOM      2  C   LIG A   1      -5.618   1.226 127.949  0.00  0.00    +0.066 C 
ATOM      3  C   LIG A   1      -7.052   1.625 127.591  0.00  0.00    +0.125 C 
ATOM      4  O   LIG A   1      -7.079   2.112 126.241  0.00  0.00    -0.366 OA
ATOM      5  C   LIG A   1      -6.300   3.298 126.065  0.00  0.00    +0.172 C 
ATOM      6  C   LIG A   1      -4.814   3.017 126.367  0.00  0.00    +0.175 C 
ENDROOT
BRANCH   1   7
ATOM      7  O   LIG A   1      -3.338   2.013 128.010  0.00  0.00    -0.389 OA
ATOM      8  H   LIG A   1      -3.234   1.981 128.983  0.00  0.00    +0.210 HD
ENDBRANCH   1   7
BRANCH   5   9
ATOM      9  C   LIG A   1      -6.495   3.725 124.642  0.00  0.00    +0.007 C 
ATOM     10  C   LIG A   1      -6.831   2.902 123.635  0.00  0.00    +0.006 C 
BRANCH  10  11
ATOM     11  C   LIG A   1      -7.014   3.364 122.252  0.00  0.00    -0.025 A 
ATOM     12  C   LIG A   1      -5.929   3.773 121.466  0.00  0.00    +0.008 A 
ATOM     13  C   LIG A   1      -6.118   4.187 120.148  0.00  0.00    +0.001 A 
ATOM     14  C   LIG A   1      -7.400   4.219 119.607  0.00  0.00    +0.000 A 
ATOM     15  C   LIG A   1      -8.493   3.849 120.388  0.00  0.00    +0.001 A 
ATOM     16  C   LIG A   1      -8.304   3.431 121.709  0.00  0.00    +0.008 A 
ENDBRANCH  10  11
ENDBRANCH   5   9
BRANCH   6  17
ATOM     17  O   LIG A   1      -3.987   4.189 126.308  0.00  0.00    -0.386 OA
ATOM     18  H   LIG A   1      -4.488   4.894 125.863  0.00  0.00    +0.210 HD
ENDBRANCH   6  17
BRANCH   3  19
ATOM     19  C   LIG A   1      -8.010   0.424 127.708  0.00  0.00    +0.058 C 
BRANCH  19  20
ATOM     20  C   LIG A   1      -8.344  -0.170 126.362  0.00  0.00    -0.025 C 
ATOM     21  C   LIG A   1      -8.227  -1.474 126.061  0.00  0.00    +0.013 C 
BRANCH  21  22
ATOM     22  C   LIG A   1      -8.603  -2.078 124.728  0.00  0.00    +0.203 C 
ATOM     23  O   LIG A   1      -7.765  -3.230 124.502  0.00  0.00    -0.454 OA
ATOM     24  C   LIG A   1      -6.511  -3.089 124.003  0.00  0.00    +0.332 C 
ATOM     25  C   LIG A   1      -6.187  -1.798 123.361  0.00  0.00    +0.087 C 
ATOM     26  C   LIG A   1      -7.125  -0.876 123.118  0.00  0.00    -0.016 C 
ATOM     27  C   LIG A   1      -8.537  -1.090 123.557  0.00  0.00    +0.076 C 
ATOM     28  O   LIG A   1      -5.682  -3.982 124.046  0.00  0.00    -0.246 OA
ENDBRANCH  21  22
ENDBRANCH  19  20
ENDBRANCH   3  19
TORSDOF 7
ENDMDL
MODEL 6
REMARK VINA RESULT:      -8.0      1.460      2.088
REMARK  Name = NuBBE_581
REMARK  7 active torsions:
REMARK  status: ('A' for Active; 'I' for Inactive)
REMARK    1  A    between atoms: O_1  and  C_2
REMARK    2  A    between atoms: C_5  and  C_21
REMARK    3  A    between atoms: C_8  and  C_10
REMARK    4  A    between atoms: C_11  and  C_12
REMARK    5  A    between atoms: C_18  and  O_20
REMARK    6  A    between atoms: C_21  and  C_22
REMARK    7  A    between atoms: C_23  and  C_24
REMARK                            x       y       z     vdW  Elec       q    Type
REMARK                         _______ _______ _______ _____ _____    ______ ____
ROOT
ATOM      1  C   LIG A   1      -7.381   3.700 127.274  0.00  0.00    +0.148 C 
ATOM      2  C   LIG A   1      -6.254   2.692 127.460  0.00  0.00    +0.066 C 
ATOM      3  C   LIG A   1      -6.374   1.576 126.419  0.00  0.00    +0.125 C 
ATOM      4  O   LIG A   1      -6.343   2.156 125.106  0.00  0.00    -0.366 OA
ATOM      5  C   LIG A   1      -7.449   3.026 124.859  0.00  0.00    +0.172 C 
ATOM      6  C   LIG A   1      -7.422   4.222 125.832  0.00  0.00    +0.175 C 
ENDROOT
BRANCH   1   7
ATOM      7  O   LIG A   1      -7.202   4.790 128.181  0.00  0.00    -0.389 OA
ATOM      8  H   LIG A   1      -6.241   4.837 128.358  0.00  0.00    +0.210 HD
ENDBRANCH   1   7
BRANCH   5   9
ATOM      9  C   LIG A   1      -7.321   3.480 123.436  0.00  0.00    +0.007 C 
ATOM     10  C   LIG A   1      -8.196   3.191 122.459  0.00  0.00    +0.006 C 
BRANCH  10  11
ATOM     11  C   LIG A   1      -8.033   3.659 121.076  0.00  0.00    -0.025 A 
ATOM     12  C   LIG A   1      -9.132   3.819 120.221  0.00  0.00    +0.008 A 
ATOM     13  C   LIG A   1      -8.961   4.286 118.918  0.00  0.00    +0.001 A 
ATOM     14  C   LIG A   1      -7.684   4.577 118.447  0.00  0.00    +0.000 A 
ATOM     15  C   LIG A   1      -6.578   4.388 119.274  0.00  0.00    +0.001 A 
ATOM     16  C   LIG A   1      -6.749   3.924 120.581  0.00  0.00    +0.008 A 
ENDBRANCH  10  11
ENDBRANCH   5   9
BRANCH   6  17
ATOM     17  O   LIG A   1      -8.562   5.086 125.708  0.00  0.00    -0.386 OA
ATOM     18  H   LIG A   1      -9.079   4.801 124.935  0.00  0.00    +0.210 HD
ENDBRANCH   6  17
BRANCH   3  19
ATOM     19  C   LIG A   1      -5.217   0.567 126.548  0.00  0.00    +0.058 C 
BRANCH  19  20
ATOM     20  C   LIG A   1      -5.554  -0.767 125.928  0.00  0.00    -0.025 C 
ATOM     21  C   LIG A   1      -6.800  -1.255 125.813  0.00  0.00    +0.013 C 
BRANCH  21  22
ATOM     22  C   LIG A   1      -7.143  -2.570 125.153  0.00  0.00    +0.203 C 
ATOM     23  O   LIG A   1      -5.913  -3.206 124.749  0.00  0.00    -0.454 OA
ATOM     24  C   LIG A   1      -5.304  -2.863 123.586  0.00  0.00    +0.332 C 
ATOM     25  C   LIG A   1      -6.115  -2.122 122.598  0.00  0.00    +0.087 C 
ATOM     26  C   LIG A   1      -7.432  -1.948 122.755  0.00  0.00    -0.016 C 
ATOM     27  C   LIG A   1      -8.126  -2.441 123.983  0.00  0.00    +0.076 C 
ATOM     28  O   LIG A   1      -4.150  -3.166 123.333  0.00  0.00    -0.246 OA
ENDBRANCH  21  22
ENDBRANCH  19  20
ENDBRANCH   3  19
TORSDOF 7
ENDMDL
MODEL 7
REMARK VINA RESULT:      -7.9      5.320      7.300
REMARK  Name = NuBBE_581
REMARK  7 active torsions:
REMARK  status: ('A' for Active; 'I' for Inactive)
REMARK    1  A    between atoms: O_1  and  C_2
REMARK    2  A    between atoms: C_5  and  C_21
REMARK    3  A    between atoms: C_8  and  C_10
REMARK    4  A    between atoms: C_11  and  C_12
REMARK    5  A    between atoms: C_18  and  O_20
REMARK    6  A    between atoms: C_21  and  C_22
REMARK    7  A    between atoms: C_23  and  C_24
REMARK                            x       y       z     vdW  Elec       q    Type
REMARK                         _______ _______ _______ _____ _____    ______ ____
ROOT
ATOM      1  C   LIG A   1      -8.467   3.009 131.959  0.00  0.00    +0.148 C 
ATOM      2  C   LIG A   1      -7.847   2.395 130.710  0.00  0.00    +0.066 C 
ATOM      3  C   LIG A   1      -8.907   2.261 129.613  0.00  0.00    +0.125 C 
ATOM      4  O   LIG A   1      -9.461   3.557 129.336  0.00  0.00    -0.366 OA
ATOM      5  C   LIG A   1     -10.144   4.117 130.459  0.00  0.00    +0.172 C 
ATOM      6  C   LIG A   1      -9.168   4.334 131.633  0.00  0.00    +0.175 C 
ENDROOT
BRANCH   1   7
ATOM      7  O   LIG A   1      -7.450   3.225 132.940  0.00  0.00    -0.389 OA
ATOM      8  H   LIG A   1      -7.476   4.181 133.146  0.00  0.00    +0.210 HD
ENDBRANCH   1   7
BRANCH   5   9
ATOM      9  C   LIG A   1     -10.730   5.416 129.993  0.00  0.00    +0.007 C 
ATOM     10  C   LIG A   1     -12.044   5.653 129.846  0.00  0.00    +0.006 C 
BRANCH  10  11
ATOM     11  C   LIG A   1     -12.576   6.944 129.387  0.00  0.00    -0.025 A 
ATOM     12  C   LIG A   1     -12.329   8.131 130.090  0.00  0.00    +0.008 A 
ATOM     13  C   LIG A   1     -12.823   9.350 129.628  0.00  0.00    +0.001 A 
ATOM     14  C   LIG A   1     -13.590   9.393 128.468  0.00  0.00    +0.000 A 
ATOM     15  C   LIG A   1     -13.875   8.217 127.778  0.00  0.00    +0.001 A 
ATOM     16  C   LIG A   1     -13.377   6.994 128.238  0.00  0.00    +0.008 A 
ENDBRANCH  10  11
ENDBRANCH   5   9
BRANCH   6  17
ATOM     17  O   LIG A   1      -9.807   4.801 132.830  0.00  0.00    -0.386 OA
ATOM     18  H   LIG A   1     -10.751   4.938 132.639  0.00  0.00    +0.210 HD
ENDBRANCH   6  17
BRANCH   3  19
ATOM     19  C   LIG A   1      -8.300   1.690 128.318  0.00  0.00    +0.058 C 
BRANCH  19  20
ATOM     20  C   LIG A   1      -7.788   0.283 128.502  0.00  0.00    -0.025 C 
ATOM     21  C   LIG A   1      -7.711  -0.629 127.518  0.00  0.00    +0.013 C 
BRANCH  21  22
ATOM     22  C   LIG A   1      -7.157  -2.024 127.691  0.00  0.00    +0.203 C 
ATOM     23  O   LIG A   1      -6.544  -2.423 126.447  0.00  0.00    -0.454 OA
ATOM     24  C   LIG A   1      -7.294  -2.923 125.433  0.00  0.00    +0.332 C 
ATOM     25  C   LIG A   1      -8.654  -3.389 125.771  0.00  0.00    +0.087 C 
ATOM     26  C   LIG A   1      -9.072  -3.484 127.039  0.00  0.00    -0.016 C 
ATOM     27  C   LIG A   1      -8.193  -3.050 128.167  0.00  0.00    +0.076 C 
ATOM     28  O   LIG A   1      -6.875  -3.020 124.291  0.00  0.00    -0.246 OA
ENDBRANCH  21  22
ENDBRANCH  19  20
ENDBRANCH   3  19
TORSDOF 7
ENDMDL
MODEL 8
REMARK VINA RESULT:      -7.8      8.385      9.512
REMARK  Name = NuBBE_581
REMARK  7 active torsions:
REMARK  status: ('A' for Active; 'I' for Inactive)
REMARK    1  A    between atoms: O_1  and  C_2
REMARK    2  A    between atoms: C_5  and  C_21
REMARK    3  A    between atoms: C_8  and  C_10
REMARK    4  A    between atoms: C_11  and  C_12
REMARK    5  A    between atoms: C_18  and  O_20
REMARK    6  A    between atoms: C_21  and  C_22
REMARK    7  A    between atoms: C_23  and  C_24
REMARK                            x       y       z     vdW  Elec       q    Type
REMARK                         _______ _______ _______ _____ _____    ______ ____
ROOT
ATOM      1  C   LIG A   1      -3.004   6.652 130.034  0.00  0.00    +0.148 C 
ATOM      2  C   LIG A   1      -2.930   5.211 130.523  0.00  0.00    +0.066 C 
ATOM      3  C   LIG A   1      -3.756   5.051 131.803  0.00  0.00    +0.125 C 
ATOM      4  O   LIG A   1      -5.112   5.440 131.536  0.00  0.00    -0.366 OA
ATOM      5  C   LIG A   1      -5.231   6.819 131.177  0.00  0.00    +0.172 C 
ATOM      6  C   LIG A   1      -4.461   7.105 129.872  0.00  0.00    +0.175 C 
ENDROOT
BRANCH   1   7
ATOM      7  O   LIG A   1      -2.317   6.769 128.786  0.00  0.00    -0.389 OA
ATOM      8  H   LIG A   1      -1.433   7.130 129.000  0.00  0.00    +0.210 HD
ENDBRANCH   1   7
BRANCH   5   9
ATOM      9  C   LIG A   1      -6.696   7.089 131.015  0.00  0.00    +0.007 C 
ATOM     10  C   LIG A   1      -7.674   6.229 131.345  0.00  0.00    +0.006 C 
BRANCH  10  11
ATOM     11  C   LIG A   1      -9.100   6.536 131.170  0.00  0.00    -0.025 A 
ATOM     12  C   LIG A   1      -9.569   7.229 130.046  0.00  0.00    +0.008 A 
ATOM     13  C   LIG A   1     -10.929   7.491 129.885  0.00  0.00    +0.001 A 
ATOM     14  C   LIG A   1     -11.835   7.083 130.861  0.00  0.00    +0.000 A 
ATOM     15  C   LIG A   1     -11.379   6.425 132.001  0.00  0.00    +0.001 A 
ATOM     16  C   LIG A   1     -10.016   6.158 132.161  0.00  0.00    +0.008 A 
ENDBRANCH  10  11
ENDBRANCH   5   9
BRANCH   6  17
ATOM     17  O   LIG A   1      -4.453   8.493 129.505  0.00  0.00    -0.386 OA
ATOM     18  H   LIG A   1      -5.291   8.693 129.051  0.00  0.00    +0.210 HD
ENDBRANCH   6  17
BRANCH   3  19
ATOM     19  C   LIG A   1      -3.743   3.592 132.295  0.00  0.00    +0.058 C 
BRANCH  19  20
ATOM     20  C   LIG A   1      -4.965   3.256 133.114  0.00  0.00    -0.025 C 
ATOM     21  C   LIG A   1      -5.880   2.337 132.766  0.00  0.00    +0.013 C 
BRANCH  21  22
ATOM     22  C   LIG A   1      -7.081   1.969 133.606  0.00  0.00    +0.203 C 
ATOM     23  O   LIG A   1      -7.463   0.617 133.278  0.00  0.00    -0.454 OA
ATOM     24  C   LIG A   1      -8.233   0.358 132.191  0.00  0.00    +0.332 C 
ATOM     25  C   LIG A   1      -8.961   1.498 131.598  0.00  0.00    +0.087 C 
ATOM     26  C   LIG A   1      -9.008   2.694 132.198  0.00  0.00    -0.016 C 
ATOM     27  C   LIG A   1      -8.259   2.941 133.467  0.00  0.00    +0.076 C 
ATOM     28  O   LIG A   1      -8.357  -0.762 131.725  0.00  0.00    -0.246 OA
ENDBRANCH  21  22
ENDBRANCH  19  20
ENDBRANCH   3  19
TORSDOF 7
ENDMDL
MODEL 9
REMARK VINA RESULT:      -7.8      7.237      9.085
REMARK  Name = NuBBE_581
REMARK  7 active torsions:
REMARK  status: ('A' for Active; 'I' for Inactive)
REMARK    1  A    between atoms: O_1  and  C_2
REMARK    2  A    between atoms: C_5  and  C_21
REMARK    3  A    between atoms: C_8  and  C_10
REMARK    4  A    between atoms: C_11  and  C_12
REMARK    5  A    between atoms: C_18  and  O_20
REMARK    6  A    between atoms: C_21  and  C_22
REMARK    7  A    between atoms: C_23  and  C_24
REMARK                            x       y       z     vdW  Elec       q    Type
REMARK                         _______ _______ _______ _____ _____    ______ ____
ROOT
ATOM      1  C   LIG A   1      -4.418   5.477 131.607  0.00  0.00    +0.148 C 
ATOM      2  C   LIG A   1      -4.845   4.275 132.440  0.00  0.00    +0.066 C 
ATOM      3  C   LIG A   1      -5.989   4.670 133.379  0.00  0.00    +0.125 C 
ATOM      4  O   LIG A   1      -7.082   5.177 132.597  0.00  0.00    -0.366 OA
ATOM      5  C   LIG A   1      -6.746   6.369 131.885  0.00  0.00    +0.172 C 
ATOM      6  C   LIG A   1      -5.616   6.093 130.873  0.00  0.00    +0.175 C 
ENDROOT
BRANCH   1   7
ATOM      7  O   LIG A   1      -3.423   5.075 130.663  0.00  0.00    -0.389 OA
ATOM      8  H   LIG A   1      -3.611   4.137 130.459  0.00  0.00    +0.210 HD
ENDBRANCH   1   7
BRANCH   5   9
ATOM      9  C   LIG A   1      -7.998   6.816 131.193  0.00  0.00    +0.007 C 
ATOM     10  C   LIG A   1      -9.240   6.437 131.538  0.00  0.00    +0.006 C 
BRANCH  10  11
ATOM     11  C   LIG A   1     -10.442   6.902 130.832  0.00  0.00    -0.025 A 
ATOM     12  C   LIG A   1     -11.726   6.694 131.356  0.00  0.00    +0.008 A 
ATOM     13  C   LIG A   1     -12.855   7.162 130.684  0.00  0.00    +0.001 A 
ATOM     14  C   LIG A   1     -12.714   7.824 129.467  0.00  0.00    +0.000 A 
ATOM     15  C   LIG A   1     -11.447   8.005 128.917  0.00  0.00    +0.001 A 
ATOM     16  C   LIG A   1     -10.314   7.540 129.592  0.00  0.00    +0.008 A 
ENDBRANCH  10  11
ENDBRANCH   5   9
BRANCH   6  17
ATOM     17  O   LIG A   1      -5.157   7.271 130.192  0.00  0.00    -0.386 OA
ATOM     18  H   LIG A   1      -5.925   7.847 130.027  0.00  0.00    +0.210 HD
ENDBRANCH   6  17
BRANCH   3  19
ATOM     19  C   LIG A   1      -6.479   3.461 134.198  0.00  0.00    +0.058 C 
BRANCH  19  20
ATOM     20  C   LIG A   1      -7.657   2.774 133.551  0.00  0.00    -0.025 C 
ATOM     21  C   LIG A   1      -7.554   1.829 132.603  0.00  0.00    +0.013 C 
BRANCH  21  22
ATOM     22  C   LIG A   1      -8.730   1.108 131.986  0.00  0.00    +0.203 C 
ATOM     23  O   LIG A   1      -8.369   0.722 130.644  0.00  0.00    -0.454 OA
ATOM     24  C   LIG A   1      -8.463   1.605 129.619  0.00  0.00    +0.332 C 
ATOM     25  C   LIG A   1      -9.283   2.812 129.847  0.00  0.00    +0.087 C 
ATOM     26  C   LIG A   1     -10.044   2.952 130.939  0.00  0.00    -0.016 C 
ATOM     27  C   LIG A   1     -10.035   1.913 132.013  0.00  0.00    +0.076 C 
ATOM     28  O   LIG A   1      -7.927   1.419 128.539  0.00  0.00    -0.246 OA
ENDBRANCH  21  22
ENDBRANCH  19  20
ENDBRANCH   3  19
TORSDOF 7
ENDMDL
