MODEL 1
REMARK VINA RESULT:      -6.4      0.000      0.000
REMARK  Name = NuBBE_447
REMARK  7 active torsions:
REMARK  status: ('A' for Active; 'I' for Inactive)
REMARK    1  A    between atoms: C_5  and  O_6
REMARK    2  A    between atoms: C_5  and  C_7
REMARK    3  A    between atoms: C_7  and  O_8
REMARK    4  A    between atoms: C_11  and  O_13
REMARK    5  A    between atoms: C_16  and  C_17
REMARK    6  A    between atoms: C_17  and  O_18
REMARK    7  A    between atoms: O_18  and  C_19
REMARK                            x       y       z     vdW  Elec       q    Type
REMARK                         _______ _______ _______ _____ _____    ______ ____
ROOT
ATOM      1  C   LIG A   1     -11.393   7.944 129.973  0.00  0.00    +0.064 C 
ATOM      2  C   LIG A   1     -12.295   6.989 130.708  0.00  0.00    -0.019 C 
ATOM      3  C   LIG A   1     -11.620   5.916 131.137  0.00  0.00    +0.006 C 
ATOM      4  C   LIG A   1     -10.172   5.983 130.752  0.00  0.00    +0.116 C 
ATOM      5  C   LIG A   1     -10.185   7.046 129.624  0.00  0.00    +0.107 C 
ATOM      6  C   LIG A   1     -10.331   6.434 128.225  0.00  0.00    +0.311 C 
ATOM      7  O   LIG A   1     -10.618   7.399 127.210  0.00  0.00    -0.470 OA
ATOM      8  C   LIG A   1     -11.594   8.302 127.531  0.00  0.00    +0.201 C 
ATOM      9  C   LIG A   1     -12.026   8.568 128.771  0.00  0.00    +0.078 C 
ENDROOT
BRANCH   4  10
ATOM     10  O   LIG A   1      -9.775   4.696 130.302  0.00  0.00    -0.382 OA
ATOM     11  H   LIG A   1     -10.138   4.076 130.969  0.00  0.00    +0.211 HD
ENDBRANCH   4  10
BRANCH   6  12
ATOM     12  O   LIG A   1      -9.093   5.822 127.865  0.00  0.00    -0.357 OA
ATOM     13  H   LIG A   1      -8.906   5.209 128.595  0.00  0.00    +0.213 HD
ENDBRANCH   6  12
BRANCH   9  14
ATOM     14  C   LIG A   1     -13.079   9.584 129.012  0.00  0.00    +0.338 C 
ATOM     15  O   LIG A   1     -13.887   9.927 128.159  0.00  0.00    -0.245 OA
BRANCH  14  16
ATOM     16  O   LIG A   1     -12.960  10.117 130.253  0.00  0.00    -0.465 OA
ATOM     17  C   LIG A   1     -13.578  11.395 130.415  0.00  0.00    +0.280 C 
ENDBRANCH  14  16
ENDBRANCH   9  14
BRANCH   4  18
ATOM     18  C   LIG A   1      -9.291   6.385 131.952  0.00  0.00    +0.195 C 
BRANCH  18  19
ATOM     19  O   LIG A   1     -10.057   6.322 133.156  0.00  0.00    -0.392 OA
ATOM     20  H   LIG A   1     -10.973   6.552 132.920  0.00  0.00    +0.209 HD
ENDBRANCH  18  19
ENDBRANCH   4  18
TORSDOF 6
ENDMDL
MODEL 2
REMARK VINA RESULT:      -5.9      8.445     11.431
REMARK  Name = NuBBE_447
REMARK  7 active torsions:
REMARK  status: ('A' for Active; 'I' for Inactive)
REMARK    1  A    between atoms: C_5  and  O_6
REMARK    2  A    between atoms: C_5  and  C_7
REMARK    3  A    between atoms: C_7  and  O_8
REMARK    4  A    between atoms: C_11  and  O_13
REMARK    5  A    between atoms: C_16  and  C_17
REMARK    6  A    between atoms: C_17  and  O_18
REMARK    7  A    between atoms: O_18  and  C_19
REMARK                            x       y       z     vdW  Elec       q    Type
REMARK                         _______ _______ _______ _____ _____    ______ ____
ROOT
ATOM      1  C   LIG A   1      -7.881  -0.299 124.519  0.00  0.00    +0.064 C 
ATOM      2  C   LIG A   1      -6.747   0.370 123.790  0.00  0.00    -0.019 C 
ATOM      3  C   LIG A   1      -7.116   1.562 123.305  0.00  0.00    +0.006 C 
ATOM      4  C   LIG A   1      -8.549   1.871 123.627  0.00  0.00    +0.116 C 
ATOM      5  C   LIG A   1      -9.110   0.470 123.982  0.00  0.00    +0.107 C 
ATOM      6  C   LIG A   1      -9.734  -0.248 122.777  0.00  0.00    +0.311 C 
ATOM      7  O   LIG A   1     -10.004  -1.631 123.020  0.00  0.00    -0.470 OA
ATOM      8  C   LIG A   1      -8.988  -2.322 123.618  0.00  0.00    +0.201 C 
ATOM      9  C   LIG A   1      -7.963  -1.772 124.284  0.00  0.00    +0.078 C 
ENDROOT
BRANCH   4  10
ATOM     10  O   LIG A   1      -9.148   2.437 122.471  0.00  0.00    -0.382 OA
ATOM     11  H   LIG A   1      -9.965   1.914 122.333  0.00  0.00    +0.211 HD
ENDBRANCH   4  10
BRANCH   6  12
ATOM     12  O   LIG A   1     -10.988   0.366 122.482  0.00  0.00    -0.357 OA
ATOM     13  H   LIG A   1     -11.023   1.137 123.073  0.00  0.00    +0.213 HD
ENDBRANCH   6  12
BRANCH   9  14
ATOM     14  C   LIG A   1      -6.922  -2.617 124.916  0.00  0.00    +0.338 C 
ATOM     15  O   LIG A   1      -6.602  -2.520 126.093  0.00  0.00    -0.245 OA
BRANCH  14  16
ATOM     16  O   LIG A   1      -6.338  -3.429 124.000  0.00  0.00    -0.465 OA
ATOM     17  C   LIG A   1      -5.013  -3.051 123.625  0.00  0.00    +0.280 C 
ENDBRANCH  14  16
ENDBRANCH   9  14
BRANCH   4  18
ATOM     18  C   LIG A   1      -8.658   2.878 124.789  0.00  0.00    +0.195 C 
BRANCH  18  19
ATOM     19  O   LIG A   1      -8.283   4.180 124.337  0.00  0.00    -0.392 OA
ATOM     20  H   LIG A   1      -8.743   4.820 124.910  0.00  0.00    +0.209 HD
ENDBRANCH  18  19
ENDBRANCH   4  18
TORSDOF 6
ENDMDL
MODEL 3
REMARK VINA RESULT:      -5.8      1.955      5.443
REMARK  Name = NuBBE_447
REMARK  7 active torsions:
REMARK  status: ('A' for Active; 'I' for Inactive)
REMARK    1  A    between atoms: C_5  and  O_6
REMARK    2  A    between atoms: C_5  and  C_7
REMARK    3  A    between atoms: C_7  and  O_8
REMARK    4  A    between atoms: C_11  and  O_13
REMARK    5  A    between atoms: C_16  and  C_17
REMARK    6  A    between atoms: C_17  and  O_18
REMARK    7  A    between atoms: O_18  and  C_19
REMARK                            x       y       z     vdW  Elec       q    Type
REMARK                         _______ _______ _______ _____ _____    ______ ____
ROOT
ATOM      1  C   LIG A   1      -9.890   7.326 129.976  0.00  0.00    +0.064 C 
ATOM      2  C   LIG A   1     -10.041   6.489 128.734  0.00  0.00    -0.019 C 
ATOM      3  C   LIG A   1     -11.249   6.653 128.181  0.00  0.00    +0.006 C 
ATOM      4  C   LIG A   1     -12.091   7.615 128.966  0.00  0.00    +0.116 C 
ATOM      5  C   LIG A   1     -11.360   7.645 130.333  0.00  0.00    +0.107 C 
ATOM      6  C   LIG A   1     -11.923   6.629 131.336  0.00  0.00    +0.311 C 
ATOM      7  O   LIG A   1     -11.096   6.453 132.489  0.00  0.00    -0.470 OA
ATOM      8  C   LIG A   1      -9.763   6.300 132.226  0.00  0.00    +0.201 C 
ATOM      9  C   LIG A   1      -9.155   6.639 131.081  0.00  0.00    +0.078 C 
ENDROOT
BRANCH   4  10
ATOM     10  O   LIG A   1     -13.406   7.085 129.047  0.00  0.00    -0.382 OA
ATOM     11  H   LIG A   1     -13.285   6.114 129.010  0.00  0.00    +0.211 HD
ENDBRANCH   4  10
BRANCH   6  12
ATOM     12  O   LIG A   1     -13.182   7.108 131.808  0.00  0.00    -0.357 OA
ATOM     13  H   LIG A   1     -13.822   6.796 131.147  0.00  0.00    +0.213 HD
ENDBRANCH   6  12
BRANCH   9  14
ATOM     14  C   LIG A   1      -7.695   6.449 130.907  0.00  0.00    +0.338 C 
ATOM     15  O   LIG A   1      -6.910   7.376 130.760  0.00  0.00    -0.245 OA
BRANCH  14  16
ATOM     16  O   LIG A   1      -7.383   5.130 130.852  0.00  0.00    -0.465 OA
ATOM     17  C   LIG A   1      -6.333   4.728 131.733  0.00  0.00    +0.280 C 
ENDBRANCH  14  16
ENDBRANCH   9  14
BRANCH   4  18
ATOM     18  C   LIG A   1     -12.150   8.995 128.282  0.00  0.00    +0.195 C 
BRANCH  18  19
ATOM     19  O   LIG A   1     -13.218   9.765 128.839  0.00  0.00    -0.392 OA
ATOM     20  H   LIG A   1     -13.554  10.336 128.125  0.00  0.00    +0.209 HD
ENDBRANCH  18  19
ENDBRANCH   4  18
TORSDOF 6
ENDMDL
MODEL 4
REMARK VINA RESULT:      -5.7      6.948      9.438
REMARK  Name = NuBBE_447
REMARK  7 active torsions:
REMARK  status: ('A' for Active; 'I' for Inactive)
REMARK    1  A    between atoms: C_5  and  O_6
REMARK    2  A    between atoms: C_5  and  C_7
REMARK    3  A    between atoms: C_7  and  O_8
REMARK    4  A    between atoms: C_11  and  O_13
REMARK    5  A    between atoms: C_16  and  C_17
REMARK    6  A    between atoms: C_17  and  O_18
REMARK    7  A    between atoms: O_18  and  C_19
REMARK                            x       y       z     vdW  Elec       q    Type
REMARK                         _______ _______ _______ _____ _____    ______ ____
ROOT
ATOM      1  C   LIG A   1      -8.087   1.960 125.080  0.00  0.00    +0.064 C 
ATOM      2  C   LIG A   1      -6.603   1.717 125.156  0.00  0.00    -0.019 C 
ATOM      3  C   LIG A   1      -5.913   2.785 124.737  0.00  0.00    +0.006 C 
ATOM      4  C   LIG A   1      -6.823   3.899 124.312  0.00  0.00    +0.116 C 
ATOM      5  C   LIG A   1      -8.170   3.158 124.107  0.00  0.00    +0.107 C 
ATOM      6  C   LIG A   1      -8.382   2.689 122.662  0.00  0.00    +0.311 C 
ATOM      7  O   LIG A   1      -9.473   1.778 122.516  0.00  0.00    -0.470 OA
ATOM      8  C   LIG A   1      -9.514   0.773 123.442  0.00  0.00    +0.201 C 
ATOM      9  C   LIG A   1      -8.869   0.774 124.616  0.00  0.00    +0.078 C 
ENDROOT
BRANCH   4  10
ATOM     10  O   LIG A   1      -6.305   4.458 123.114  0.00  0.00    -0.382 OA
ATOM     11  H   LIG A   1      -5.726   5.192 123.411  0.00  0.00    +0.211 HD
ENDBRANCH   4  10
BRANCH   6  12
ATOM     12  O   LIG A   1      -8.691   3.827 121.856  0.00  0.00    -0.357 OA
ATOM     13  H   LIG A   1      -8.872   3.457 120.977  0.00  0.00    +0.213 HD
ENDBRANCH   6  12
BRANCH   9  14
ATOM     14  C   LIG A   1      -8.999  -0.362 125.560  0.00  0.00    +0.338 C 
ATOM     15  O   LIG A   1      -8.656  -0.302 126.734  0.00  0.00    -0.245 OA
BRANCH  14  16
ATOM     16  O   LIG A   1      -9.461  -1.467 124.924  0.00  0.00    -0.465 OA
ATOM     17  C   LIG A   1      -9.367  -2.674 125.682  0.00  0.00    +0.280 C 
ENDBRANCH  14  16
ENDBRANCH   9  14
BRANCH   4  18
ATOM     18  C   LIG A   1      -6.897   5.002 125.386  0.00  0.00    +0.195 C 
BRANCH  18  19
ATOM     19  O   LIG A   1      -8.209   5.568 125.409  0.00  0.00    -0.392 OA
ATOM     20  H   LIG A   1      -8.713   5.083 126.087  0.00  0.00    +0.209 HD
ENDBRANCH  18  19
ENDBRANCH   4  18
TORSDOF 6
ENDMDL
MODEL 5
REMARK VINA RESULT:      -5.7      1.858      5.236
REMARK  Name = NuBBE_447
REMARK  7 active torsions:
REMARK  status: ('A' for Active; 'I' for Inactive)
REMARK    1  A    between atoms: C_5  and  O_6
REMARK    2  A    between atoms: C_5  and  C_7
REMARK    3  A    between atoms: C_7  and  O_8
REMARK    4  A    between atoms: C_11  and  O_13
REMARK    5  A    between atoms: C_16  and  C_17
REMARK    6  A    between atoms: C_17  and  O_18
REMARK    7  A    between atoms: O_18  and  C_19
REMARK                            x       y       z     vdW  Elec       q    Type
REMARK                         _______ _______ _______ _____ _____    ______ ____
ROOT
ATOM      1  C   LIG A   1     -11.127   5.868 130.547  0.00  0.00    +0.064 C 
ATOM      2  C   LIG A   1     -12.117   6.487 131.497  0.00  0.00    -0.019 C 
ATOM      3  C   LIG A   1     -12.882   7.395 130.879  0.00  0.00    +0.006 C 
ATOM      4  C   LIG A   1     -12.520   7.529 129.429  0.00  0.00    +0.116 C 
ATOM      5  C   LIG A   1     -11.108   6.890 129.387  0.00  0.00    +0.107 C 
ATOM      6  C   LIG A   1      -9.981   7.916 129.567  0.00  0.00    +0.311 C 
ATOM      7  O   LIG A   1      -8.704   7.318 129.803  0.00  0.00    -0.470 OA
ATOM      8  C   LIG A   1      -8.699   6.314 130.731  0.00  0.00    +0.201 C 
ATOM      9  C   LIG A   1      -9.778   5.638 131.147  0.00  0.00    +0.078 C 
ENDROOT
BRANCH   4  10
ATOM     10  O   LIG A   1     -12.519   8.911 129.101  0.00  0.00    -0.382 OA
ATOM     11  H   LIG A   1     -12.922   8.955 128.209  0.00  0.00    +0.211 HD
ENDBRANCH   4  10
BRANCH   6  12
ATOM     12  O   LIG A   1      -9.859   8.672 128.362  0.00  0.00    -0.357 OA
ATOM     13  H   LIG A   1      -8.918   8.908 128.320  0.00  0.00    +0.213 HD
ENDBRANCH   6  12
BRANCH   9  14
ATOM     14  C   LIG A   1      -9.659   4.548 132.145  0.00  0.00    +0.338 C 
ATOM     15  O   LIG A   1      -9.331   4.737 133.309  0.00  0.00    -0.245 OA
BRANCH  14  16
ATOM     16  O   LIG A   1      -9.878   3.340 131.569  0.00  0.00    -0.465 OA
ATOM     17  C   LIG A   1      -8.696   2.591 131.282  0.00  0.00    +0.280 C 
ENDBRANCH  14  16
ENDBRANCH   9  14
BRANCH   4  18
ATOM     18  C   LIG A   1     -13.539   6.803 128.528  0.00  0.00    +0.195 C 
BRANCH  18  19
ATOM     19  O   LIG A   1     -12.971   6.584 127.235  0.00  0.00    -0.392 OA
ATOM     20  H   LIG A   1     -13.702   6.635 126.595  0.00  0.00    +0.209 HD
ENDBRANCH  18  19
ENDBRANCH   4  18
TORSDOF 6
ENDMDL
MODEL 6
REMARK VINA RESULT:      -5.6      1.985      3.380
REMARK  Name = NuBBE_447
REMARK  7 active torsions:
REMARK  status: ('A' for Active; 'I' for Inactive)
REMARK    1  A    between atoms: C_5  and  O_6
REMARK    2  A    between atoms: C_5  and  C_7
REMARK    3  A    between atoms: C_7  and  O_8
REMARK    4  A    between atoms: C_11  and  O_13
REMARK    5  A    between atoms: C_16  and  C_17
REMARK    6  A    between atoms: C_17  and  O_18
REMARK    7  A    between atoms: O_18  and  C_19
REMARK                            x       y       z     vdW  Elec       q    Type
REMARK                         _______ _______ _______ _____ _____    ______ ____
ROOT
ATOM      1  C   LIG A   1      -9.749   6.574 129.338  0.00  0.00    +0.064 C 
ATOM      2  C   LIG A   1      -9.055   7.321 130.446  0.00  0.00    -0.019 C 
ATOM      3  C   LIG A   1      -8.271   6.508 131.164  0.00  0.00    +0.006 C 
ATOM      4  C   LIG A   1      -8.323   5.097 130.655  0.00  0.00    +0.116 C 
ATOM      5  C   LIG A   1      -9.621   5.107 129.806  0.00  0.00    +0.107 C 
ATOM      6  C   LIG A   1     -10.858   4.664 130.599  0.00  0.00    +0.311 C 
ATOM      7  O   LIG A   1     -12.089   4.927 129.921  0.00  0.00    -0.470 OA
ATOM      8  C   LIG A   1     -12.192   6.176 129.373  0.00  0.00    +0.201 C 
ATOM      9  C   LIG A   1     -11.165   6.998 129.120  0.00  0.00    +0.078 C 
ENDROOT
BRANCH   4  10
ATOM     10  O   LIG A   1      -8.394   4.227 131.775  0.00  0.00    -0.382 OA
ATOM     11  H   LIG A   1      -7.461   4.092 132.044  0.00  0.00    +0.211 HD
ENDBRANCH   4  10
BRANCH   6  12
ATOM     12  O   LIG A   1     -10.793   3.252 130.792  0.00  0.00    -0.357 OA
ATOM     13  H   LIG A   1     -10.701   2.890 129.894  0.00  0.00    +0.213 HD
ENDBRANCH   6  12
BRANCH   9  14
ATOM     14  C   LIG A   1     -11.386   8.327 128.502  0.00  0.00    +0.338 C 
ATOM     15  O   LIG A   1     -12.211   9.131 128.917  0.00  0.00    -0.245 OA
BRANCH  14  16
ATOM     16  O   LIG A   1     -10.620   8.478 127.393  0.00  0.00    -0.465 OA
ATOM     17  C   LIG A   1     -11.085   7.768 126.245  0.00  0.00    +0.280 C 
ENDBRANCH  14  16
ENDBRANCH   9  14
BRANCH   4  18
ATOM     18  C   LIG A   1      -7.066   4.751 129.833  0.00  0.00    +0.195 C 
BRANCH  18  19
ATOM     19  O   LIG A   1      -6.101   5.797 129.962  0.00  0.00    -0.392 OA
ATOM     20  H   LIG A   1      -6.297   6.449 129.266  0.00  0.00    +0.209 HD
ENDBRANCH  18  19
ENDBRANCH   4  18
TORSDOF 6
ENDMDL
MODEL 7
REMARK VINA RESULT:      -5.5      9.167     10.183
REMARK  Name = NuBBE_447
REMARK  7 active torsions:
REMARK  status: ('A' for Active; 'I' for Inactive)
REMARK    1  A    between atoms: C_5  and  O_6
REMARK    2  A    between atoms: C_5  and  C_7
REMARK    3  A    between atoms: C_7  and  O_8
REMARK    4  A    between atoms: C_11  and  O_13
REMARK    5  A    between atoms: C_16  and  C_17
REMARK    6  A    between atoms: C_17  and  O_18
REMARK    7  A    between atoms: O_18  and  C_19
REMARK                            x       y       z     vdW  Elec       q    Type
REMARK                         _______ _______ _______ _____ _____    ______ ____
ROOT
ATOM      1  C   LIG A   1      -7.097   1.505 123.313  0.00  0.00    +0.064 C 
ATOM      2  C   LIG A   1      -6.954   1.616 124.808  0.00  0.00    -0.019 C 
ATOM      3  C   LIG A   1      -7.603   0.626 125.433  0.00  0.00    +0.006 C 
ATOM      4  C   LIG A   1      -8.282  -0.292 124.460  0.00  0.00    +0.116 C 
ATOM      5  C   LIG A   1      -8.322   0.572 123.173  0.00  0.00    +0.107 C 
ATOM      6  C   LIG A   1      -9.621   1.376 123.030  0.00  0.00    +0.311 C 
ATOM      7  O   LIG A   1      -9.561   2.373 122.008  0.00  0.00    -0.470 OA
ATOM      8  C   LIG A   1      -8.428   3.138 122.012  0.00  0.00    +0.201 C 
ATOM      9  C   LIG A   1      -7.280   2.819 122.626  0.00  0.00    +0.078 C 
ENDROOT
BRANCH   4  10
ATOM     10  O   LIG A   1      -9.573  -0.596 124.969  0.00  0.00    -0.382 OA
ATOM     11  H   LIG A   1      -9.817  -1.442 124.539  0.00  0.00    +0.211 HD
ENDBRANCH   4  10
BRANCH   6  12
ATOM     12  O   LIG A   1     -10.671   0.480 122.664  0.00  0.00    -0.357 OA
ATOM     13  H   LIG A   1     -10.923   0.051 123.498  0.00  0.00    +0.213 HD
ENDBRANCH   6  12
BRANCH   9  14
ATOM     14  C   LIG A   1      -6.100   3.713 122.551  0.00  0.00    +0.338 C 
ATOM     15  O   LIG A   1      -5.857   4.575 123.385  0.00  0.00    -0.245 OA
BRANCH  14  16
ATOM     16  O   LIG A   1      -5.400   3.494 121.410  0.00  0.00    -0.465 OA
ATOM     17  C   LIG A   1      -5.341   4.611 120.522  0.00  0.00    +0.280 C 
ENDBRANCH  14  16
ENDBRANCH   9  14
BRANCH   4  18
ATOM     18  C   LIG A   1      -7.494  -1.604 124.283  0.00  0.00    +0.195 C 
BRANCH  18  19
ATOM     19  O   LIG A   1      -7.539  -2.015 122.916  0.00  0.00    -0.392 OA
ATOM     20  H   LIG A   1      -6.801  -1.569 122.464  0.00  0.00    +0.209 HD
ENDBRANCH  18  19
ENDBRANCH   4  18
TORSDOF 6
ENDMDL
MODEL 8
REMARK VINA RESULT:      -5.5      9.048     11.238
REMARK  Name = NuBBE_447
REMARK  7 active torsions:
REMARK  status: ('A' for Active; 'I' for Inactive)
REMARK    1  A    between atoms: C_5  and  O_6
REMARK    2  A    between atoms: C_5  and  C_7
REMARK    3  A    between atoms: C_7  and  O_8
REMARK    4  A    between atoms: C_11  and  O_13
REMARK    5  A    between atoms: C_16  and  C_17
REMARK    6  A    between atoms: C_17  and  O_18
REMARK    7  A    between atoms: O_18  and  C_19
REMARK                            x       y       z     vdW  Elec       q    Type
REMARK                         _______ _______ _______ _____ _____    ______ ____
ROOT
ATOM      1  C   LIG A   1      -7.104  -0.140 123.405  0.00  0.00    +0.064 C 
ATOM      2  C   LIG A   1      -6.499  -0.200 124.782  0.00  0.00    -0.019 C 
ATOM      3  C   LIG A   1      -6.165  -1.454 125.112  0.00  0.00    +0.006 C 
ATOM      4  C   LIG A   1      -6.499  -2.423 124.016  0.00  0.00    +0.116 C 
ATOM      5  C   LIG A   1      -7.510  -1.612 123.164  0.00  0.00    +0.107 C 
ATOM      6  C   LIG A   1      -8.969  -1.861 123.569  0.00  0.00    +0.311 C 
ATOM      7  O   LIG A   1      -9.885  -0.929 122.989  0.00  0.00    -0.470 OA
ATOM      8  C   LIG A   1      -9.500   0.381 123.061  0.00  0.00    +0.201 C 
ATOM      9  C   LIG A   1      -8.251   0.810 123.291  0.00  0.00    +0.078 C 
ENDROOT
BRANCH   4  10
ATOM     10  O   LIG A   1      -7.069  -3.580 124.609  0.00  0.00    -0.382 OA
ATOM     11  H   LIG A   1      -6.995  -4.275 123.922  0.00  0.00    +0.211 HD
ENDBRANCH   4  10
BRANCH   6  12
ATOM     12  O   LIG A   1      -9.355  -3.154 123.104  0.00  0.00    -0.357 OA
ATOM     13  H   LIG A   1     -10.284  -3.241 123.376  0.00  0.00    +0.213 HD
ENDBRANCH   6  12
BRANCH   9  14
ATOM     14  C   LIG A   1      -7.937   2.258 123.329  0.00  0.00    +0.338 C 
ATOM     15  O   LIG A   1      -8.698   3.099 123.790  0.00  0.00    -0.245 OA
BRANCH  14  16
ATOM     16  O   LIG A   1      -6.752   2.511 122.718  0.00  0.00    -0.465 OA
ATOM     17  C   LIG A   1      -6.813   3.484 121.676  0.00  0.00    +0.280 C 
ENDBRANCH  14  16
ENDBRANCH   9  14
BRANCH   4  18
ATOM     18  C   LIG A   1      -5.239  -2.835 123.229  0.00  0.00    +0.195 C 
BRANCH  18  19
ATOM     19  O   LIG A   1      -4.644  -3.983 123.835  0.00  0.00    -0.392 OA
ATOM     20  H   LIG A   1      -5.365  -4.613 124.012  0.00  0.00    +0.209 HD
ENDBRANCH  18  19
ENDBRANCH   4  18
TORSDOF 6
ENDMDL
MODEL 9
REMARK VINA RESULT:      -5.5      7.832     10.851
REMARK  Name = NuBBE_447
REMARK  7 active torsions:
REMARK  status: ('A' for Active; 'I' for Inactive)
REMARK    1  A    between atoms: C_5  and  O_6
REMARK    2  A    between atoms: C_5  and  C_7
REMARK    3  A    between atoms: C_7  and  O_8
REMARK    4  A    between atoms: C_11  and  O_13
REMARK    5  A    between atoms: C_16  and  C_17
REMARK    6  A    between atoms: C_17  and  O_18
REMARK    7  A    between atoms: O_18  and  C_19
REMARK                            x       y       z     vdW  Elec       q    Type
REMARK                         _______ _______ _______ _____ _____    ______ ____
ROOT
ATOM      1  C   LIG A   1      -8.328  -0.113 123.986  0.00  0.00    +0.064 C 
ATOM      2  C   LIG A   1      -9.535   0.211 123.147  0.00  0.00    -0.019 C 
ATOM      3  C   LIG A   1      -9.788   1.526 123.146  0.00  0.00    +0.006 C 
ATOM      4  C   LIG A   1      -8.798   2.280 123.984  0.00  0.00    +0.116 C 
ATOM      5  C   LIG A   1      -8.190   1.154 124.860  0.00  0.00    +0.107 C 
ATOM      6  C   LIG A   1      -8.911   0.985 126.204  0.00  0.00    +0.311 C 
ATOM      7  O   LIG A   1      -8.546  -0.212 126.896  0.00  0.00    -0.470 OA
ATOM      8  C   LIG A   1      -8.525  -1.341 126.126  0.00  0.00    +0.201 C 
ATOM      9  C   LIG A   1      -8.469  -1.366 124.788  0.00  0.00    +0.078 C 
ENDROOT
BRANCH   4  10
ATOM     10  O   LIG A   1      -9.509   3.252 124.737  0.00  0.00    -0.382 OA
ATOM     11  H   LIG A   1      -9.022   3.314 125.586  0.00  0.00    +0.211 HD
ENDBRANCH   4  10
BRANCH   6  12
ATOM     12  O   LIG A   1      -8.549   2.073 127.054  0.00  0.00    -0.357 OA
ATOM     13  H   LIG A   1      -8.494   1.679 127.940  0.00  0.00    +0.213 HD
ENDBRANCH   6  12
BRANCH   9  14
ATOM     14  C   LIG A   1      -8.429  -2.650 124.049  0.00  0.00    +0.338 C 
ATOM     15  O   LIG A   1      -9.320  -3.487 124.109  0.00  0.00    -0.245 OA
BRANCH  14  16
ATOM     16  O   LIG A   1      -7.256  -2.788 123.383  0.00  0.00    -0.465 OA
ATOM     17  C   LIG A   1      -6.187  -3.327 124.163  0.00  0.00    +0.280 C 
ENDBRANCH  14  16
ENDBRANCH   9  14
BRANCH   4  18
ATOM     18  C   LIG A   1      -7.751   2.996 123.108  0.00  0.00    +0.195 C 
BRANCH  18  19
ATOM     19  O   LIG A   1      -8.409   3.759 122.095  0.00  0.00    -0.392 OA
ATOM     20  H   LIG A   1      -7.758   3.908 121.387  0.00  0.00    +0.209 HD
ENDBRANCH  18  19
ENDBRANCH   4  18
TORSDOF 6
ENDMDL
