MODEL 1
REMARK VINA RESULT:      -8.3      0.000      0.000
REMARK  Name = NuBBE_2372
REMARK  4 active torsions:
REMARK  status: ('A' for Active; 'I' for Inactive)
REMARK    1  A    between atoms: C_5  and  C_7
REMARK    2  A    between atoms: C_7  and  C_8
REMARK    3  A    between atoms: C_14  and  C_16
REMARK    4  A    between atoms: C_16  and  C_17
REMARK                            x       y       z     vdW  Elec       q    Type
REMARK                         _______ _______ _______ _____ _____    ______ ____
ROOT
ATOM      1  C   LIG A   1      -2.814   6.062 130.565  0.00  0.00    +0.109 C 
ATOM      2  C   LIG A   1      -1.800   6.553 131.570  0.00  0.00    +0.311 C 
ATOM      3  O   LIG A   1      -0.811   5.955 131.940  0.00  0.00    -0.251 OA
ATOM      4  O   LIG A   1      -2.164   7.795 132.019  0.00  0.00    -0.464 OA
ATOM      5  C   LIG A   1      -3.314   8.254 131.300  0.00  0.00    +0.236 C 
ATOM      6  C   LIG A   1      -4.000   7.012 130.782  0.00  0.00    +0.045 C 
ENDROOT
BRANCH   1   7
ATOM      7  C   LIG A   1      -2.197   6.110 129.163  0.00  0.00    +0.050 C 
BRANCH   7  12
ATOM      8  C   LIG A   1      -3.151   3.207 126.871  0.00  0.00    +0.050 A 
ATOM      9  C   LIG A   1      -4.294   3.698 126.249  0.00  0.00    +0.162 A 
ATOM     10  C   LIG A   1      -4.755   4.981 126.553  0.00  0.00    +0.162 A 
ATOM     11  C   LIG A   1      -4.100   5.752 127.516  0.00  0.00    +0.053 A 
ATOM     12  C   LIG A   1      -2.938   5.273 128.143  0.00  0.00    -0.043 A 
ATOM     13  C   LIG A   1      -2.476   3.990 127.814  0.00  0.00    +0.007 A 
ATOM     14  O   LIG A   1      -5.851   5.543 125.948  0.00  0.00    -0.485 OA
ATOM     15  C   LIG A   1      -6.177   4.848 124.738  0.00  0.00    +0.270 C 
ATOM     16  C   LIG A   1      -6.213   3.351 124.994  0.00  0.00    +0.270 C 
ATOM     17  O   LIG A   1      -4.909   2.870 125.344  0.00  0.00    -0.485 OA
ENDBRANCH   7  12
ENDBRANCH   1   7
BRANCH   6  18
ATOM     18  C   LIG A   1      -5.012   6.474 131.822  0.00  0.00    +0.042 C 
BRANCH  18  19
ATOM     19  C   LIG A   1      -6.326   6.058 131.201  0.00  0.00    -0.043 A 
ATOM     20  C   LIG A   1      -7.530   6.621 131.650  0.00  0.00    +0.053 A 
ATOM     21  C   LIG A   1      -8.751   6.180 131.141  0.00  0.00    +0.162 A 
ATOM     22  C   LIG A   1      -8.787   5.174 130.174  0.00  0.00    +0.162 A 
ATOM     23  C   LIG A   1      -7.596   4.644 129.684  0.00  0.00    +0.050 A 
ATOM     24  C   LIG A   1      -6.370   5.079 130.199  0.00  0.00    +0.007 A 
ATOM     25  O   LIG A   1      -9.953   4.670 129.658  0.00  0.00    -0.485 OA
ATOM     26  C   LIG A   1     -11.092   5.080 130.425  0.00  0.00    +0.270 C 
ATOM     27  C   LIG A   1     -10.999   6.549 130.797  0.00  0.00    +0.270 C 
ATOM     28  O   LIG A   1      -9.875   6.777 131.652  0.00  0.00    -0.485 OA
ENDBRANCH  18  19
ENDBRANCH   6  18
TORSDOF 4
ENDMDL
MODEL 2
REMARK VINA RESULT:      -8.2      5.742      8.629
REMARK  Name = NuBBE_2372
REMARK  4 active torsions:
REMARK  status: ('A' for Active; 'I' for Inactive)
REMARK    1  A    between atoms: C_5  and  C_7
REMARK    2  A    between atoms: C_7  and  C_8
REMARK    3  A    between atoms: C_14  and  C_16
REMARK    4  A    between atoms: C_16  and  C_17
REMARK                            x       y       z     vdW  Elec       q    Type
REMARK                         _______ _______ _______ _____ _____    ______ ____
ROOT
ATOM      1  C   LIG A   1      -6.413  -2.224 128.542  0.00  0.00    +0.109 C 
ATOM      2  C   LIG A   1      -5.651  -3.245 129.351  0.00  0.00    +0.311 C 
ATOM      3  O   LIG A   1      -4.471  -3.507 129.244  0.00  0.00    -0.251 OA
ATOM      4  O   LIG A   1      -6.500  -3.852 130.238  0.00  0.00    -0.464 OA
ATOM      5  C   LIG A   1      -7.790  -3.233 130.180  0.00  0.00    +0.236 C 
ATOM      6  C   LIG A   1      -7.878  -2.592 128.814  0.00  0.00    +0.045 C 
ENDROOT
BRANCH   1   7
ATOM      7  C   LIG A   1      -6.007  -0.817 128.996  0.00  0.00    +0.050 C 
BRANCH   7  12
ATOM      8  C   LIG A   1      -8.462   1.851 127.796  0.00  0.00    +0.050 A 
ATOM      9  C   LIG A   1      -7.814   2.350 126.671  0.00  0.00    +0.162 A 
ATOM     10  C   LIG A   1      -6.584   1.814 126.281  0.00  0.00    +0.162 A 
ATOM     11  C   LIG A   1      -5.982   0.813 127.045  0.00  0.00    +0.053 A 
ATOM     12  C   LIG A   1      -6.631   0.291 128.177  0.00  0.00    -0.043 A 
ATOM     13  C   LIG A   1      -7.874   0.827 128.545  0.00  0.00    +0.007 A 
ATOM     14  O   LIG A   1      -5.910   2.230 125.160  0.00  0.00    -0.485 OA
ATOM     15  C   LIG A   1      -6.785   2.938 124.273  0.00  0.00    +0.270 C 
ATOM     16  C   LIG A   1      -7.568   3.986 125.045  0.00  0.00    +0.270 C 
ATOM     17  O   LIG A   1      -8.445   3.362 125.991  0.00  0.00    -0.485 OA
ENDBRANCH   7  12
ENDBRANCH   1   7
BRANCH   6  18
ATOM     18  C   LIG A   1      -8.442  -3.594 127.778  0.00  0.00    +0.042 C 
BRANCH  18  19
ATOM     19  C   LIG A   1      -8.542  -3.006 126.389  0.00  0.00    -0.043 A 
ATOM     20  C   LIG A   1      -9.031  -1.704 126.205  0.00  0.00    +0.053 A 
ATOM     21  C   LIG A   1      -9.206  -1.188 124.923  0.00  0.00    +0.162 A 
ATOM     22  C   LIG A   1      -8.892  -1.962 123.805  0.00  0.00    +0.162 A 
ATOM     23  C   LIG A   1      -8.357  -3.237 123.976  0.00  0.00    +0.050 A 
ATOM     24  C   LIG A   1      -8.188  -3.760 125.262  0.00  0.00    +0.007 A 
ATOM     25  O   LIG A   1      -9.072  -1.530 122.515  0.00  0.00    -0.485 OA
ATOM     26  C   LIG A   1      -9.875  -0.343 122.463  0.00  0.00    +0.270 C 
ATOM     27  C   LIG A   1      -9.465   0.641 123.544  0.00  0.00    +0.270 C 
ATOM     28  O   LIG A   1      -9.705   0.087 124.842  0.00  0.00    -0.485 OA
ENDBRANCH  18  19
ENDBRANCH   6  18
TORSDOF 4
ENDMDL
MODEL 3
REMARK VINA RESULT:      -8.2      5.472      7.217
REMARK  Name = NuBBE_2372
REMARK  4 active torsions:
REMARK  status: ('A' for Active; 'I' for Inactive)
REMARK    1  A    between atoms: C_5  and  C_7
REMARK    2  A    between atoms: C_7  and  C_8
REMARK    3  A    between atoms: C_14  and  C_16
REMARK    4  A    between atoms: C_16  and  C_17
REMARK                            x       y       z     vdW  Elec       q    Type
REMARK                         _______ _______ _______ _____ _____    ______ ____
ROOT
ATOM      1  C   LIG A   1      -8.047  -1.323 131.455  0.00  0.00    +0.109 C 
ATOM      2  C   LIG A   1      -7.719  -1.802 132.849  0.00  0.00    +0.311 C 
ATOM      3  O   LIG A   1      -7.848  -2.933 133.266  0.00  0.00    -0.251 OA
ATOM      4  O   LIG A   1      -7.251  -0.752 133.595  0.00  0.00    -0.464 OA
ATOM      5  C   LIG A   1      -7.121   0.411 132.770  0.00  0.00    +0.236 C 
ATOM      6  C   LIG A   1      -8.068   0.203 131.611  0.00  0.00    +0.045 C 
ENDROOT
BRANCH   1   7
ATOM      7  C   LIG A   1      -6.994  -1.858 130.479  0.00  0.00    +0.050 C 
BRANCH   7  12
ATOM      8  C   LIG A   1      -8.930  -3.795 127.817  0.00  0.00    +0.050 A 
ATOM      9  C   LIG A   1      -8.625  -3.078 126.665  0.00  0.00    +0.162 A 
ATOM     10  C   LIG A   1      -7.775  -1.972 126.737  0.00  0.00    +0.162 A 
ATOM     11  C   LIG A   1      -7.271  -1.555 127.970  0.00  0.00    +0.053 A 
ATOM     12  C   LIG A   1      -7.561  -2.277 129.140  0.00  0.00    -0.043 A 
ATOM     13  C   LIG A   1      -8.401  -3.397 129.049  0.00  0.00    +0.007 A 
ATOM     14  O   LIG A   1      -7.401  -1.245 125.634  0.00  0.00    -0.485 OA
ATOM     15  C   LIG A   1      -7.641  -1.985 124.431  0.00  0.00    +0.270 C 
ATOM     16  C   LIG A   1      -9.049  -2.554 124.445  0.00  0.00    +0.270 C 
ATOM     17  O   LIG A   1      -9.190  -3.521 125.494  0.00  0.00    -0.485 OA
ENDBRANCH   7  12
ENDBRANCH   1   7
BRANCH   6  18
ATOM     18  C   LIG A   1      -9.475   0.748 131.953  0.00  0.00    +0.042 C 
BRANCH  18  19
ATOM     19  C   LIG A   1      -9.531   2.259 131.964  0.00  0.00    -0.043 A 
ATOM     20  C   LIG A   1      -9.720   2.969 130.769  0.00  0.00    +0.053 A 
ATOM     21  C   LIG A   1      -9.688   4.362 130.759  0.00  0.00    +0.162 A 
ATOM     22  C   LIG A   1      -9.470   5.067 131.943  0.00  0.00    +0.162 A 
ATOM     23  C   LIG A   1      -9.332   4.375 133.144  0.00  0.00    +0.050 A 
ATOM     24  C   LIG A   1      -9.356   2.977 133.155  0.00  0.00    +0.007 A 
ATOM     25  O   LIG A   1      -9.390   6.436 132.000  0.00  0.00    -0.485 OA
ATOM     26  C   LIG A   1      -9.265   7.012 130.694  0.00  0.00    +0.270 C 
ATOM     27  C   LIG A   1     -10.210   6.346 129.710  0.00  0.00    +0.270 C 
ATOM     28  O   LIG A   1      -9.866   4.967 129.542  0.00  0.00    -0.485 OA
ENDBRANCH  18  19
ENDBRANCH   6  18
TORSDOF 4
ENDMDL
MODEL 4
REMARK VINA RESULT:      -8.0      5.554      9.222
REMARK  Name = NuBBE_2372
REMARK  4 active torsions:
REMARK  status: ('A' for Active; 'I' for Inactive)
REMARK    1  A    between atoms: C_5  and  C_7
REMARK    2  A    between atoms: C_7  and  C_8
REMARK    3  A    between atoms: C_14  and  C_16
REMARK    4  A    between atoms: C_16  and  C_17
REMARK                            x       y       z     vdW  Elec       q    Type
REMARK                         _______ _______ _______ _____ _____    ______ ____
ROOT
ATOM      1  C   LIG A   1      -8.609  -0.732 124.298  0.00  0.00    +0.109 C 
ATOM      2  C   LIG A   1      -9.203  -1.024 122.942  0.00  0.00    +0.311 C 
ATOM      3  O   LIG A   1     -10.259  -0.605 122.518  0.00  0.00    -0.251 OA
ATOM      4  O   LIG A   1      -8.365  -1.854 122.244  0.00  0.00    -0.464 OA
ATOM      5  C   LIG A   1      -7.160  -2.066 122.988  0.00  0.00    +0.236 C 
ATOM      6  C   LIG A   1      -7.515  -1.800 124.433  0.00  0.00    +0.045 C 
ENDROOT
BRANCH   1   7
ATOM      7  C   LIG A   1      -8.104   0.715 124.326  0.00  0.00    +0.050 C 
BRANCH   7  12
ATOM      8  C   LIG A   1      -7.476   1.465 128.017  0.00  0.00    +0.050 A 
ATOM      9  C   LIG A   1      -6.123   1.790 128.016  0.00  0.00    +0.162 A 
ATOM     10  C   LIG A   1      -5.408   1.787 126.817  0.00  0.00    +0.162 A 
ATOM     11  C   LIG A   1      -6.034   1.411 125.627  0.00  0.00    +0.053 A 
ATOM     12  C   LIG A   1      -7.403   1.091 125.612  0.00  0.00    -0.043 A 
ATOM     13  C   LIG A   1      -8.113   1.117 126.822  0.00  0.00    +0.007 A 
ATOM     14  O   LIG A   1      -4.083   2.136 126.737  0.00  0.00    -0.485 OA
ATOM     15  C   LIG A   1      -3.678   2.866 127.901  0.00  0.00    +0.270 C 
ATOM     16  C   LIG A   1      -4.132   2.138 129.155  0.00  0.00    +0.270 C 
ATOM     17  O   LIG A   1      -5.564   2.110 129.228  0.00  0.00    -0.485 OA
ENDBRANCH   7  12
ENDBRANCH   1   7
BRANCH   6  18
ATOM     18  C   LIG A   1      -8.025  -3.093 125.115  0.00  0.00    +0.042 C 
BRANCH  18  19
ATOM     19  C   LIG A   1      -7.966  -3.020 126.624  0.00  0.00    -0.043 A 
ATOM     20  C   LIG A   1      -6.958  -2.279 127.258  0.00  0.00    +0.053 A 
ATOM     21  C   LIG A   1      -6.847  -2.278 128.647  0.00  0.00    +0.162 A 
ATOM     22  C   LIG A   1      -7.743  -3.014 129.424  0.00  0.00    +0.162 A 
ATOM     23  C   LIG A   1      -8.779  -3.712 128.808  0.00  0.00    +0.050 A 
ATOM     24  C   LIG A   1      -8.887  -3.721 127.414  0.00  0.00    +0.007 A 
ATOM     25  O   LIG A   1      -7.669  -3.086 130.792  0.00  0.00    -0.485 OA
ATOM     26  C   LIG A   1      -6.424  -2.572 131.282  0.00  0.00    +0.270 C 
ATOM     27  C   LIG A   1      -6.044  -1.288 130.567  0.00  0.00    +0.270 C 
ATOM     28  O   LIG A   1      -5.821  -1.538 129.176  0.00  0.00    -0.485 OA
ENDBRANCH  18  19
ENDBRANCH   6  18
TORSDOF 4
ENDMDL
MODEL 5
REMARK VINA RESULT:      -7.9      5.412      9.152
REMARK  Name = NuBBE_2372
REMARK  4 active torsions:
REMARK  status: ('A' for Active; 'I' for Inactive)
REMARK    1  A    between atoms: C_5  and  C_7
REMARK    2  A    between atoms: C_7  and  C_8
REMARK    3  A    between atoms: C_14  and  C_16
REMARK    4  A    between atoms: C_16  and  C_17
REMARK                            x       y       z     vdW  Elec       q    Type
REMARK                         _______ _______ _______ _____ _____    ______ ____
ROOT
ATOM      1  C   LIG A   1      -8.506  -0.763 124.252  0.00  0.00    +0.109 C 
ATOM      2  C   LIG A   1      -9.127  -1.122 122.924  0.00  0.00    +0.311 C 
ATOM      3  O   LIG A   1     -10.189  -0.719 122.498  0.00  0.00    -0.251 OA
ATOM      4  O   LIG A   1      -8.307  -1.993 122.256  0.00  0.00    -0.464 OA
ATOM      5  C   LIG A   1      -7.090  -2.174 122.987  0.00  0.00    +0.236 C 
ATOM      6  C   LIG A   1      -7.416  -1.830 124.422  0.00  0.00    +0.045 C 
ENDROOT
BRANCH   1   7
ATOM      7  C   LIG A   1      -7.993   0.680 124.194  0.00  0.00    +0.050 C 
BRANCH   7  12
ATOM      8  C   LIG A   1      -5.806   1.932 127.063  0.00  0.00    +0.050 A 
ATOM      9  C   LIG A   1      -6.756   2.251 128.028  0.00  0.00    +0.162 A 
ATOM     10  C   LIG A   1      -8.112   2.046 127.764  0.00  0.00    +0.162 A 
ATOM     11  C   LIG A   1      -8.519   1.568 126.517  0.00  0.00    +0.053 A 
ATOM     12  C   LIG A   1      -7.570   1.231 125.538  0.00  0.00    -0.043 A 
ATOM     13  C   LIG A   1      -6.210   1.425 125.824  0.00  0.00    +0.007 A 
ATOM     14  O   LIG A   1      -9.098   2.300 128.684  0.00  0.00    -0.485 OA
ATOM     15  C   LIG A   1      -8.551   2.391 130.005  0.00  0.00    +0.270 C 
ATOM     16  C   LIG A   1      -7.344   3.313 130.004  0.00  0.00    +0.270 C 
ATOM     17  O   LIG A   1      -6.286   2.755 129.215  0.00  0.00    -0.485 OA
ENDBRANCH   7  12
ENDBRANCH   1   7
BRANCH   6  18
ATOM     18  C   LIG A   1      -7.920  -3.081 125.181  0.00  0.00    +0.042 C 
BRANCH  18  19
ATOM     19  C   LIG A   1      -7.917  -2.897 126.682  0.00  0.00    -0.043 A 
ATOM     20  C   LIG A   1      -7.041  -1.978 127.280  0.00  0.00    +0.053 A 
ATOM     21  C   LIG A   1      -6.973  -1.865 128.667  0.00  0.00    +0.162 A 
ATOM     22  C   LIG A   1      -7.781  -2.664 129.478  0.00  0.00    +0.162 A 
ATOM     23  C   LIG A   1      -8.691  -3.543 128.894  0.00  0.00    +0.050 A 
ATOM     24  C   LIG A   1      -8.755  -3.664 127.502  0.00  0.00    +0.007 A 
ATOM     25  O   LIG A   1      -7.739  -2.629 130.849  0.00  0.00    -0.485 OA
ATOM     26  C   LIG A   1      -6.592  -1.913 131.325  0.00  0.00    +0.270 C 
ATOM     27  C   LIG A   1      -6.373  -0.641 130.525  0.00  0.00    +0.270 C 
ATOM     28  O   LIG A   1      -6.076  -0.953 129.161  0.00  0.00    -0.485 OA
ENDBRANCH  18  19
ENDBRANCH   6  18
TORSDOF 4
ENDMDL
MODEL 6
REMARK VINA RESULT:      -7.9      5.526      8.413
REMARK  Name = NuBBE_2372
REMARK  4 active torsions:
REMARK  status: ('A' for Active; 'I' for Inactive)
REMARK    1  A    between atoms: C_5  and  C_7
REMARK    2  A    between atoms: C_7  and  C_8
REMARK    3  A    between atoms: C_14  and  C_16
REMARK    4  A    between atoms: C_16  and  C_17
REMARK                            x       y       z     vdW  Elec       q    Type
REMARK                         _______ _______ _______ _____ _____    ______ ____
ROOT
ATOM      1  C   LIG A   1      -7.089  -0.021 129.206  0.00  0.00    +0.109 C 
ATOM      2  C   LIG A   1      -6.077   0.080 130.321  0.00  0.00    +0.311 C 
ATOM      3  O   LIG A   1      -5.056   0.735 130.304  0.00  0.00    -0.251 OA
ATOM      4  O   LIG A   1      -6.480  -0.694 131.377  0.00  0.00    -0.464 OA
ATOM      5  C   LIG A   1      -7.776  -1.242 131.112  0.00  0.00    +0.236 C 
ATOM      6  C   LIG A   1      -7.923  -1.245 129.608  0.00  0.00    +0.045 C 
ENDROOT
BRANCH   1   7
ATOM      7  C   LIG A   1      -7.872   1.292 129.116  0.00  0.00    +0.050 C 
BRANCH   7  12
ATOM      8  C   LIG A   1      -7.933   3.471 125.979  0.00  0.00    +0.050 A 
ATOM      9  C   LIG A   1      -8.582   2.643 125.069  0.00  0.00    +0.162 A 
ATOM     10  C   LIG A   1      -9.022   1.379 125.469  0.00  0.00    +0.162 A 
ATOM     11  C   LIG A   1      -8.768   0.925 126.765  0.00  0.00    +0.053 A 
ATOM     12  C   LIG A   1      -8.124   1.756 127.698  0.00  0.00    -0.043 A 
ATOM     13  C   LIG A   1      -7.705   3.030 127.287  0.00  0.00    +0.007 A 
ATOM     14  O   LIG A   1      -9.703   0.528 124.635  0.00  0.00    -0.485 OA
ATOM     15  C   LIG A   1     -10.240   1.237 123.512  0.00  0.00    +0.270 C 
ATOM     16  C   LIG A   1      -9.165   2.110 122.888  0.00  0.00    +0.270 C 
ATOM     17  O   LIG A   1      -8.761   3.138 123.802  0.00  0.00    -0.485 OA
ENDBRANCH   7  12
ENDBRANCH   1   7
BRANCH   6  18
ATOM     18  C   LIG A   1      -7.374  -2.563 129.011  0.00  0.00    +0.042 C 
BRANCH  18  19
ATOM     19  C   LIG A   1      -7.602  -2.670 127.519  0.00  0.00    -0.043 A 
ATOM     20  C   LIG A   1      -6.617  -2.235 126.620  0.00  0.00    +0.053 A 
ATOM     21  C   LIG A   1      -6.855  -2.251 125.247  0.00  0.00    +0.162 A 
ATOM     22  C   LIG A   1      -8.078  -2.706 124.752  0.00  0.00    +0.162 A 
ATOM     23  C   LIG A   1      -9.043  -3.188 125.632  0.00  0.00    +0.050 A 
ATOM     24  C   LIG A   1      -8.810  -3.165 127.011  0.00  0.00    +0.007 A 
ATOM     25  O   LIG A   1      -8.391  -2.715 123.416  0.00  0.00    -0.485 OA
ATOM     26  C   LIG A   1      -7.454  -1.949 122.648  0.00  0.00    +0.270 C 
ATOM     27  C   LIG A   1      -6.029  -2.221 123.096  0.00  0.00    +0.270 C 
ATOM     28  O   LIG A   1      -5.840  -1.792 124.448  0.00  0.00    -0.485 OA
ENDBRANCH  18  19
ENDBRANCH   6  18
TORSDOF 4
ENDMDL
MODEL 7
REMARK VINA RESULT:      -7.8      5.672      9.287
REMARK  Name = NuBBE_2372
REMARK  4 active torsions:
REMARK  status: ('A' for Active; 'I' for Inactive)
REMARK    1  A    between atoms: C_5  and  C_7
REMARK    2  A    between atoms: C_7  and  C_8
REMARK    3  A    between atoms: C_14  and  C_16
REMARK    4  A    between atoms: C_16  and  C_17
REMARK                            x       y       z     vdW  Elec       q    Type
REMARK                         _______ _______ _______ _____ _____    ______ ____
ROOT
ATOM      1  C   LIG A   1      -8.255  -1.639 124.580  0.00  0.00    +0.109 C 
ATOM      2  C   LIG A   1      -9.234  -2.241 123.602  0.00  0.00    +0.311 C 
ATOM      3  O   LIG A   1     -10.043  -1.632 122.932  0.00  0.00    -0.251 OA
ATOM      4  O   LIG A   1      -9.082  -3.602 123.580  0.00  0.00    -0.464 OA
ATOM      5  C   LIG A   1      -7.972  -3.981 124.400  0.00  0.00    +0.236 C 
ATOM      6  C   LIG A   1      -7.790  -2.856 125.392  0.00  0.00    +0.045 C 
ENDROOT
BRANCH   1   7
ATOM      7  C   LIG A   1      -7.148  -0.918 123.805  0.00  0.00    +0.050 C 
BRANCH   7  12
ATOM      8  C   LIG A   1      -5.187   1.253 126.261  0.00  0.00    +0.050 A 
ATOM      9  C   LIG A   1      -5.556   2.535 125.866  0.00  0.00    +0.162 A 
ATOM     10  C   LIG A   1      -6.458   2.706 124.813  0.00  0.00    +0.162 A 
ATOM     11  C   LIG A   1      -6.951   1.596 124.124  0.00  0.00    +0.053 A 
ATOM     12  C   LIG A   1      -6.595   0.296 124.520  0.00  0.00    -0.043 A 
ATOM     13  C   LIG A   1      -5.703   0.139 125.591  0.00  0.00    +0.007 A 
ATOM     14  O   LIG A   1      -6.896   3.939 124.399  0.00  0.00    -0.485 OA
ATOM     15  C   LIG A   1      -6.651   4.931 125.404  0.00  0.00    +0.270 C 
ATOM     16  C   LIG A   1      -5.216   4.829 125.893  0.00  0.00    +0.270 C 
ATOM     17  O   LIG A   1      -5.001   3.580 126.562  0.00  0.00    -0.485 OA
ENDBRANCH   7  12
ENDBRANCH   1   7
BRANCH   6  18
ATOM     18  C   LIG A   1      -8.653  -3.096 126.654  0.00  0.00    +0.042 C 
BRANCH  18  19
ATOM     19  C   LIG A   1      -7.881  -2.896 127.939  0.00  0.00    -0.043 A 
ATOM     20  C   LIG A   1      -6.579  -2.375 127.908  0.00  0.00    +0.053 A 
ATOM     21  C   LIG A   1      -5.831  -2.268 129.079  0.00  0.00    +0.162 A 
ATOM     22  C   LIG A   1      -6.374  -2.675 130.299  0.00  0.00    +0.162 A 
ATOM     23  C   LIG A   1      -7.684  -3.146 130.349  0.00  0.00    +0.050 A 
ATOM     24  C   LIG A   1      -8.434  -3.262 129.174  0.00  0.00    +0.007 A 
ATOM     25  O   LIG A   1      -5.682  -2.630 131.482  0.00  0.00    -0.485 OA
ATOM     26  C   LIG A   1      -4.283  -2.403 131.268  0.00  0.00    +0.270 C 
ATOM     27  C   LIG A   1      -4.059  -1.332 130.216  0.00  0.00    +0.270 C 
ATOM     28  O   LIG A   1      -4.563  -1.763 128.948  0.00  0.00    -0.485 OA
ENDBRANCH  18  19
ENDBRANCH   6  18
TORSDOF 4
ENDMDL
MODEL 8
REMARK VINA RESULT:      -7.8      1.201      5.500
REMARK  Name = NuBBE_2372
REMARK  4 active torsions:
REMARK  status: ('A' for Active; 'I' for Inactive)
REMARK    1  A    between atoms: C_5  and  C_7
REMARK    2  A    between atoms: C_7  and  C_8
REMARK    3  A    between atoms: C_14  and  C_16
REMARK    4  A    between atoms: C_16  and  C_17
REMARK                            x       y       z     vdW  Elec       q    Type
REMARK                         _______ _______ _______ _____ _____    ______ ____
ROOT
ATOM      1  C   LIG A   1      -3.436   7.005 131.436  0.00  0.00    +0.109 C 
ATOM      2  C   LIG A   1      -2.413   7.891 132.104  0.00  0.00    +0.311 C 
ATOM      3  O   LIG A   1      -2.611   9.001 132.552  0.00  0.00    -0.251 OA
ATOM      4  O   LIG A   1      -1.201   7.252 132.130  0.00  0.00    -0.464 OA
ATOM      5  C   LIG A   1      -1.341   5.921 131.622  0.00  0.00    +0.236 C 
ATOM      6  C   LIG A   1      -2.571   5.942 130.744  0.00  0.00    +0.045 C 
ENDROOT
BRANCH   1   7
ATOM      7  C   LIG A   1      -4.401   6.462 132.494  0.00  0.00    +0.050 C 
BRANCH   7  12
ATOM      8  C   LIG A   1      -7.804   6.591 130.765  0.00  0.00    +0.050 A 
ATOM      9  C   LIG A   1      -8.239   5.276 130.893  0.00  0.00    +0.162 A 
ATOM     10  C   LIG A   1      -7.442   4.341 131.557  0.00  0.00    +0.162 A 
ATOM     11  C   LIG A   1      -6.189   4.710 132.049  0.00  0.00    +0.053 A 
ATOM     12  C   LIG A   1      -5.742   6.038 131.936  0.00  0.00    -0.043 A 
ATOM     13  C   LIG A   1      -6.562   6.970 131.283  0.00  0.00    +0.007 A 
ATOM     14  O   LIG A   1      -7.828   3.038 131.755  0.00  0.00    -0.485 OA
ATOM     15  C   LIG A   1      -9.242   2.893 131.577  0.00  0.00    +0.270 C 
ATOM     16  C   LIG A   1      -9.673   3.558 130.281  0.00  0.00    +0.270 C 
ATOM     17  O   LIG A   1      -9.463   4.975 130.349  0.00  0.00    -0.485 OA
ENDBRANCH   7  12
ENDBRANCH   1   7
BRANCH   6  18
ATOM     18  C   LIG A   1      -2.197   6.330 129.293  0.00  0.00    +0.042 C 
BRANCH  18  19
ATOM     19  C   LIG A   1      -2.858   5.444 128.261  0.00  0.00    -0.043 A 
ATOM     20  C   LIG A   1      -4.030   5.864 127.615  0.00  0.00    +0.053 A 
ATOM     21  C   LIG A   1      -4.692   5.019 126.727  0.00  0.00    +0.162 A 
ATOM     22  C   LIG A   1      -4.190   3.742 126.468  0.00  0.00    +0.162 A 
ATOM     23  C   LIG A   1      -3.000   3.333 127.064  0.00  0.00    +0.050 A 
ATOM     24  C   LIG A   1      -2.339   4.178 127.962  0.00  0.00    +0.007 A 
ATOM     25  O   LIG A   1      -4.810   2.846 125.633  0.00  0.00    -0.485 OA
ATOM     26  C   LIG A   1      -6.142   3.261 125.308  0.00  0.00    +0.270 C 
ATOM     27  C   LIG A   1      -6.192   4.746 124.999  0.00  0.00    +0.270 C 
ATOM     28  O   LIG A   1      -5.838   5.510 126.156  0.00  0.00    -0.485 OA
ENDBRANCH  18  19
ENDBRANCH   6  18
TORSDOF 4
ENDMDL
MODEL 9
REMARK VINA RESULT:      -7.6      5.314      9.233
REMARK  Name = NuBBE_2372
REMARK  4 active torsions:
REMARK  status: ('A' for Active; 'I' for Inactive)
REMARK    1  A    between atoms: C_5  and  C_7
REMARK    2  A    between atoms: C_7  and  C_8
REMARK    3  A    between atoms: C_14  and  C_16
REMARK    4  A    between atoms: C_16  and  C_17
REMARK                            x       y       z     vdW  Elec       q    Type
REMARK                         _______ _______ _______ _____ _____    ______ ____
ROOT
ATOM      1  C   LIG A   1      -8.353  -0.514 124.401  0.00  0.00    +0.109 C 
ATOM      2  C   LIG A   1      -9.508  -0.400 123.437  0.00  0.00    +0.311 C 
ATOM      3  O   LIG A   1     -10.140   0.606 123.193  0.00  0.00    -0.251 OA
ATOM      4  O   LIG A   1      -9.751  -1.622 122.867  0.00  0.00    -0.464 OA
ATOM      5  C   LIG A   1      -8.757  -2.562 123.289  0.00  0.00    +0.236 C 
ATOM      6  C   LIG A   1      -8.215  -2.030 124.596  0.00  0.00    +0.045 C 
ENDROOT
BRANCH   1   7
ATOM      7  C   LIG A   1      -7.124   0.174 123.798  0.00  0.00    +0.050 C 
BRANCH   7  12
ATOM      8  C   LIG A   1      -6.625   3.835 124.766  0.00  0.00    +0.050 A 
ATOM      9  C   LIG A   1      -5.881   3.722 125.936  0.00  0.00    +0.162 A 
ATOM     10  C   LIG A   1      -5.519   2.459 126.411  0.00  0.00    +0.162 A 
ATOM     11  C   LIG A   1      -5.944   1.310 125.743  0.00  0.00    +0.053 A 
ATOM     12  C   LIG A   1      -6.685   1.410 124.554  0.00  0.00    -0.043 A 
ATOM     13  C   LIG A   1      -7.026   2.685 124.078  0.00  0.00    +0.007 A 
ATOM     14  O   LIG A   1      -4.752   2.277 127.535  0.00  0.00    -0.485 OA
ATOM     15  C   LIG A   1      -4.064   3.484 127.884  0.00  0.00    +0.270 C 
ATOM     16  C   LIG A   1      -5.035   4.652 127.885  0.00  0.00    +0.270 C 
ATOM     17  O   LIG A   1      -5.533   4.893 126.563  0.00  0.00    -0.485 OA
ENDBRANCH   7  12
ENDBRANCH   1   7
BRANCH   6  18
ATOM     18  C   LIG A   1      -9.050  -2.557 125.787  0.00  0.00    +0.042 C 
BRANCH  18  19
ATOM     19  C   LIG A   1      -8.232  -2.723 127.048  0.00  0.00    -0.043 A 
ATOM     20  C   LIG A   1      -6.952  -2.156 127.141  0.00  0.00    +0.053 A 
ATOM     21  C   LIG A   1      -6.159  -2.377 128.265  0.00  0.00    +0.162 A 
ATOM     22  C   LIG A   1      -6.634  -3.164 129.315  0.00  0.00    +0.162 A 
ATOM     23  C   LIG A   1      -7.922  -3.691 129.256  0.00  0.00    +0.050 A 
ATOM     24  C   LIG A   1      -8.716  -3.477 128.125  0.00  0.00    +0.007 A 
ATOM     25  O   LIG A   1      -5.893  -3.451 130.434  0.00  0.00    -0.485 OA
ATOM     26  C   LIG A   1      -4.514  -3.101 130.259  0.00  0.00    +0.270 C 
ATOM     27  C   LIG A   1      -4.376  -1.749 129.583  0.00  0.00    +0.270 C 
ATOM     28  O   LIG A   1      -4.917  -1.795 128.259  0.00  0.00    -0.485 OA
ENDBRANCH  18  19
ENDBRANCH   6  18
TORSDOF 4
ENDMDL
