MODEL 1
REMARK VINA RESULT:      -9.5      0.000      0.000
REMARK  Name = NuBBE_392
REMARK  18 active torsions:
REMARK  status: ('A' for Active; 'I' for Inactive)
REMARK    1  A    between atoms: C_1  and  C_2
REMARK    2  A    between atoms: C_5  and  O_9
REMARK    3  A    between atoms: O_9  and  C_10
REMARK    4  A    between atoms: C_13  and  C_21
REMARK    5  A    between atoms: C_15  and  O_20
REMARK    6  A    between atoms: C_17  and  O_19
REMARK    7  A    between atoms: C_21  and  O_22
REMARK    8  A    between atoms: C_23  and  O_25
REMARK    9  A    between atoms: C_34  and  C_53
REMARK   10  A    between atoms: C_39  and  C_41
REMARK   11  A    between atoms: C_41  and  C_43
REMARK   12  A    between atoms: C_41  and  C_52
REMARK   13  A    between atoms: C_44  and  C_45
REMARK   14  A    between atoms: C_45  and  C_47
REMARK   15  A    between atoms: C_45  and  C_50
REMARK   16  A    between atoms: C_47  and  C_48
REMARK   17  A    between atoms: C_47  and  C_49
REMARK   18  A    between atoms: C_50  and  C_51
REMARK                            x       y       z     vdW  Elec       q    Type
REMARK                         _______ _______ _______ _____ _____    ______ ____
ROOT
ATOM      1  C   LIG A   1      -3.923   1.697 133.230  0.00  0.00    +0.016 C 
ATOM      2  C   LIG A   1      -5.379   1.880 132.725  0.00  0.00    -0.008 C 
ATOM      3  C   LIG A   1      -5.442   3.107 131.822  0.00  0.00    -0.065 C 
ATOM      4  C   LIG A   1      -5.903   4.427 132.408  0.00  0.00    +0.062 C 
ATOM      5  C   LIG A   1      -7.132   4.366 133.340  0.00  0.00    +0.126 C 
ATOM      6  C   LIG A   1      -7.468   2.953 133.820  0.00  0.00    +0.033 C 
ATOM      7  C   LIG A   1      -6.248   2.060 134.000  0.00  0.00    +0.013 C 
ATOM      8  C   LIG A   1      -5.073   3.007 130.540  0.00  0.00    -0.027 C 
ATOM      9  C   LIG A   1      -4.616   1.735 129.879  0.00  0.00    +0.031 C 
ATOM     10  C   LIG A   1      -4.908   0.402 130.628  0.00  0.00    +0.000 C 
ATOM     11  C   LIG A   1      -5.809   0.607 131.878  0.00  0.00    +0.003 C 
ATOM     12  C   LIG A   1      -7.295   0.639 131.477  0.00  0.00    +0.005 C 
ATOM     13  C   LIG A   1      -7.720  -0.559 130.648  0.00  0.00    +0.007 C 
ATOM     14  C   LIG A   1      -6.920  -0.778 129.343  0.00  0.00    -0.026 C 
ATOM     15  C   LIG A   1      -5.391  -0.710 129.644  0.00  0.00    -0.001 C 
ATOM     16  C   LIG A   1      -5.070  -2.144 130.077  0.00  0.00    +0.004 C 
ATOM     17  C   LIG A   1      -5.818  -2.972 129.029  0.00  0.00    +0.005 C 
ATOM     18  C   LIG A   1      -7.192  -2.283 128.904  0.00  0.00    +0.002 C 
ATOM     19  C   LIG A   1      -7.276   0.296 128.305  0.00  0.00    +0.012 C 
ENDROOT
BRANCH  18  20
ATOM     20  C   LIG A   1      -8.033  -2.599 127.623  0.00  0.00    +0.012 C 
ATOM     21  C   LIG A   1      -8.909  -3.854 127.830  0.00  0.00    +0.012 C 
BRANCH  20  22
ATOM     22  C   LIG A   1      -7.226  -2.761 126.345  0.00  0.00    -0.027 C 
ATOM     23  C   LIG A   1      -6.769  -1.781 125.561  0.00  0.00    -0.027 C 
BRANCH  23  24
ATOM     24  C   LIG A   1      -5.961  -2.008 124.272  0.00  0.00    +0.014 C 
BRANCH  24  25
ATOM     25  C   LIG A   1      -6.628  -1.302 123.041  0.00  0.00    -0.010 C 
ATOM     26  C   LIG A   1      -7.927  -2.011 122.618  0.00  0.00    +0.008 C 
ATOM     27  C   LIG A   1      -7.004   0.171 123.256  0.00  0.00    +0.008 C 
ENDBRANCH  24  25
BRANCH  24  28
ATOM     28  C   LIG A   1      -5.735  -3.540 124.141  0.00  0.00    +0.004 C 
ATOM     29  C   LIG A   1      -4.394  -4.008 123.600  0.00  0.00    +0.004 C 
ENDBRANCH  24  28
ENDBRANCH  23  24
ENDBRANCH  20  22
ENDBRANCH  18  20
BRANCH   5  30
ATOM     30  O   LIG A   1      -8.277   5.014 132.744  0.00  0.00    -0.345 OA
BRANCH  30  31
ATOM     31  C   LIG A   1      -8.087   5.478 131.395  0.00  0.00    +0.282 C 
ATOM     32  O   LIG A   1      -8.725   6.754 131.206  0.00  0.00    -0.341 OA
ATOM     33  C   LIG A   1     -10.133   6.740 130.926  0.00  0.00    +0.178 C 
ATOM     34  C   LIG A   1     -10.467   5.825 129.739  0.00  0.00    +0.177 C 
ATOM     35  C   LIG A   1      -9.948   4.404 129.973  0.00  0.00    +0.179 C 
ATOM     36  C   LIG A   1      -8.447   4.444 130.290  0.00  0.00    +0.201 C 
BRANCH  35  37
ATOM     37  O   LIG A   1     -10.705   3.758 130.994  0.00  0.00    -0.386 OA
ATOM     38  H   LIG A   1     -10.556   2.798 130.920  0.00  0.00    +0.210 HD
ENDBRANCH  35  37
BRANCH  34  39
ATOM     39  O   LIG A   1      -9.839   6.337 128.546  0.00  0.00    -0.387 OA
ATOM     40  H   LIG A   1     -10.011   5.697 127.830  0.00  0.00    +0.210 HD
ENDBRANCH  34  39
BRANCH  36  41
ATOM     41  O   LIG A   1      -7.707   4.727 129.089  0.00  0.00    -0.384 OA
ATOM     42  H   LIG A   1      -7.697   3.894 128.569  0.00  0.00    +0.210 HD
ENDBRANCH  36  41
BRANCH  33  43
ATOM     43  C   LIG A   1     -10.973   6.445 132.174  0.00  0.00    +0.190 C 
BRANCH  43  44
ATOM     44  O   LIG A   1     -12.327   6.198 131.797  0.00  0.00    -0.392 OA
ATOM     45  H   LIG A   1     -12.558   6.920 131.180  0.00  0.00    +0.209 HD
ENDBRANCH  43  44
ENDBRANCH  33  43
ENDBRANCH  30  31
ENDBRANCH   5  30
TORSDOF 12
ENDMDL
MODEL 2
REMARK VINA RESULT:      -9.5      1.071      2.330
REMARK  Name = NuBBE_392
REMARK  18 active torsions:
REMARK  status: ('A' for Active; 'I' for Inactive)
REMARK    1  A    between atoms: C_1  and  C_2
REMARK    2  A    between atoms: C_5  and  O_9
REMARK    3  A    between atoms: O_9  and  C_10
REMARK    4  A    between atoms: C_13  and  C_21
REMARK    5  A    between atoms: C_15  and  O_20
REMARK    6  A    between atoms: C_17  and  O_19
REMARK    7  A    between atoms: C_21  and  O_22
REMARK    8  A    between atoms: C_23  and  O_25
REMARK    9  A    between atoms: C_34  and  C_53
REMARK   10  A    between atoms: C_39  and  C_41
REMARK   11  A    between atoms: C_41  and  C_43
REMARK   12  A    between atoms: C_41  and  C_52
REMARK   13  A    between atoms: C_44  and  C_45
REMARK   14  A    between atoms: C_45  and  C_47
REMARK   15  A    between atoms: C_45  and  C_50
REMARK   16  A    between atoms: C_47  and  C_48
REMARK   17  A    between atoms: C_47  and  C_49
REMARK   18  A    between atoms: C_50  and  C_51
REMARK                            x       y       z     vdW  Elec       q    Type
REMARK                         _______ _______ _______ _____ _____    ______ ____
ROOT
ATOM      1  C   LIG A   1      -3.603   1.186 133.121  0.00  0.00    +0.016 C 
ATOM      2  C   LIG A   1      -4.981   1.605 132.541  0.00  0.00    -0.008 C 
ATOM      3  C   LIG A   1      -4.764   2.648 131.450  0.00  0.00    -0.065 C 
ATOM      4  C   LIG A   1      -4.912   4.116 131.798  0.00  0.00    +0.062 C 
ATOM      5  C   LIG A   1      -6.119   4.489 132.683  0.00  0.00    +0.126 C 
ATOM      6  C   LIG A   1      -6.768   3.288 133.374  0.00  0.00    +0.033 C 
ATOM      7  C   LIG A   1      -5.783   2.186 133.739  0.00  0.00    +0.013 C 
ATOM      8  C   LIG A   1      -4.431   2.257 130.215  0.00  0.00    -0.027 C 
ATOM      9  C   LIG A   1      -4.277   0.823 129.786  0.00  0.00    +0.031 C 
ATOM     10  C   LIG A   1      -4.864  -0.267 130.730  0.00  0.00    +0.000 C 
ATOM     11  C   LIG A   1      -5.692   0.340 131.897  0.00  0.00    +0.003 C 
ATOM     12  C   LIG A   1      -7.132   0.639 131.444  0.00  0.00    +0.005 C 
ATOM     13  C   LIG A   1      -7.821  -0.553 130.805  0.00  0.00    +0.007 C 
ATOM     14  C   LIG A   1      -7.095  -1.160 129.582  0.00  0.00    -0.026 C 
ATOM     15  C   LIG A   1      -5.590  -1.389 129.922  0.00  0.00    -0.001 C 
ATOM     16  C   LIG A   1      -5.604  -2.767 130.593  0.00  0.00    +0.004 C 
ATOM     17  C   LIG A   1      -6.523  -3.567 129.667  0.00  0.00    +0.005 C 
ATOM     18  C   LIG A   1      -7.704  -2.617 129.383  0.00  0.00    +0.002 C 
ATOM     19  C   LIG A   1      -7.200  -0.221 128.372  0.00  0.00    +0.012 C 
ENDROOT
BRANCH  18  20
ATOM     20  C   LIG A   1      -8.597  -2.943 128.141  0.00  0.00    +0.012 C 
ATOM     21  C   LIG A   1      -9.332  -4.289 128.325  0.00  0.00    +0.012 C 
BRANCH  20  22
ATOM     22  C   LIG A   1      -7.869  -2.951 126.806  0.00  0.00    -0.027 C 
ATOM     23  C   LIG A   1      -8.181  -3.684 125.734  0.00  0.00    -0.027 C 
BRANCH  23  24
ATOM     24  C   LIG A   1      -7.400  -3.653 124.409  0.00  0.00    +0.014 C 
BRANCH  24  25
ATOM     25  C   LIG A   1      -5.952  -3.085 124.606  0.00  0.00    -0.010 C 
ATOM     26  C   LIG A   1      -4.903  -3.946 123.879  0.00  0.00    +0.008 C 
ATOM     27  C   LIG A   1      -5.738  -1.651 124.105  0.00  0.00    +0.008 C 
ENDBRANCH  24  25
BRANCH  24  28
ATOM     28  C   LIG A   1      -8.290  -2.911 123.374  0.00  0.00    +0.004 C 
ATOM     29  C   LIG A   1      -9.755  -3.308 123.294  0.00  0.00    +0.004 C 
ENDBRANCH  24  28
ENDBRANCH  23  24
ENDBRANCH  20  22
ENDBRANCH  18  20
BRANCH   5  30
ATOM     30  O   LIG A   1      -7.088   5.271 131.950  0.00  0.00    -0.345 OA
BRANCH  30  31
ATOM     31  C   LIG A   1      -8.465   4.939 132.206  0.00  0.00    +0.282 C 
ATOM     32  O   LIG A   1      -8.905   3.893 131.320  0.00  0.00    -0.341 OA
ATOM     33  C   LIG A   1      -9.321   4.290 130.004  0.00  0.00    +0.178 C 
ATOM     34  C   LIG A   1     -10.386   5.395 130.054  0.00  0.00    +0.177 C 
ATOM     35  C   LIG A   1      -9.892   6.604 130.853  0.00  0.00    +0.179 C 
ATOM     36  C   LIG A   1      -9.435   6.155 132.247  0.00  0.00    +0.201 C 
BRANCH  35  37
ATOM     37  O   LIG A   1      -8.869   7.291 130.137  0.00  0.00    -0.386 OA
ATOM     38  H   LIG A   1      -8.613   8.076 130.654  0.00  0.00    +0.210 HD
ENDBRANCH  35  37
BRANCH  34  39
ATOM     39  O   LIG A   1     -11.572   4.889 130.700  0.00  0.00    -0.387 OA
ATOM     40  H   LIG A   1     -12.124   4.475 130.010  0.00  0.00    +0.210 HD
ENDBRANCH  34  39
BRANCH  36  41
ATOM     41  O   LIG A   1     -10.584   5.842 133.055  0.00  0.00    -0.384 OA
ATOM     42  H   LIG A   1     -11.195   5.334 132.479  0.00  0.00    +0.210 HD
ENDBRANCH  36  41
BRANCH  33  43
ATOM     43  C   LIG A   1      -8.134   4.634 129.097  0.00  0.00    +0.190 C 
BRANCH  43  44
ATOM     44  O   LIG A   1      -8.607   5.212 127.881  0.00  0.00    -0.392 OA
ATOM     45  H   LIG A   1      -9.326   4.622 127.579  0.00  0.00    +0.209 HD
ENDBRANCH  43  44
ENDBRANCH  33  43
ENDBRANCH  30  31
ENDBRANCH   5  30
TORSDOF 12
ENDMDL
MODEL 3
REMARK VINA RESULT:      -9.3      2.713      5.076
REMARK  Name = NuBBE_392
REMARK  18 active torsions:
REMARK  status: ('A' for Active; 'I' for Inactive)
REMARK    1  A    between atoms: C_1  and  C_2
REMARK    2  A    between atoms: C_5  and  O_9
REMARK    3  A    between atoms: O_9  and  C_10
REMARK    4  A    between atoms: C_13  and  C_21
REMARK    5  A    between atoms: C_15  and  O_20
REMARK    6  A    between atoms: C_17  and  O_19
REMARK    7  A    between atoms: C_21  and  O_22
REMARK    8  A    between atoms: C_23  and  O_25
REMARK    9  A    between atoms: C_34  and  C_53
REMARK   10  A    between atoms: C_39  and  C_41
REMARK   11  A    between atoms: C_41  and  C_43
REMARK   12  A    between atoms: C_41  and  C_52
REMARK   13  A    between atoms: C_44  and  C_45
REMARK   14  A    between atoms: C_45  and  C_47
REMARK   15  A    between atoms: C_45  and  C_50
REMARK   16  A    between atoms: C_47  and  C_48
REMARK   17  A    between atoms: C_47  and  C_49
REMARK   18  A    between atoms: C_50  and  C_51
REMARK                            x       y       z     vdW  Elec       q    Type
REMARK                         _______ _______ _______ _____ _____    ______ ____
ROOT
ATOM      1  C   LIG A   1      -7.511  -1.072 131.704  0.00  0.00    +0.016 C 
ATOM      2  C   LIG A   1      -7.219   0.030 130.651  0.00  0.00    -0.008 C 
ATOM      3  C   LIG A   1      -5.730   0.360 130.677  0.00  0.00    -0.065 C 
ATOM      4  C   LIG A   1      -5.258   1.558 131.477  0.00  0.00    +0.062 C 
ATOM      5  C   LIG A   1      -6.104   2.842 131.344  0.00  0.00    +0.126 C 
ATOM      6  C   LIG A   1      -7.483   2.606 130.724  0.00  0.00    +0.033 C 
ATOM      7  C   LIG A   1      -8.085   1.251 131.066  0.00  0.00    +0.013 C 
ATOM      8  C   LIG A   1      -4.866  -0.418 130.016  0.00  0.00    -0.027 C 
ATOM      9  C   LIG A   1      -5.253  -1.616 129.191  0.00  0.00    +0.031 C 
ATOM     10  C   LIG A   1      -6.756  -1.759 128.810  0.00  0.00    +0.000 C 
ATOM     11  C   LIG A   1      -7.591  -0.509 129.204  0.00  0.00    +0.003 C 
ATOM     12  C   LIG A   1      -7.481   0.581 128.122  0.00  0.00    +0.005 C 
ATOM     13  C   LIG A   1      -7.812   0.081 126.729  0.00  0.00    +0.007 C 
ATOM     14  C   LIG A   1      -6.961  -1.113 126.235  0.00  0.00    -0.026 C 
ATOM     15  C   LIG A   1      -6.925  -2.224 127.329  0.00  0.00    -0.001 C 
ATOM     16  C   LIG A   1      -8.203  -3.020 127.041  0.00  0.00    +0.004 C 
ATOM     17  C   LIG A   1      -8.161  -3.156 125.517  0.00  0.00    +0.005 C 
ATOM     18  C   LIG A   1      -7.761  -1.753 125.017  0.00  0.00    +0.002 C 
ATOM     19  C   LIG A   1      -5.526  -0.662 125.929  0.00  0.00    +0.012 C 
ENDROOT
BRANCH  18  20
ATOM     20  C   LIG A   1      -7.206  -1.649 123.558  0.00  0.00    +0.012 C 
ATOM     21  C   LIG A   1      -5.932  -2.506 123.387  0.00  0.00    +0.012 C 
BRANCH  20  22
ATOM     22  C   LIG A   1      -6.923  -0.236 123.074  0.00  0.00    -0.027 C 
ATOM     23  C   LIG A   1      -7.648   0.855 123.336  0.00  0.00    -0.027 C 
BRANCH  23  24
ATOM     24  C   LIG A   1      -7.314   2.262 122.811  0.00  0.00    +0.014 C 
BRANCH  24  25
ATOM     25  C   LIG A   1      -6.487   3.087 123.858  0.00  0.00    -0.010 C 
ATOM     26  C   LIG A   1      -5.621   4.161 123.175  0.00  0.00    +0.008 C 
ATOM     27  C   LIG A   1      -7.322   3.828 124.912  0.00  0.00    +0.008 C 
ENDBRANCH  24  25
BRANCH  24  28
ATOM     28  C   LIG A   1      -8.650   2.900 122.340  0.00  0.00    +0.004 C 
ATOM     29  C   LIG A   1      -8.650   3.624 121.002  0.00  0.00    +0.004 C 
ENDBRANCH  24  28
ENDBRANCH  23  24
ENDBRANCH  20  22
ENDBRANCH  18  20
BRANCH   5  30
ATOM     30  O   LIG A   1      -5.378   3.882 130.651  0.00  0.00    -0.345 OA
BRANCH  30  31
ATOM     31  C   LIG A   1      -4.223   3.438 129.916  0.00  0.00    +0.282 C 
ATOM     32  O   LIG A   1      -3.121   4.342 130.114  0.00  0.00    -0.341 OA
ATOM     33  C   LIG A   1      -3.096   5.524 129.299  0.00  0.00    +0.178 C 
ATOM     34  C   LIG A   1      -3.213   5.187 127.806  0.00  0.00    +0.177 C 
ATOM     35  C   LIG A   1      -4.470   4.360 127.522  0.00  0.00    +0.179 C 
ATOM     36  C   LIG A   1      -4.486   3.113 128.417  0.00  0.00    +0.201 C 
BRANCH  35  37
ATOM     37  O   LIG A   1      -5.640   5.160 127.679  0.00  0.00    -0.386 OA
ATOM     38  H   LIG A   1      -5.862   5.545 126.812  0.00  0.00    +0.210 HD
ENDBRANCH  35  37
BRANCH  34  39
ATOM     39  O   LIG A   1      -2.069   4.409 127.397  0.00  0.00    -0.387 OA
ATOM     40  H   LIG A   1      -1.349   5.037 127.198  0.00  0.00    +0.210 HD
ENDBRANCH  34  39
BRANCH  36  41
ATOM     41  O   LIG A   1      -3.516   2.164 127.940  0.00  0.00    -0.384 OA
ATOM     42  H   LIG A   1      -2.833   2.685 127.465  0.00  0.00    +0.210 HD
ENDBRANCH  36  41
BRANCH  33  43
ATOM     43  C   LIG A   1      -4.111   6.574 129.765  0.00  0.00    +0.190 C 
BRANCH  43  44
ATOM     44  O   LIG A   1      -4.220   7.607 128.786  0.00  0.00    -0.392 OA
ATOM     45  H   LIG A   1      -4.561   7.166 127.984  0.00  0.00    +0.209 HD
ENDBRANCH  43  44
ENDBRANCH  33  43
ENDBRANCH  30  31
ENDBRANCH   5  30
TORSDOF 12
ENDMDL
MODEL 4
REMARK VINA RESULT:      -8.9      1.332      2.028
REMARK  Name = NuBBE_392
REMARK  18 active torsions:
REMARK  status: ('A' for Active; 'I' for Inactive)
REMARK    1  A    between atoms: C_1  and  C_2
REMARK    2  A    between atoms: C_5  and  O_9
REMARK    3  A    between atoms: O_9  and  C_10
REMARK    4  A    between atoms: C_13  and  C_21
REMARK    5  A    between atoms: C_15  and  O_20
REMARK    6  A    between atoms: C_17  and  O_19
REMARK    7  A    between atoms: C_21  and  O_22
REMARK    8  A    between atoms: C_23  and  O_25
REMARK    9  A    between atoms: C_34  and  C_53
REMARK   10  A    between atoms: C_39  and  C_41
REMARK   11  A    between atoms: C_41  and  C_43
REMARK   12  A    between atoms: C_41  and  C_52
REMARK   13  A    between atoms: C_44  and  C_45
REMARK   14  A    between atoms: C_45  and  C_47
REMARK   15  A    between atoms: C_45  and  C_50
REMARK   16  A    between atoms: C_47  and  C_48
REMARK   17  A    between atoms: C_47  and  C_49
REMARK   18  A    between atoms: C_50  and  C_51
REMARK                            x       y       z     vdW  Elec       q    Type
REMARK                         _______ _______ _______ _____ _____    ______ ____
ROOT
ATOM      1  C   LIG A   1      -3.742   4.166 131.560  0.00  0.00    +0.016 C 
ATOM      2  C   LIG A   1      -5.273   3.928 131.471  0.00  0.00    -0.008 C 
ATOM      3  C   LIG A   1      -5.862   4.863 130.421  0.00  0.00    -0.065 C 
ATOM      4  C   LIG A   1      -6.493   6.167 130.870  0.00  0.00    +0.062 C 
ATOM      5  C   LIG A   1      -7.406   6.089 132.112  0.00  0.00    +0.126 C 
ATOM      6  C   LIG A   1      -7.244   4.796 132.913  0.00  0.00    +0.033 C 
ATOM      7  C   LIG A   1      -5.829   4.234 132.889  0.00  0.00    +0.013 C 
ATOM      8  C   LIG A   1      -5.797   4.533 129.127  0.00  0.00    -0.027 C 
ATOM      9  C   LIG A   1      -5.200   3.256 128.600  0.00  0.00    +0.031 C 
ATOM     10  C   LIG A   1      -4.952   2.112 129.627  0.00  0.00    +0.000 C 
ATOM     11  C   LIG A   1      -5.551   2.429 131.026  0.00  0.00    +0.003 C 
ATOM     12  C   LIG A   1      -7.047   2.067 131.071  0.00  0.00    +0.005 C 
ATOM     13  C   LIG A   1      -7.335   0.645 130.628  0.00  0.00    +0.007 C 
ATOM     14  C   LIG A   1      -6.841   0.282 129.208  0.00  0.00    -0.026 C 
ATOM     15  C   LIG A   1      -5.355   0.723 129.038  0.00  0.00    -0.001 C 
ATOM     16  C   LIG A   1      -4.583  -0.471 129.609  0.00  0.00    +0.004 C 
ATOM     17  C   LIG A   1      -5.321  -1.659 128.987  0.00  0.00    +0.005 C 
ATOM     18  C   LIG A   1      -6.814  -1.308 129.142  0.00  0.00    +0.002 C 
ATOM     19  C   LIG A   1      -7.698   0.981 128.143  0.00  0.00    +0.012 C 
ENDROOT
BRANCH  18  20
ATOM     20  C   LIG A   1      -7.826  -2.084 128.235  0.00  0.00    +0.012 C 
ATOM     21  C   LIG A   1      -8.512  -3.224 129.020  0.00  0.00    +0.012 C 
BRANCH  20  22
ATOM     22  C   LIG A   1      -7.241  -2.646 126.949  0.00  0.00    -0.027 C 
ATOM     23  C   LIG A   1      -7.885  -2.823 125.793  0.00  0.00    -0.027 C 
BRANCH  23  24
ATOM     24  C   LIG A   1      -7.239  -3.404 124.523  0.00  0.00    +0.014 C 
BRANCH  24  25
ATOM     25  C   LIG A   1      -5.847  -2.743 124.230  0.00  0.00    -0.010 C 
ATOM     26  C   LIG A   1      -4.763  -3.802 123.960  0.00  0.00    +0.008 C 
ATOM     27  C   LIG A   1      -5.815  -1.793 123.025  0.00  0.00    +0.008 C 
ENDBRANCH  24  25
BRANCH  24  28
ATOM     28  C   LIG A   1      -8.295  -3.303 123.389  0.00  0.00    +0.004 C 
ATOM     29  C   LIG A   1      -9.762  -3.322 123.790  0.00  0.00    +0.004 C 
ENDBRANCH  24  28
ENDBRANCH  23  24
ENDBRANCH  20  22
ENDBRANCH  18  20
BRANCH   5  30
ATOM     30  O   LIG A   1      -8.787   6.334 131.766  0.00  0.00    -0.345 OA
BRANCH  30  31
ATOM     31  C   LIG A   1      -9.049   6.495 130.360  0.00  0.00    +0.282 C 
ATOM     32  O   LIG A   1      -9.990   7.561 130.141  0.00  0.00    -0.341 OA
ATOM     33  C   LIG A   1     -11.382   7.239 130.289  0.00  0.00    +0.178 C 
ATOM     34  C   LIG A   1     -11.779   6.029 129.433  0.00  0.00    +0.177 C 
ATOM     35  C   LIG A   1     -10.905   4.813 129.755  0.00  0.00    +0.179 C 
ATOM     36  C   LIG A   1      -9.423   5.184 129.610  0.00  0.00    +0.201 C 
BRANCH  35  37
ATOM     37  O   LIG A   1     -11.216   4.303 131.049  0.00  0.00    -0.386 OA
ATOM     38  H   LIG A   1     -10.490   4.543 131.652  0.00  0.00    +0.210 HD
ENDBRANCH  35  37
BRANCH  34  39
ATOM     39  O   LIG A   1     -11.600   6.347 128.038  0.00  0.00    -0.387 OA
ATOM     40  H   LIG A   1     -10.783   6.875 127.963  0.00  0.00    +0.210 HD
ENDBRANCH  34  39
BRANCH  36  41
ATOM     41  O   LIG A   1      -9.089   5.302 128.215  0.00  0.00    -0.384 OA
ATOM     42  H   LIG A   1      -8.326   4.703 128.064  0.00  0.00    +0.210 HD
ENDBRANCH  36  41
BRANCH  33  43
ATOM     43  C   LIG A   1     -11.795   7.104 131.759  0.00  0.00    +0.190 C 
BRANCH  43  44
ATOM     44  O   LIG A   1     -13.219   7.112 131.863  0.00  0.00    -0.392 OA
ATOM     45  H   LIG A   1     -13.424   6.536 132.625  0.00  0.00    +0.209 HD
ENDBRANCH  43  44
ENDBRANCH  33  43
ENDBRANCH  30  31
ENDBRANCH   5  30
TORSDOF 12
ENDMDL
MODEL 5
REMARK VINA RESULT:      -8.8      1.455      2.017
REMARK  Name = NuBBE_392
REMARK  18 active torsions:
REMARK  status: ('A' for Active; 'I' for Inactive)
REMARK    1  A    between atoms: C_1  and  C_2
REMARK    2  A    between atoms: C_5  and  O_9
REMARK    3  A    between atoms: O_9  and  C_10
REMARK    4  A    between atoms: C_13  and  C_21
REMARK    5  A    between atoms: C_15  and  O_20
REMARK    6  A    between atoms: C_17  and  O_19
REMARK    7  A    between atoms: C_21  and  O_22
REMARK    8  A    between atoms: C_23  and  O_25
REMARK    9  A    between atoms: C_34  and  C_53
REMARK   10  A    between atoms: C_39  and  C_41
REMARK   11  A    between atoms: C_41  and  C_43
REMARK   12  A    between atoms: C_41  and  C_52
REMARK   13  A    between atoms: C_44  and  C_45
REMARK   14  A    between atoms: C_45  and  C_47
REMARK   15  A    between atoms: C_45  and  C_50
REMARK   16  A    between atoms: C_47  and  C_48
REMARK   17  A    between atoms: C_47  and  C_49
REMARK   18  A    between atoms: C_50  and  C_51
REMARK                            x       y       z     vdW  Elec       q    Type
REMARK                         _______ _______ _______ _____ _____    ______ ____
ROOT
ATOM      1  C   LIG A   1      -5.911   3.367 134.657  0.00  0.00    +0.016 C 
ATOM      2  C   LIG A   1      -7.077   3.419 133.634  0.00  0.00    -0.008 C 
ATOM      3  C   LIG A   1      -6.728   4.415 132.533  0.00  0.00    -0.065 C 
ATOM      4  C   LIG A   1      -7.270   5.828 132.622  0.00  0.00    +0.062 C 
ATOM      5  C   LIG A   1      -8.750   5.964 133.038  0.00  0.00    +0.126 C 
ATOM      6  C   LIG A   1      -9.335   4.690 133.651  0.00  0.00    +0.033 C 
ATOM      7  C   LIG A   1      -8.325   3.870 134.441  0.00  0.00    +0.013 C 
ATOM      8  C   LIG A   1      -5.938   4.037 131.522  0.00  0.00    -0.027 C 
ATOM      9  C   LIG A   1      -5.369   2.654 131.354  0.00  0.00    +0.031 C 
ATOM     10  C   LIG A   1      -6.002   1.518 132.209  0.00  0.00    +0.000 C 
ATOM     11  C   LIG A   1      -7.270   1.986 132.977  0.00  0.00    +0.003 C 
ATOM     12  C   LIG A   1      -8.512   1.916 132.069  0.00  0.00    +0.005 C 
ATOM     13  C   LIG A   1      -8.702   0.560 131.414  0.00  0.00    +0.007 C 
ATOM     14  C   LIG A   1      -7.509   0.065 130.563  0.00  0.00    -0.026 C 
ATOM     15  C   LIG A   1      -6.185   0.211 131.373  0.00  0.00    -0.001 C 
ATOM     16  C   LIG A   1      -6.142  -1.089 132.184  0.00  0.00    +0.004 C 
ATOM     17  C   LIG A   1      -6.529  -2.135 131.136  0.00  0.00    +0.005 C 
ATOM     18  C   LIG A   1      -7.716  -1.503 130.382  0.00  0.00    +0.002 C 
ATOM     19  C   LIG A   1      -7.397   0.878 129.265  0.00  0.00    +0.012 C 
ENDROOT
BRANCH  18  20
ATOM     20  C   LIG A   1      -8.070  -2.102 128.981  0.00  0.00    +0.012 C 
ATOM     21  C   LIG A   1      -8.633  -3.534 129.116  0.00  0.00    +0.012 C 
BRANCH  20  22
ATOM     22  C   LIG A   1      -6.930  -2.109 127.975  0.00  0.00    -0.027 C 
ATOM     23  C   LIG A   1      -7.021  -1.860 126.666  0.00  0.00    -0.027 C 
BRANCH  23  24
ATOM     24  C   LIG A   1      -5.829  -1.888 125.694  0.00  0.00    +0.014 C 
BRANCH  24  25
ATOM     25  C   LIG A   1      -5.511  -0.459 125.131  0.00  0.00    -0.010 C 
ATOM     26  C   LIG A   1      -6.687   0.100 124.310  0.00  0.00    +0.008 C 
ATOM     27  C   LIG A   1      -5.195   0.606 126.191  0.00  0.00    +0.008 C 
ENDBRANCH  24  25
BRANCH  24  28
ATOM     28  C   LIG A   1      -6.129  -2.987 124.638  0.00  0.00    +0.004 C 
ATOM     29  C   LIG A   1      -5.053  -3.279 123.604  0.00  0.00    +0.004 C 
ENDBRANCH  24  28
ENDBRANCH  23  24
ENDBRANCH  20  22
ENDBRANCH  18  20
BRANCH   5  30
ATOM     30  O   LIG A   1      -9.561   6.454 131.948  0.00  0.00    -0.345 OA
BRANCH  30  31
ATOM     31  C   LIG A   1      -8.919   6.461 130.660  0.00  0.00    +0.282 C 
ATOM     32  O   LIG A   1      -9.220   7.677 129.952  0.00  0.00    -0.341 OA
ATOM     33  C   LIG A   1     -10.470   7.725 129.248  0.00  0.00    +0.178 C 
ATOM     34  C   LIG A   1     -10.633   6.531 128.297  0.00  0.00    +0.177 C 
ATOM     35  C   LIG A   1     -10.485   5.203 129.045  0.00  0.00    +0.179 C 
ATOM     36  C   LIG A   1      -9.152   5.181 129.806  0.00  0.00    +0.201 C 
BRANCH  35  37
ATOM     37  O   LIG A   1     -11.605   4.983 129.899  0.00  0.00    -0.386 OA
ATOM     38  H   LIG A   1     -11.695   5.756 130.486  0.00  0.00    +0.210 HD
ENDBRANCH  35  37
BRANCH  34  39
ATOM     39  O   LIG A   1      -9.612   6.584 127.279  0.00  0.00    -0.387 OA
ATOM     40  H   LIG A   1     -10.065   6.668 126.419  0.00  0.00    +0.210 HD
ENDBRANCH  34  39
BRANCH  36  41
ATOM     41  O   LIG A   1      -8.068   5.004 128.877  0.00  0.00    -0.384 OA
ATOM     42  H   LIG A   1      -7.290   4.732 129.410  0.00  0.00    +0.210 HD
ENDBRANCH  36  41
BRANCH  33  43
ATOM     43  C   LIG A   1     -11.663   7.915 130.192  0.00  0.00    +0.190 C 
BRANCH  43  44
ATOM     44  O   LIG A   1     -12.880   7.674 129.486  0.00  0.00    -0.392 OA
ATOM     45  H   LIG A   1     -13.054   8.496 128.986  0.00  0.00    +0.209 HD
ENDBRANCH  43  44
ENDBRANCH  33  43
ENDBRANCH  30  31
ENDBRANCH   5  30
TORSDOF 12
ENDMDL
MODEL 6
REMARK VINA RESULT:      -8.8      2.848      5.114
REMARK  Name = NuBBE_392
REMARK  18 active torsions:
REMARK  status: ('A' for Active; 'I' for Inactive)
REMARK    1  A    between atoms: C_1  and  C_2
REMARK    2  A    between atoms: C_5  and  O_9
REMARK    3  A    between atoms: O_9  and  C_10
REMARK    4  A    between atoms: C_13  and  C_21
REMARK    5  A    between atoms: C_15  and  O_20
REMARK    6  A    between atoms: C_17  and  O_19
REMARK    7  A    between atoms: C_21  and  O_22
REMARK    8  A    between atoms: C_23  and  O_25
REMARK    9  A    between atoms: C_34  and  C_53
REMARK   10  A    between atoms: C_39  and  C_41
REMARK   11  A    between atoms: C_41  and  C_43
REMARK   12  A    between atoms: C_41  and  C_52
REMARK   13  A    between atoms: C_44  and  C_45
REMARK   14  A    between atoms: C_45  and  C_47
REMARK   15  A    between atoms: C_45  and  C_50
REMARK   16  A    between atoms: C_47  and  C_48
REMARK   17  A    between atoms: C_47  and  C_49
REMARK   18  A    between atoms: C_50  and  C_51
REMARK                            x       y       z     vdW  Elec       q    Type
REMARK                         _______ _______ _______ _____ _____    ______ ____
ROOT
ATOM      1  C   LIG A   1      -9.741   2.276 131.749  0.00  0.00    +0.016 C 
ATOM      2  C   LIG A   1      -8.593   3.062 131.062  0.00  0.00    -0.008 C 
ATOM      3  C   LIG A   1      -7.260   2.605 131.644  0.00  0.00    -0.065 C 
ATOM      4  C   LIG A   1      -6.622   3.423 132.749  0.00  0.00    +0.062 C 
ATOM      5  C   LIG A   1      -6.644   4.954 132.563  0.00  0.00    +0.126 C 
ATOM      6  C   LIG A   1      -7.622   5.428 131.486  0.00  0.00    +0.033 C 
ATOM      7  C   LIG A   1      -8.868   4.561 131.366  0.00  0.00    +0.013 C 
ATOM      8  C   LIG A   1      -6.685   1.486 131.188  0.00  0.00    -0.027 C 
ATOM      9  C   LIG A   1      -7.246   0.626 130.087  0.00  0.00    +0.031 C 
ATOM     10  C   LIG A   1      -8.369   1.245 129.205  0.00  0.00    +0.000 C 
ATOM     11  C   LIG A   1      -8.597   2.753 129.504  0.00  0.00    +0.003 C 
ATOM     12  C   LIG A   1      -7.590   3.621 128.727  0.00  0.00    +0.005 C 
ATOM     13  C   LIG A   1      -7.563   3.325 127.240  0.00  0.00    +0.007 C 
ATOM     14  C   LIG A   1      -7.258   1.856 126.863  0.00  0.00    -0.026 C 
ATOM     15  C   LIG A   1      -8.164   0.898 127.696  0.00  0.00    -0.001 C 
ATOM     16  C   LIG A   1      -9.449   0.841 126.863  0.00  0.00    +0.004 C 
ATOM     17  C   LIG A   1      -8.904   0.672 125.442  0.00  0.00    +0.005 C 
ATOM     18  C   LIG A   1      -7.738   1.677 125.355  0.00  0.00    +0.002 C 
ATOM     19  C   LIG A   1      -5.785   1.523 127.139  0.00  0.00    +0.012 C 
ENDROOT
BRANCH  18  20
ATOM     20  C   LIG A   1      -6.695   1.460 124.209  0.00  0.00    +0.012 C 
ATOM     21  C   LIG A   1      -6.914   2.471 123.062  0.00  0.00    +0.012 C 
BRANCH  20  22
ATOM     22  C   LIG A   1      -6.653   0.054 123.632  0.00  0.00    -0.027 C 
ATOM     23  C   LIG A   1      -6.247  -1.052 124.260  0.00  0.00    -0.027 C 
BRANCH  23  24
ATOM     24  C   LIG A   1      -6.221  -2.451 123.619  0.00  0.00    +0.014 C 
BRANCH  24  25
ATOM     25  C   LIG A   1      -7.457  -3.309 124.060  0.00  0.00    -0.010 C 
ATOM     26  C   LIG A   1      -7.759  -3.140 125.559  0.00  0.00    +0.008 C 
ATOM     27  C   LIG A   1      -8.769  -2.989 123.329  0.00  0.00    +0.008 C 
ENDBRANCH  24  25
BRANCH  24  28
ATOM     28  C   LIG A   1      -4.824  -3.062 123.918  0.00  0.00    +0.004 C 
ATOM     29  C   LIG A   1      -4.617  -4.533 123.594  0.00  0.00    +0.004 C 
ENDBRANCH  24  28
ENDBRANCH  23  24
ENDBRANCH  20  22
ENDBRANCH  18  20
BRANCH   5  30
ATOM     30  O   LIG A   1      -5.315   5.478 132.346  0.00  0.00    -0.345 OA
BRANCH  30  31
ATOM     31  C   LIG A   1      -5.006   5.819 130.982  0.00  0.00    +0.282 C 
ATOM     32  O   LIG A   1      -4.137   4.831 130.400  0.00  0.00    -0.341 OA
ATOM     33  C   LIG A   1      -2.733   4.959 130.674  0.00  0.00    +0.178 C 
ATOM     34  C   LIG A   1      -2.212   6.360 130.327  0.00  0.00    +0.177 C 
ATOM     35  C   LIG A   1      -3.007   7.444 131.061  0.00  0.00    +0.179 C 
ATOM     36  C   LIG A   1      -4.504   7.277 130.770  0.00  0.00    +0.201 C 
BRANCH  35  37
ATOM     37  O   LIG A   1      -2.715   7.419 132.456  0.00  0.00    -0.386 OA
ATOM     38  H   LIG A   1      -1.903   6.897 132.586  0.00  0.00    +0.210 HD
ENDBRANCH  35  37
BRANCH  34  39
ATOM     39  O   LIG A   1      -2.352   6.588 128.910  0.00  0.00    -0.387 OA
ATOM     40  H   LIG A   1      -1.454   6.633 128.533  0.00  0.00    +0.210 HD
ENDBRANCH  34  39
BRANCH  36  41
ATOM     41  O   LIG A   1      -4.786   7.704 129.425  0.00  0.00    -0.384 OA
ATOM     42  H   LIG A   1      -4.846   6.887 128.884  0.00  0.00    +0.210 HD
ENDBRANCH  36  41
BRANCH  33  43
ATOM     43  C   LIG A   1      -2.375   4.513 132.097  0.00  0.00    +0.190 C 
BRANCH  43  44
ATOM     44  O   LIG A   1      -1.068   4.979 132.434  0.00  0.00    -0.392 OA
ATOM     45  H   LIG A   1      -1.212   5.806 132.935  0.00  0.00    +0.209 HD
ENDBRANCH  43  44
ENDBRANCH  33  43
ENDBRANCH  30  31
ENDBRANCH   5  30
TORSDOF 12
ENDMDL
MODEL 7
REMARK VINA RESULT:      -8.7      4.239     10.160
REMARK  Name = NuBBE_392
REMARK  18 active torsions:
REMARK  status: ('A' for Active; 'I' for Inactive)
REMARK    1  A    between atoms: C_1  and  C_2
REMARK    2  A    between atoms: C_5  and  O_9
REMARK    3  A    between atoms: O_9  and  C_10
REMARK    4  A    between atoms: C_13  and  C_21
REMARK    5  A    between atoms: C_15  and  O_20
REMARK    6  A    between atoms: C_17  and  O_19
REMARK    7  A    between atoms: C_21  and  O_22
REMARK    8  A    between atoms: C_23  and  O_25
REMARK    9  A    between atoms: C_34  and  C_53
REMARK   10  A    between atoms: C_39  and  C_41
REMARK   11  A    between atoms: C_41  and  C_43
REMARK   12  A    between atoms: C_41  and  C_52
REMARK   13  A    between atoms: C_44  and  C_45
REMARK   14  A    between atoms: C_45  and  C_47
REMARK   15  A    between atoms: C_45  and  C_50
REMARK   16  A    between atoms: C_47  and  C_48
REMARK   17  A    between atoms: C_47  and  C_49
REMARK   18  A    between atoms: C_50  and  C_51
REMARK                            x       y       z     vdW  Elec       q    Type
REMARK                         _______ _______ _______ _____ _____    ______ ____
ROOT
ATOM      1  C   LIG A   1      -4.965   4.484 126.210  0.00  0.00    +0.016 C 
ATOM      2  C   LIG A   1      -6.073   3.596 126.835  0.00  0.00    -0.008 C 
ATOM      3  C   LIG A   1      -5.528   2.185 127.032  0.00  0.00    -0.065 C 
ATOM      4  C   LIG A   1      -5.827   1.129 125.986  0.00  0.00    +0.062 C 
ATOM      5  C   LIG A   1      -7.275   1.090 125.452  0.00  0.00    +0.126 C 
ATOM      6  C   LIG A   1      -8.085   2.346 125.782  0.00  0.00    +0.033 C 
ATOM      7  C   LIG A   1      -7.252   3.619 125.822  0.00  0.00    +0.013 C 
ATOM      8  C   LIG A   1      -4.783   1.906 128.108  0.00  0.00    -0.027 C 
ATOM      9  C   LIG A   1      -4.451   2.891 129.195  0.00  0.00    +0.031 C 
ATOM     10  C   LIG A   1      -5.292   4.200 129.249  0.00  0.00    +0.000 C 
ATOM     11  C   LIG A   1      -6.486   4.181 128.252  0.00  0.00    +0.003 C 
ATOM     12  C   LIG A   1      -7.694   3.449 128.865  0.00  0.00    +0.005 C 
ATOM     13  C   LIG A   1      -8.089   3.980 130.230  0.00  0.00    +0.007 C 
ATOM     14  C   LIG A   1      -6.972   3.952 131.300  0.00  0.00    -0.026 C 
ATOM     15  C   LIG A   1      -5.667   4.576 130.717  0.00  0.00    -0.001 C 
ATOM     16  C   LIG A   1      -5.869   6.074 130.972  0.00  0.00    +0.004 C 
ATOM     17  C   LIG A   1      -6.395   6.088 132.409  0.00  0.00    +0.005 C 
ATOM     18  C   LIG A   1      -7.435   4.951 132.450  0.00  0.00    +0.002 C 
ATOM     19  C   LIG A   1      -6.686   2.510 131.743  0.00  0.00    +0.012 C 
ENDROOT
BRANCH  18  20
ATOM     20  C   LIG A   1      -7.842   4.408 133.859  0.00  0.00    +0.012 C 
ATOM     21  C   LIG A   1      -9.263   3.802 133.830  0.00  0.00    +0.012 C 
BRANCH  20  22
ATOM     22  C   LIG A   1      -7.755   5.419 134.991  0.00  0.00    -0.027 C 
ATOM     23  C   LIG A   1      -6.899   5.397 136.015  0.00  0.00    -0.027 C 
BRANCH  23  24
ATOM     24  C   LIG A   1      -6.863   6.449 137.137  0.00  0.00    +0.014 C 
BRANCH  24  25
ATOM     25  C   LIG A   1      -5.962   5.984 138.334  0.00  0.00    -0.010 C 
ATOM     26  C   LIG A   1      -6.794   5.741 139.606  0.00  0.00    +0.008 C 
ATOM     27  C   LIG A   1      -5.173   4.690 138.095  0.00  0.00    +0.008 C 
ENDBRANCH  24  25
BRANCH  24  28
ATOM     28  C   LIG A   1      -8.337   6.793 137.484  0.00  0.00    +0.004 C 
ATOM     29  C   LIG A   1      -8.720   8.263 137.542  0.00  0.00    +0.004 C 
ENDBRANCH  24  28
ENDBRANCH  23  24
ENDBRANCH  20  22
ENDBRANCH  18  20
BRANCH   5  30
ATOM     30  O   LIG A   1      -7.958  -0.112 125.871  0.00  0.00    -0.345 OA
BRANCH  30  31
ATOM     31  C   LIG A   1      -9.039  -0.532 125.019  0.00  0.00    +0.282 C 
ATOM     32  O   LIG A   1      -9.777  -1.605 125.631  0.00  0.00    -0.341 OA
ATOM     33  C   LIG A   1      -9.240  -2.929 125.481  0.00  0.00    +0.178 C 
ATOM     34  C   LIG A   1      -8.976  -3.271 124.008  0.00  0.00    +0.177 C 
ATOM     35  C   LIG A   1      -8.054  -2.237 123.357  0.00  0.00    +0.179 C 
ATOM     36  C   LIG A   1      -8.635  -0.829 123.547  0.00  0.00    +0.201 C 
BRANCH  35  37
ATOM     37  O   LIG A   1      -6.729  -2.355 123.872  0.00  0.00    -0.386 OA
ATOM     38  H   LIG A   1      -6.569  -1.605 124.472  0.00  0.00    +0.210 HD
ENDBRANCH  35  37
BRANCH  34  39
ATOM     39  O   LIG A   1     -10.223  -3.273 123.284  0.00  0.00    -0.387 OA
ATOM     40  H   LIG A   1     -10.129  -2.645 122.543  0.00  0.00    +0.210 HD
ENDBRANCH  34  39
BRANCH  36  41
ATOM     41  O   LIG A   1      -9.768  -0.654 122.678  0.00  0.00    -0.384 OA
ATOM     42  H   LIG A   1     -10.566  -0.757 123.242  0.00  0.00    +0.210 HD
ENDBRANCH  36  41
BRANCH  33  43
ATOM     43  C   LIG A   1      -8.028  -3.172 126.387  0.00  0.00    +0.190 C 
BRANCH  43  44
ATOM     44  O   LIG A   1      -8.251  -2.571 127.663  0.00  0.00    -0.392 OA
ATOM     45  H   LIG A   1      -7.490  -2.844 128.212  0.00  0.00    +0.209 HD
ENDBRANCH  43  44
ENDBRANCH  33  43
ENDBRANCH  30  31
ENDBRANCH   5  30
TORSDOF 12
ENDMDL
MODEL 8
REMARK VINA RESULT:      -8.7      2.345      5.696
REMARK  Name = NuBBE_392
REMARK  18 active torsions:
REMARK  status: ('A' for Active; 'I' for Inactive)
REMARK    1  A    between atoms: C_1  and  C_2
REMARK    2  A    between atoms: C_5  and  O_9
REMARK    3  A    between atoms: O_9  and  C_10
REMARK    4  A    between atoms: C_13  and  C_21
REMARK    5  A    between atoms: C_15  and  O_20
REMARK    6  A    between atoms: C_17  and  O_19
REMARK    7  A    between atoms: C_21  and  O_22
REMARK    8  A    between atoms: C_23  and  O_25
REMARK    9  A    between atoms: C_34  and  C_53
REMARK   10  A    between atoms: C_39  and  C_41
REMARK   11  A    between atoms: C_41  and  C_43
REMARK   12  A    between atoms: C_41  and  C_52
REMARK   13  A    between atoms: C_44  and  C_45
REMARK   14  A    between atoms: C_45  and  C_47
REMARK   15  A    between atoms: C_45  and  C_50
REMARK   16  A    between atoms: C_47  and  C_48
REMARK   17  A    between atoms: C_47  and  C_49
REMARK   18  A    between atoms: C_50  and  C_51
REMARK                            x       y       z     vdW  Elec       q    Type
REMARK                         _______ _______ _______ _____ _____    ______ ____
ROOT
ATOM      1  C   LIG A   1      -5.740   3.847 123.068  0.00  0.00    +0.016 C 
ATOM      2  C   LIG A   1      -5.965   3.304 124.504  0.00  0.00    -0.008 C 
ATOM      3  C   LIG A   1      -7.240   3.919 125.073  0.00  0.00    -0.065 C 
ATOM      4  C   LIG A   1      -7.131   5.130 125.977  0.00  0.00    +0.062 C 
ATOM      5  C   LIG A   1      -6.018   5.086 127.045  0.00  0.00    +0.126 C 
ATOM      6  C   LIG A   1      -4.968   4.001 126.792  0.00  0.00    +0.033 C 
ATOM      7  C   LIG A   1      -4.711   3.729 125.317  0.00  0.00    +0.013 C 
ATOM      8  C   LIG A   1      -8.429   3.395 124.753  0.00  0.00    -0.027 C 
ATOM      9  C   LIG A   1      -8.622   2.189 123.874  0.00  0.00    +0.031 C 
ATOM     10  C   LIG A   1      -7.372   1.303 123.599  0.00  0.00    +0.000 C 
ATOM     11  C   LIG A   1      -6.144   1.727 124.452  0.00  0.00    +0.003 C 
ATOM     12  C   LIG A   1      -6.211   1.094 125.854  0.00  0.00    +0.005 C 
ATOM     13  C   LIG A   1      -6.403  -0.410 125.826  0.00  0.00    +0.007 C 
ATOM     14  C   LIG A   1      -7.656  -0.903 125.063  0.00  0.00    -0.026 C 
ATOM     15  C   LIG A   1      -7.726  -0.216 123.665  0.00  0.00    -0.001 C 
ATOM     16  C   LIG A   1      -6.846  -1.125 122.800  0.00  0.00    +0.004 C 
ATOM     17  C   LIG A   1      -7.312  -2.521 123.221  0.00  0.00    +0.005 C 
ATOM     18  C   LIG A   1      -7.410  -2.446 124.758  0.00  0.00    +0.002 C 
ATOM     19  C   LIG A   1      -8.932  -0.573 125.851  0.00  0.00    +0.012 C 
ENDROOT
BRANCH  18  20
ATOM     20  C   LIG A   1      -8.266  -3.544 125.472  0.00  0.00    +0.012 C 
ATOM     21  C   LIG A   1      -9.638  -3.711 124.784  0.00  0.00    +0.012 C 
BRANCH  20  22
ATOM     22  C   LIG A   1      -8.479  -3.329 126.962  0.00  0.00    -0.027 C 
ATOM     23  C   LIG A   1      -7.530  -3.210 127.894  0.00  0.00    -0.027 C 
BRANCH  23  24
ATOM     24  C   LIG A   1      -7.809  -2.999 129.392  0.00  0.00    +0.014 C 
BRANCH  24  25
ATOM     25  C   LIG A   1      -8.002  -1.481 129.734  0.00  0.00    -0.010 C 
ATOM     26  C   LIG A   1      -7.965  -1.235 131.253  0.00  0.00    +0.008 C 
ATOM     27  C   LIG A   1      -6.953  -0.536 129.131  0.00  0.00    +0.008 C 
ENDBRANCH  24  25
BRANCH  24  28
ATOM     28  C   LIG A   1      -6.686  -3.738 130.171  0.00  0.00    +0.004 C 
ATOM     29  C   LIG A   1      -5.260  -3.578 129.669  0.00  0.00    +0.004 C 
ENDBRANCH  24  28
ENDBRANCH  23  24
ENDBRANCH  20  22
ENDBRANCH  18  20
BRANCH   5  30
ATOM     30  O   LIG A   1      -6.569   4.996 128.377  0.00  0.00    -0.345 OA
BRANCH  30  31
ATOM     31  C   LIG A   1      -7.892   4.436 128.457  0.00  0.00    +0.282 C 
ATOM     32  O   LIG A   1      -8.780   5.334 129.147  0.00  0.00    -0.341 OA
ATOM     33  C   LIG A   1      -8.755   5.295 130.583  0.00  0.00    +0.178 C 
ATOM     34  C   LIG A   1      -8.960   3.870 131.116  0.00  0.00    +0.177 C 
ATOM     35  C   LIG A   1      -7.925   2.906 130.530  0.00  0.00    +0.179 C 
ATOM     36  C   LIG A   1      -7.955   2.978 128.998  0.00  0.00    +0.201 C 
BRANCH  35  37
ATOM     37  O   LIG A   1      -6.631   3.177 131.065  0.00  0.00    -0.386 OA
ATOM     38  H   LIG A   1      -6.008   3.262 130.322  0.00  0.00    +0.210 HD
ENDBRANCH  35  37
BRANCH  34  39
ATOM     39  O   LIG A   1     -10.270   3.400 130.737  0.00  0.00    -0.387 OA
ATOM     40  H   LIG A   1     -10.499   3.829 129.892  0.00  0.00    +0.210 HD
ENDBRANCH  34  39
BRANCH  36  41
ATOM     41  O   LIG A   1      -9.135   2.320 128.506  0.00  0.00    -0.384 OA
ATOM     42  H   LIG A   1      -9.899   2.778 128.920  0.00  0.00    +0.210 HD
ENDBRANCH  36  41
BRANCH  33  43
ATOM     43  C   LIG A   1      -7.516   5.987 131.162  0.00  0.00    +0.190 C 
BRANCH  43  44
ATOM     44  O   LIG A   1      -7.286   7.218 130.478  0.00  0.00    -0.392 OA
ATOM     45  H   LIG A   1      -8.101   7.382 129.963  0.00  0.00    +0.209 HD
ENDBRANCH  43  44
ENDBRANCH  33  43
ENDBRANCH  30  31
ENDBRANCH   5  30
TORSDOF 12
ENDMDL
MODEL 9
REMARK VINA RESULT:      -8.5      3.912      8.946
REMARK  Name = NuBBE_392
REMARK  18 active torsions:
REMARK  status: ('A' for Active; 'I' for Inactive)
REMARK    1  A    between atoms: C_1  and  C_2
REMARK    2  A    between atoms: C_5  and  O_9
REMARK    3  A    between atoms: O_9  and  C_10
REMARK    4  A    between atoms: C_13  and  C_21
REMARK    5  A    between atoms: C_15  and  O_20
REMARK    6  A    between atoms: C_17  and  O_19
REMARK    7  A    between atoms: C_21  and  O_22
REMARK    8  A    between atoms: C_23  and  O_25
REMARK    9  A    between atoms: C_34  and  C_53
REMARK   10  A    between atoms: C_39  and  C_41
REMARK   11  A    between atoms: C_41  and  C_43
REMARK   12  A    between atoms: C_41  and  C_52
REMARK   13  A    between atoms: C_44  and  C_45
REMARK   14  A    between atoms: C_45  and  C_47
REMARK   15  A    between atoms: C_45  and  C_50
REMARK   16  A    between atoms: C_47  and  C_48
REMARK   17  A    between atoms: C_47  and  C_49
REMARK   18  A    between atoms: C_50  and  C_51
REMARK                            x       y       z     vdW  Elec       q    Type
REMARK                         _______ _______ _______ _____ _____    ______ ____
ROOT
ATOM      1  C   LIG A   1      -4.961   4.565 124.740  0.00  0.00    +0.016 C 
ATOM      2  C   LIG A   1      -5.760   3.746 125.789  0.00  0.00    -0.008 C 
ATOM      3  C   LIG A   1      -5.379   2.274 125.667  0.00  0.00    -0.065 C 
ATOM      4  C   LIG A   1      -6.266   1.351 124.856  0.00  0.00    +0.062 C 
ATOM      5  C   LIG A   1      -7.787   1.509 125.066  0.00  0.00    +0.126 C 
ATOM      6  C   LIG A   1      -8.176   2.809 125.773  0.00  0.00    +0.033 C 
ATOM      7  C   LIG A   1      -7.259   3.980 125.452  0.00  0.00    +0.013 C 
ATOM      8  C   LIG A   1      -4.265   1.827 126.256  0.00  0.00    -0.027 C 
ATOM      9  C   LIG A   1      -3.338   2.674 127.086  0.00  0.00    +0.031 C 
ATOM     10  C   LIG A   1      -3.877   4.053 127.566  0.00  0.00    +0.000 C 
ATOM     11  C   LIG A   1      -5.386   4.246 127.249  0.00  0.00    +0.003 C 
ATOM     12  C   LIG A   1      -6.258   3.593 128.338  0.00  0.00    +0.005 C 
ATOM     13  C   LIG A   1      -5.901   4.041 129.742  0.00  0.00    +0.007 C 
ATOM     14  C   LIG A   1      -4.430   3.804 130.159  0.00  0.00    -0.026 C 
ATOM     15  C   LIG A   1      -3.474   4.337 129.048  0.00  0.00    -0.001 C 
ATOM     16  C   LIG A   1      -3.334   5.820 129.409  0.00  0.00    +0.004 C 
ATOM     17  C   LIG A   1      -3.126   5.764 130.925  0.00  0.00    +0.005 C 
ATOM     18  C   LIG A   1      -4.169   4.742 131.418  0.00  0.00    +0.002 C 
ATOM     19  C   LIG A   1      -4.165   2.307 130.374  0.00  0.00    +0.012 C 
ENDROOT
BRANCH  18  20
ATOM     20  C   LIG A   1      -3.945   4.124 132.838  0.00  0.00    +0.012 C 
ATOM     21  C   LIG A   1      -2.814   3.072 132.811  0.00  0.00    +0.012 C 
BRANCH  20  22
ATOM     22  C   LIG A   1      -5.180   3.510 133.478  0.00  0.00    -0.027 C 
ATOM     23  C   LIG A   1      -6.450   3.850 133.244  0.00  0.00    -0.027 C 
BRANCH  23  24
ATOM     24  C   LIG A   1      -7.662   3.195 133.930  0.00  0.00    +0.014 C 
BRANCH  24  25
ATOM     25  C   LIG A   1      -8.427   2.236 132.953  0.00  0.00    -0.010 C 
ATOM     26  C   LIG A   1      -8.874   2.970 131.675  0.00  0.00    +0.008 C 
ATOM     27  C   LIG A   1      -7.630   1.013 132.478  0.00  0.00    +0.008 C 
ENDBRANCH  24  25
BRANCH  24  28
ATOM     28  C   LIG A   1      -8.501   4.339 134.561  0.00  0.00    +0.004 C 
ATOM     29  C   LIG A   1      -7.775   5.331 135.456  0.00  0.00    +0.004 C 
ENDBRANCH  24  28
ENDBRANCH  23  24
ENDBRANCH  20  22
ENDBRANCH  18  20
BRANCH   5  30
ATOM     30  O   LIG A   1      -8.351   0.353 125.723  0.00  0.00    -0.345 OA
BRANCH  30  31
ATOM     31  C   LIG A   1      -9.382  -0.330 124.987  0.00  0.00    +0.282 C 
ATOM     32  O   LIG A   1      -9.834  -1.490 125.709  0.00  0.00    -0.341 OA
ATOM     33  C   LIG A   1      -9.048  -2.684 125.574  0.00  0.00    +0.178 C 
ATOM     34  C   LIG A   1      -8.828  -3.057 124.102  0.00  0.00    +0.177 C 
ATOM     35  C   LIG A   1      -8.191  -1.900 123.327  0.00  0.00    +0.179 C 
ATOM     36  C   LIG A   1      -9.035  -0.630 123.500  0.00  0.00    +0.201 C 
BRANCH  35  37
ATOM     37  O   LIG A   1      -6.836  -1.716 123.732  0.00  0.00    -0.386 OA
ATOM     38  H   LIG A   1      -6.519  -2.551 124.120  0.00  0.00    +0.210 HD
ENDBRANCH  35  37
BRANCH  34  39
ATOM     39  O   LIG A   1     -10.098  -3.357 123.487  0.00  0.00    -0.387 OA
ATOM     40  H   LIG A   1     -10.011  -3.166 122.534  0.00  0.00    +0.210 HD
ENDBRANCH  34  39
BRANCH  36  41
ATOM     41  O   LIG A   1     -10.241  -0.743 122.725  0.00  0.00    -0.384 OA
ATOM     42  H   LIG A   1     -10.933  -0.252 123.219  0.00  0.00    +0.210 HD
ENDBRANCH  36  41
BRANCH  33  43
ATOM     43  C   LIG A   1      -7.748  -2.620 126.384  0.00  0.00    +0.190 C 
BRANCH  43  44
ATOM     44  O   LIG A   1      -7.996  -2.001 127.646  0.00  0.00    -0.392 OA
ATOM     45  H   LIG A   1      -7.387  -2.440 128.272  0.00  0.00    +0.209 HD
ENDBRANCH  43  44
ENDBRANCH  33  43
ENDBRANCH  30  31
ENDBRANCH   5  30
TORSDOF 12
ENDMDL
