MODEL 1
REMARK VINA RESULT:      -7.6      0.000      0.000
REMARK  Name = NuBBE_2021
REMARK  8 active torsions:
REMARK  status: ('A' for Active; 'I' for Inactive)
REMARK    1  A    between atoms: C_6  and  O_7
REMARK    2  A    between atoms: C_8  and  O_9
REMARK    3  A    between atoms: O_9  and  C_10
REMARK    4  A    between atoms: C_14  and  C_15
REMARK    5  A    between atoms: C_17  and  O_18
REMARK    6  A    between atoms: O_18  and  C_19
REMARK    7  A    between atoms: C_20  and  O_21
REMARK    8  A    between atoms: O_21  and  C_22
REMARK                            x       y       z     vdW  Elec       q    Type
REMARK                         _______ _______ _______ _____ _____    ______ ____
ROOT
ATOM      1  O   LIG A   1     -11.068   3.851 130.002  0.00  0.00    -0.286 OA
ATOM      2  C   LIG A   1     -10.351   4.239 130.913  0.00  0.00    +0.200 A 
ATOM      3  C   LIG A   1      -9.492   3.271 131.617  0.00  0.00    +0.068 A 
ATOM      4  C   LIG A   1      -9.502   1.932 131.235  0.00  0.00    +0.019 A 
ATOM      5  C   LIG A   1      -8.688   1.020 131.902  0.00  0.00    +0.050 A 
ATOM      6  C   LIG A   1      -7.861   1.451 132.945  0.00  0.00    +0.162 A 
ATOM      7  C   LIG A   1      -7.840   2.800 133.336  0.00  0.00    +0.205 A 
ATOM      8  C   LIG A   1      -8.678   3.707 132.662  0.00  0.00    +0.183 A 
ATOM      9  O   LIG A   1      -8.658   5.024 133.058  0.00  0.00    -0.458 OA
ATOM     10  C   LIG A   1      -9.454   5.918 132.383  0.00  0.00    +0.208 A 
ATOM     11  C   LIG A   1     -10.291   5.664 131.365  0.00  0.00    +0.064 A 
ENDROOT
BRANCH  11  12
ATOM     12  C   LIG A   1     -11.074   6.745 130.718  0.00  0.00    -0.008 A 
ATOM     13  C   LIG A   1     -10.673   7.320 129.501  0.00  0.00    +0.058 A 
ATOM     14  C   LIG A   1     -11.418   8.330 128.867  0.00  0.00    +0.162 A 
ATOM     15  C   LIG A   1     -12.584   8.813 129.479  0.00  0.00    +0.162 A 
ATOM     16  C   LIG A   1     -12.995   8.247 130.689  0.00  0.00    +0.050 A 
ATOM     17  C   LIG A   1     -12.252   7.230 131.296  0.00  0.00    +0.012 A 
BRANCH  14  18
ATOM     18  O   LIG A   1     -10.854   8.718 127.677  0.00  0.00    -0.491 OA
ATOM     19  C   LIG A   1     -10.808   7.783 126.610  0.00  0.00    +0.277 C 
ENDBRANCH  14  18
BRANCH  15  20
ATOM     20  O   LIG A   1     -13.320   9.777 128.847  0.00  0.00    -0.491 OA
ATOM     21  C   LIG A   1     -13.620  10.946 129.600  0.00  0.00    +0.277 C 
ENDBRANCH  15  20
ENDBRANCH  11  12
BRANCH   6  22
ATOM     22  O   LIG A   1      -7.099   0.515 133.584  0.00  0.00    -0.503 OA
ATOM     23  H   LIG A   1      -6.407   0.957 134.102  0.00  0.00    +0.292 HD
ENDBRANCH   6  22
BRANCH   7  24
ATOM     24  O   LIG A   1      -7.117   3.334 134.373  0.00  0.00    -0.488 OA
ATOM     25  C   LIG A   1      -5.739   3.595 134.142  0.00  0.00    +0.277 C 
ENDBRANCH   7  24
TORSDOF 5
ENDMDL
MODEL 2
REMARK VINA RESULT:      -6.8      1.434      2.442
REMARK  Name = NuBBE_2021
REMARK  8 active torsions:
REMARK  status: ('A' for Active; 'I' for Inactive)
REMARK    1  A    between atoms: C_6  and  O_7
REMARK    2  A    between atoms: C_8  and  O_9
REMARK    3  A    between atoms: O_9  and  C_10
REMARK    4  A    between atoms: C_14  and  C_15
REMARK    5  A    between atoms: C_17  and  O_18
REMARK    6  A    between atoms: O_18  and  C_19
REMARK    7  A    between atoms: C_20  and  O_21
REMARK    8  A    between atoms: O_21  and  C_22
REMARK                            x       y       z     vdW  Elec       q    Type
REMARK                         _______ _______ _______ _____ _____    ______ ____
ROOT
ATOM      1  O   LIG A   1      -7.659   7.423 130.794  0.00  0.00    -0.286 OA
ATOM      2  C   LIG A   1      -8.141   6.398 131.252  0.00  0.00    +0.200 A 
ATOM      3  C   LIG A   1      -7.270   5.445 131.962  0.00  0.00    +0.068 A 
ATOM      4  C   LIG A   1      -5.914   5.726 132.108  0.00  0.00    +0.019 A 
ATOM      5  C   LIG A   1      -5.093   4.824 132.781  0.00  0.00    +0.050 A 
ATOM      6  C   LIG A   1      -5.632   3.647 133.311  0.00  0.00    +0.162 A 
ATOM      7  C   LIG A   1      -6.999   3.356 133.173  0.00  0.00    +0.205 A 
ATOM      8  C   LIG A   1      -7.813   4.270 132.480  0.00  0.00    +0.183 A 
ATOM      9  O   LIG A   1      -9.148   3.972 132.341  0.00  0.00    -0.458 OA
ATOM     10  C   LIG A   1      -9.952   4.876 131.688  0.00  0.00    +0.208 A 
ATOM     11  C   LIG A   1      -9.590   6.044 131.134  0.00  0.00    +0.064 A 
ENDROOT
BRANCH  11  12
ATOM     12  C   LIG A   1     -10.582   6.930 130.479  0.00  0.00    -0.008 A 
ATOM     13  C   LIG A   1     -10.377   7.439 129.186  0.00  0.00    +0.058 A 
ATOM     14  C   LIG A   1     -11.320   8.263 128.546  0.00  0.00    +0.162 A 
ATOM     15  C   LIG A   1     -12.493   8.623 129.224  0.00  0.00    +0.162 A 
ATOM     16  C   LIG A   1     -12.711   8.121 130.510  0.00  0.00    +0.050 A 
ATOM     17  C   LIG A   1     -11.770   7.288 131.124  0.00  0.00    +0.012 A 
BRANCH  14  18
ATOM     18  O   LIG A   1     -10.922   8.614 127.279  0.00  0.00    -0.491 OA
ATOM     19  C   LIG A   1     -10.829   7.600 126.290  0.00  0.00    +0.277 C 
ENDBRANCH  14  18
BRANCH  15  20
ATOM     20  O   LIG A   1     -13.419   9.403 128.588  0.00  0.00    -0.491 OA
ATOM     21  C   LIG A   1     -13.693  10.671 129.171  0.00  0.00    +0.277 C 
ENDBRANCH  15  20
ENDBRANCH  11  12
BRANCH   6  22
ATOM     22  O   LIG A   1      -4.782   2.783 133.941  0.00  0.00    -0.503 OA
ATOM     23  H   LIG A   1      -4.469   2.116 133.309  0.00  0.00    +0.292 HD
ENDBRANCH   6  22
BRANCH   7  24
ATOM     24  O   LIG A   1      -7.634   2.217 133.600  0.00  0.00    -0.488 OA
ATOM     25  C   LIG A   1      -7.499   1.052 132.797  0.00  0.00    +0.277 C 
ENDBRANCH   7  24
TORSDOF 5
ENDMDL
MODEL 3
REMARK VINA RESULT:      -6.7      1.599      7.815
REMARK  Name = NuBBE_2021
REMARK  8 active torsions:
REMARK  status: ('A' for Active; 'I' for Inactive)
REMARK    1  A    between atoms: C_6  and  O_7
REMARK    2  A    between atoms: C_8  and  O_9
REMARK    3  A    between atoms: O_9  and  C_10
REMARK    4  A    between atoms: C_14  and  C_15
REMARK    5  A    between atoms: C_17  and  O_18
REMARK    6  A    between atoms: O_18  and  C_19
REMARK    7  A    between atoms: C_20  and  O_21
REMARK    8  A    between atoms: O_21  and  C_22
REMARK                            x       y       z     vdW  Elec       q    Type
REMARK                         _______ _______ _______ _____ _____    ______ ____
ROOT
ATOM      1  O   LIG A   1     -10.469   6.471 132.877  0.00  0.00    -0.286 OA
ATOM      2  C   LIG A   1     -10.246   6.253 131.695  0.00  0.00    +0.200 A 
ATOM      3  C   LIG A   1     -11.188   6.752 130.678  0.00  0.00    +0.068 A 
ATOM      4  C   LIG A   1     -12.314   7.471 131.073  0.00  0.00    +0.019 A 
ATOM      5  C   LIG A   1     -13.201   7.943 130.109  0.00  0.00    +0.050 A 
ATOM      6  C   LIG A   1     -12.957   7.701 128.753  0.00  0.00    +0.162 A 
ATOM      7  C   LIG A   1     -11.823   6.981 128.344  0.00  0.00    +0.205 A 
ATOM      8  C   LIG A   1     -10.942   6.500 129.329  0.00  0.00    +0.183 A 
ATOM      9  O   LIG A   1      -9.840   5.787 128.920  0.00  0.00    -0.458 OA
ATOM     10  C   LIG A   1      -8.962   5.339 129.878  0.00  0.00    +0.208 A 
ATOM     11  C   LIG A   1      -9.052   5.494 131.208  0.00  0.00    +0.064 A 
ENDROOT
BRANCH  11  12
ATOM     12  C   LIG A   1      -8.007   4.970 132.122  0.00  0.00    -0.008 A 
ATOM     13  C   LIG A   1      -8.039   3.648 132.598  0.00  0.00    +0.058 A 
ATOM     14  C   LIG A   1      -7.043   3.133 133.446  0.00  0.00    +0.162 A 
ATOM     15  C   LIG A   1      -5.997   3.966 133.866  0.00  0.00    +0.162 A 
ATOM     16  C   LIG A   1      -5.952   5.282 133.397  0.00  0.00    +0.050 A 
ATOM     17  C   LIG A   1      -6.941   5.773 132.539  0.00  0.00    +0.012 A 
BRANCH  14  18
ATOM     18  O   LIG A   1      -7.263   1.814 133.757  0.00  0.00    -0.491 OA
ATOM     19  C   LIG A   1      -7.032   0.832 132.759  0.00  0.00    +0.277 C 
ENDBRANCH  14  18
BRANCH  15  20
ATOM     20  O   LIG A   1      -5.017   3.454 134.670  0.00  0.00    -0.491 OA
ATOM     21  C   LIG A   1      -5.053   3.833 136.040  0.00  0.00    +0.277 C 
ENDBRANCH  15  20
ENDBRANCH  11  12
BRANCH   6  22
ATOM     22  O   LIG A   1     -13.869   8.164 127.847  0.00  0.00    -0.503 OA
ATOM     23  H   LIG A   1     -14.464   7.442 127.587  0.00  0.00    +0.292 HD
ENDBRANCH   6  22
BRANCH   7  24
ATOM     24  O   LIG A   1     -11.501   6.635 127.055  0.00  0.00    -0.488 OA
ATOM     25  C   LIG A   1     -10.864   7.620 126.253  0.00  0.00    +0.277 C 
ENDBRANCH   7  24
TORSDOF 5
ENDMDL
MODEL 4
REMARK VINA RESULT:      -6.7      7.594     11.352
REMARK  Name = NuBBE_2021
REMARK  8 active torsions:
REMARK  status: ('A' for Active; 'I' for Inactive)
REMARK    1  A    between atoms: C_6  and  O_7
REMARK    2  A    between atoms: C_8  and  O_9
REMARK    3  A    between atoms: O_9  and  C_10
REMARK    4  A    between atoms: C_14  and  C_15
REMARK    5  A    between atoms: C_17  and  O_18
REMARK    6  A    between atoms: O_18  and  C_19
REMARK    7  A    between atoms: C_20  and  O_21
REMARK    8  A    between atoms: O_21  and  C_22
REMARK                            x       y       z     vdW  Elec       q    Type
REMARK                         _______ _______ _______ _____ _____    ______ ____
ROOT
ATOM      1  O   LIG A   1      -9.100  -3.656 128.589  0.00  0.00    -0.286 OA
ATOM      2  C   LIG A   1      -8.103  -3.226 128.030  0.00  0.00    +0.200 A 
ATOM      3  C   LIG A   1      -8.135  -2.989 126.577  0.00  0.00    +0.068 A 
ATOM      4  C   LIG A   1      -9.300  -3.250 125.860  0.00  0.00    +0.019 A 
ATOM      5  C   LIG A   1      -9.328  -3.024 124.486  0.00  0.00    +0.050 A 
ATOM      6  C   LIG A   1      -8.192  -2.529 123.834  0.00  0.00    +0.162 A 
ATOM      7  C   LIG A   1      -7.014  -2.258 124.548  0.00  0.00    +0.205 A 
ATOM      8  C   LIG A   1      -6.997  -2.504 125.933  0.00  0.00    +0.183 A 
ATOM      9  O   LIG A   1      -5.836  -2.245 126.622  0.00  0.00    -0.458 OA
ATOM     10  C   LIG A   1      -5.824  -2.458 127.980  0.00  0.00    +0.208 A 
ATOM     11  C   LIG A   1      -6.825  -2.919 128.746  0.00  0.00    +0.064 A 
ENDROOT
BRANCH  11  12
ATOM     12  C   LIG A   1      -6.669  -3.076 130.213  0.00  0.00    -0.008 A 
ATOM     13  C   LIG A   1      -7.185  -2.132 131.116  0.00  0.00    +0.058 A 
ATOM     14  C   LIG A   1      -7.061  -2.280 132.508  0.00  0.00    +0.162 A 
ATOM     15  C   LIG A   1      -6.372  -3.387 133.025  0.00  0.00    +0.162 A 
ATOM     16  C   LIG A   1      -5.856  -4.335 132.137  0.00  0.00    +0.050 A 
ATOM     17  C   LIG A   1      -6.004  -4.181 130.755  0.00  0.00    +0.012 A 
BRANCH  14  18
ATOM     18  O   LIG A   1      -7.667  -1.255 133.192  0.00  0.00    -0.491 OA
ATOM     19  C   LIG A   1      -7.679   0.038 132.607  0.00  0.00    +0.277 C 
ENDBRANCH  14  18
BRANCH  15  20
ATOM     20  O   LIG A   1      -6.277  -3.541 134.380  0.00  0.00    -0.491 OA
ATOM     21  C   LIG A   1      -7.182  -4.457 134.983  0.00  0.00    +0.277 C 
ENDBRANCH  15  20
ENDBRANCH  11  12
BRANCH   6  22
ATOM     22  O   LIG A   1      -8.262  -2.346 122.482  0.00  0.00    -0.503 OA
ATOM     23  H   LIG A   1      -8.367  -3.205 122.042  0.00  0.00    +0.292 HD
ENDBRANCH   6  22
BRANCH   7  24
ATOM     24  O   LIG A   1      -5.825  -1.823 124.019  0.00  0.00    -0.488 OA
ATOM     25  C   LIG A   1      -4.961  -2.803 123.458  0.00  0.00    +0.277 C 
ENDBRANCH   7  24
TORSDOF 5
ENDMDL
MODEL 5
REMARK VINA RESULT:      -6.6      9.085     11.893
REMARK  Name = NuBBE_2021
REMARK  8 active torsions:
REMARK  status: ('A' for Active; 'I' for Inactive)
REMARK    1  A    between atoms: C_6  and  O_7
REMARK    2  A    between atoms: C_8  and  O_9
REMARK    3  A    between atoms: O_9  and  C_10
REMARK    4  A    between atoms: C_14  and  C_15
REMARK    5  A    between atoms: C_17  and  O_18
REMARK    6  A    between atoms: O_18  and  C_19
REMARK    7  A    between atoms: C_20  and  O_21
REMARK    8  A    between atoms: O_21  and  C_22
REMARK                            x       y       z     vdW  Elec       q    Type
REMARK                         _______ _______ _______ _____ _____    ______ ____
ROOT
ATOM      1  O   LIG A   1      -5.044  -1.613 128.676  0.00  0.00    -0.286 OA
ATOM      2  C   LIG A   1      -6.099  -2.067 128.259  0.00  0.00    +0.200 A 
ATOM      3  C   LIG A   1      -6.589  -1.654 126.933  0.00  0.00    +0.068 A 
ATOM      4  C   LIG A   1      -5.843  -0.760 126.168  0.00  0.00    +0.019 A 
ATOM      5  C   LIG A   1      -6.308  -0.373 124.913  0.00  0.00    +0.050 A 
ATOM      6  C   LIG A   1      -7.513  -0.887 124.424  0.00  0.00    +0.162 A 
ATOM      7  C   LIG A   1      -8.271  -1.792 125.184  0.00  0.00    +0.205 A 
ATOM      8  C   LIG A   1      -7.795  -2.164 126.455  0.00  0.00    +0.183 A 
ATOM      9  O   LIG A   1      -8.549  -3.043 127.197  0.00  0.00    -0.458 OA
ATOM     10  C   LIG A   1      -8.074  -3.430 128.427  0.00  0.00    +0.208 A 
ATOM     11  C   LIG A   1      -6.941  -3.035 129.029  0.00  0.00    +0.064 A 
ENDROOT
BRANCH  11  12
ATOM     12  C   LIG A   1      -6.547  -3.561 130.359  0.00  0.00    -0.008 A 
ATOM     13  C   LIG A   1      -6.992  -2.964 131.550  0.00  0.00    +0.058 A 
ATOM     14  C   LIG A   1      -6.643  -3.466 132.816  0.00  0.00    +0.162 A 
ATOM     15  C   LIG A   1      -5.794  -4.578 132.907  0.00  0.00    +0.162 A 
ATOM     16  C   LIG A   1      -5.347  -5.183 131.729  0.00  0.00    +0.050 A 
ATOM     17  C   LIG A   1      -5.719  -4.682 130.478  0.00  0.00    +0.012 A 
BRANCH  14  18
ATOM     18  O   LIG A   1      -7.217  -2.744 133.833  0.00  0.00    -0.491 OA
ATOM     19  C   LIG A   1      -8.439  -3.206 134.390  0.00  0.00    +0.277 C 
ENDBRANCH  14  18
BRANCH  15  20
ATOM     20  O   LIG A   1      -5.479  -5.079 134.140  0.00  0.00    -0.491 OA
ATOM     21  C   LIG A   1      -4.339  -5.926 134.211  0.00  0.00    +0.277 C 
ENDBRANCH  15  20
ENDBRANCH  11  12
BRANCH   6  22
ATOM     22  O   LIG A   1      -7.939  -0.460 123.198  0.00  0.00    -0.503 OA
ATOM     23  H   LIG A   1      -7.936  -1.204 122.575  0.00  0.00    +0.292 HD
ENDBRANCH   6  22
BRANCH   7  24
ATOM     24  O   LIG A   1      -9.489  -2.324 124.839  0.00  0.00    -0.488 OA
ATOM     25  C   LIG A   1      -9.502  -3.334 123.840  0.00  0.00    +0.277 C 
ENDBRANCH   7  24
TORSDOF 5
ENDMDL
MODEL 6
REMARK VINA RESULT:      -6.6      1.671      7.748
REMARK  Name = NuBBE_2021
REMARK  8 active torsions:
REMARK  status: ('A' for Active; 'I' for Inactive)
REMARK    1  A    between atoms: C_6  and  O_7
REMARK    2  A    between atoms: C_8  and  O_9
REMARK    3  A    between atoms: O_9  and  C_10
REMARK    4  A    between atoms: C_14  and  C_15
REMARK    5  A    between atoms: C_17  and  O_18
REMARK    6  A    between atoms: O_18  and  C_19
REMARK    7  A    between atoms: C_20  and  O_21
REMARK    8  A    between atoms: O_21  and  C_22
REMARK                            x       y       z     vdW  Elec       q    Type
REMARK                         _______ _______ _______ _____ _____    ______ ____
ROOT
ATOM      1  O   LIG A   1     -10.558   6.429 132.888  0.00  0.00    -0.286 OA
ATOM      2  C   LIG A   1     -10.397   6.175 131.703  0.00  0.00    +0.200 A 
ATOM      3  C   LIG A   1     -11.289   6.790 130.705  0.00  0.00    +0.068 A 
ATOM      4  C   LIG A   1     -12.298   7.657 131.121  0.00  0.00    +0.019 A 
ATOM      5  C   LIG A   1     -13.139   8.238 130.175  0.00  0.00    +0.050 A 
ATOM      6  C   LIG A   1     -12.964   7.956 128.815  0.00  0.00    +0.162 A 
ATOM      7  C   LIG A   1     -11.948   7.088 128.385  0.00  0.00    +0.205 A 
ATOM      8  C   LIG A   1     -11.115   6.499 129.353  0.00  0.00    +0.183 A 
ATOM      9  O   LIG A   1     -10.129   5.642 128.924  0.00  0.00    -0.458 OA
ATOM     10  C   LIG A   1      -9.295   5.085 129.864  0.00  0.00    +0.208 A 
ATOM     11  C   LIG A   1      -9.329   5.260 131.194  0.00  0.00    +0.064 A 
ENDROOT
BRANCH  11  12
ATOM     12  C   LIG A   1      -8.341   4.605 132.086  0.00  0.00    -0.008 A 
ATOM     13  C   LIG A   1      -6.996   5.011 132.122  0.00  0.00    +0.058 A 
ATOM     14  C   LIG A   1      -6.055   4.412 132.978  0.00  0.00    +0.162 A 
ATOM     15  C   LIG A   1      -6.452   3.351 133.804  0.00  0.00    +0.162 A 
ATOM     16  C   LIG A   1      -7.787   2.940 133.780  0.00  0.00    +0.050 A 
ATOM     17  C   LIG A   1      -8.714   3.559 132.935  0.00  0.00    +0.012 A 
BRANCH  14  18
ATOM     18  O   LIG A   1      -4.815   4.990 132.865  0.00  0.00    -0.491 OA
ATOM     19  C   LIG A   1      -4.734   6.366 132.528  0.00  0.00    +0.277 C 
ENDBRANCH  14  18
BRANCH  15  20
ATOM     20  O   LIG A   1      -5.540   2.789 134.654  0.00  0.00    -0.491 OA
ATOM     21  C   LIG A   1      -4.975   1.547 134.253  0.00  0.00    +0.277 C 
ENDBRANCH  15  20
ENDBRANCH  11  12
BRANCH   6  22
ATOM     22  O   LIG A   1     -13.829   8.532 127.928  0.00  0.00    -0.503 OA
ATOM     23  H   LIG A   1     -13.900   9.482 128.113  0.00  0.00    +0.292 HD
ENDBRANCH   6  22
BRANCH   7  24
ATOM     24  O   LIG A   1     -11.710   6.694 127.092  0.00  0.00    -0.488 OA
ATOM     25  C   LIG A   1     -10.963   7.577 126.266  0.00  0.00    +0.277 C 
ENDBRANCH   7  24
TORSDOF 5
ENDMDL
MODEL 7
REMARK VINA RESULT:      -6.6      7.822     10.915
REMARK  Name = NuBBE_2021
REMARK  8 active torsions:
REMARK  status: ('A' for Active; 'I' for Inactive)
REMARK    1  A    between atoms: C_6  and  O_7
REMARK    2  A    between atoms: C_8  and  O_9
REMARK    3  A    between atoms: O_9  and  C_10
REMARK    4  A    between atoms: C_14  and  C_15
REMARK    5  A    between atoms: C_17  and  O_18
REMARK    6  A    between atoms: O_18  and  C_19
REMARK    7  A    between atoms: C_20  and  O_21
REMARK    8  A    between atoms: O_21  and  C_22
REMARK                            x       y       z     vdW  Elec       q    Type
REMARK                         _______ _______ _______ _____ _____    ______ ____
ROOT
ATOM      1  O   LIG A   1      -8.985  -3.784 128.139  0.00  0.00    -0.286 OA
ATOM      2  C   LIG A   1      -8.314  -2.869 127.686  0.00  0.00    +0.200 A 
ATOM      3  C   LIG A   1      -8.269  -2.659 126.228  0.00  0.00    +0.068 A 
ATOM      4  C   LIG A   1      -8.995  -3.498 125.386  0.00  0.00    +0.019 A 
ATOM      5  C   LIG A   1      -8.952  -3.297 124.009  0.00  0.00    +0.050 A 
ATOM      6  C   LIG A   1      -8.189  -2.251 123.478  0.00  0.00    +0.162 A 
ATOM      7  C   LIG A   1      -7.457  -1.396 124.317  0.00  0.00    +0.205 A 
ATOM      8  C   LIG A   1      -7.500  -1.620 125.705  0.00  0.00    +0.183 A 
ATOM      9  O   LIG A   1      -6.772  -0.785 126.519  0.00  0.00    -0.458 OA
ATOM     10  C   LIG A   1      -6.833  -0.983 127.878  0.00  0.00    +0.208 A 
ATOM     11  C   LIG A   1      -7.520  -1.930 128.537  0.00  0.00    +0.064 A 
ENDROOT
BRANCH  11  12
ATOM     12  C   LIG A   1      -7.506  -2.005 130.019  0.00  0.00    -0.008 A 
ATOM     13  C   LIG A   1      -6.870  -3.057 130.698  0.00  0.00    +0.058 A 
ATOM     14  C   LIG A   1      -6.832  -3.128 132.102  0.00  0.00    +0.162 A 
ATOM     15  C   LIG A   1      -7.478  -2.140 132.860  0.00  0.00    +0.162 A 
ATOM     16  C   LIG A   1      -8.112  -1.087 132.196  0.00  0.00    +0.050 A 
ATOM     17  C   LIG A   1      -8.124  -1.022 130.799  0.00  0.00    +0.012 A 
BRANCH  14  18
ATOM     18  O   LIG A   1      -6.131  -4.222 132.544  0.00  0.00    -0.491 OA
ATOM     19  C   LIG A   1      -5.373  -4.969 131.605  0.00  0.00    +0.277 C 
ENDBRANCH  14  18
BRANCH  15  20
ATOM     20  O   LIG A   1      -7.416  -2.199 134.225  0.00  0.00    -0.491 OA
ATOM     21  C   LIG A   1      -8.279  -3.133 134.862  0.00  0.00    +0.277 C 
ENDBRANCH  15  20
ENDBRANCH  11  12
BRANCH   6  22
ATOM     22  O   LIG A   1      -8.159  -2.108 122.120  0.00  0.00    -0.503 OA
ATOM     23  H   LIG A   1      -8.303  -2.971 121.699  0.00  0.00    +0.292 HD
ENDBRANCH   6  22
BRANCH   7  24
ATOM     24  O   LIG A   1      -6.633  -0.374 123.917  0.00  0.00    -0.488 OA
ATOM     25  C   LIG A   1      -7.245   0.863 123.576  0.00  0.00    +0.277 C 
ENDBRANCH   7  24
TORSDOF 5
ENDMDL
MODEL 8
REMARK VINA RESULT:      -6.3      7.450      9.430
REMARK  Name = NuBBE_2021
REMARK  8 active torsions:
REMARK  status: ('A' for Active; 'I' for Inactive)
REMARK    1  A    between atoms: C_6  and  O_7
REMARK    2  A    between atoms: C_8  and  O_9
REMARK    3  A    between atoms: O_9  and  C_10
REMARK    4  A    between atoms: C_14  and  C_15
REMARK    5  A    between atoms: C_17  and  O_18
REMARK    6  A    between atoms: O_18  and  C_19
REMARK    7  A    between atoms: C_20  and  O_21
REMARK    8  A    between atoms: O_21  and  C_22
REMARK                            x       y       z     vdW  Elec       q    Type
REMARK                         _______ _______ _______ _____ _____    ______ ____
ROOT
ATOM      1  O   LIG A   1      -8.303  -1.167 130.874  0.00  0.00    -0.286 OA
ATOM      2  C   LIG A   1      -7.582  -2.153 130.920  0.00  0.00    +0.200 A 
ATOM      3  C   LIG A   1      -6.969  -2.541 132.201  0.00  0.00    +0.068 A 
ATOM      4  C   LIG A   1      -7.221  -1.786 133.344  0.00  0.00    +0.019 A 
ATOM      5  C   LIG A   1      -6.641  -2.156 134.555  0.00  0.00    +0.050 A 
ATOM      6  C   LIG A   1      -5.816  -3.284 134.621  0.00  0.00    +0.162 A 
ATOM      7  C   LIG A   1      -5.558  -4.054 133.476  0.00  0.00    +0.205 A 
ATOM      8  C   LIG A   1      -6.141  -3.661 132.258  0.00  0.00    +0.183 A 
ATOM      9  O   LIG A   1      -5.874  -4.415 131.139  0.00  0.00    -0.458 OA
ATOM     10  C   LIG A   1      -6.464  -4.050 129.953  0.00  0.00    +0.208 A 
ATOM     11  C   LIG A   1      -7.279  -3.008 129.730  0.00  0.00    +0.064 A 
ENDROOT
BRANCH  11  12
ATOM     12  C   LIG A   1      -7.860  -2.753 128.389  0.00  0.00    -0.008 A 
ATOM     13  C   LIG A   1      -7.537  -1.602 127.651  0.00  0.00    +0.058 A 
ATOM     14  C   LIG A   1      -8.064  -1.360 126.370  0.00  0.00    +0.162 A 
ATOM     15  C   LIG A   1      -8.972  -2.273 125.815  0.00  0.00    +0.162 A 
ATOM     16  C   LIG A   1      -9.300  -3.423 126.537  0.00  0.00    +0.050 A 
ATOM     17  C   LIG A   1      -8.751  -3.658 127.802  0.00  0.00    +0.012 A 
BRANCH  14  18
ATOM     18  O   LIG A   1      -7.586  -0.193 125.828  0.00  0.00    -0.491 OA
ATOM     19  C   LIG A   1      -8.337   0.998 126.007  0.00  0.00    +0.277 C 
ENDBRANCH  14  18
BRANCH  15  20
ATOM     20  O   LIG A   1      -9.463  -2.046 124.558  0.00  0.00    -0.491 OA
ATOM     21  C   LIG A   1      -9.355  -3.118 123.629  0.00  0.00    +0.277 C 
ENDBRANCH  15  20
ENDBRANCH  11  12
BRANCH   6  22
ATOM     22  O   LIG A   1      -5.251  -3.592 135.826  0.00  0.00    -0.503 OA
ATOM     23  H   LIG A   1      -5.834  -3.296 136.544  0.00  0.00    +0.292 HD
ENDBRANCH   6  22
BRANCH   7  24
ATOM     24  O   LIG A   1      -4.729  -5.145 133.401  0.00  0.00    -0.488 OA
ATOM     25  C   LIG A   1      -3.329  -4.902 133.376  0.00  0.00    +0.277 C 
ENDBRANCH   7  24
TORSDOF 5
ENDMDL
MODEL 9
REMARK VINA RESULT:      -6.3      6.955      9.263
REMARK  Name = NuBBE_2021
REMARK  8 active torsions:
REMARK  status: ('A' for Active; 'I' for Inactive)
REMARK    1  A    between atoms: C_6  and  O_7
REMARK    2  A    between atoms: C_8  and  O_9
REMARK    3  A    between atoms: O_9  and  C_10
REMARK    4  A    between atoms: C_14  and  C_15
REMARK    5  A    between atoms: C_17  and  O_18
REMARK    6  A    between atoms: O_18  and  C_19
REMARK    7  A    between atoms: C_20  and  O_21
REMARK    8  A    between atoms: O_21  and  C_22
REMARK                            x       y       z     vdW  Elec       q    Type
REMARK                         _______ _______ _______ _____ _____    ______ ____
ROOT
ATOM      1  O   LIG A   1      -5.895   0.149 127.957  0.00  0.00    -0.286 OA
ATOM      2  C   LIG A   1      -6.275   0.463 126.839  0.00  0.00    +0.200 A 
ATOM      3  C   LIG A   1      -7.214  -0.417 126.122  0.00  0.00    +0.068 A 
ATOM      4  C   LIG A   1      -7.662  -1.588 126.727  0.00  0.00    +0.019 A 
ATOM      5  C   LIG A   1      -8.551  -2.417 126.047  0.00  0.00    +0.050 A 
ATOM      6  C   LIG A   1      -8.995  -2.069 124.766  0.00  0.00    +0.162 A 
ATOM      7  C   LIG A   1      -8.552  -0.888 124.149  0.00  0.00    +0.205 A 
ATOM      8  C   LIG A   1      -7.644  -0.067 124.842  0.00  0.00    +0.183 A 
ATOM      9  O   LIG A   1      -7.208   1.082 124.226  0.00  0.00    -0.458 OA
ATOM     10  C   LIG A   1      -6.343   1.900 124.911  0.00  0.00    +0.208 A 
ATOM     11  C   LIG A   1      -5.835   1.710 126.139  0.00  0.00    +0.064 A 
ENDROOT
BRANCH  11  12
ATOM     12  C   LIG A   1      -4.923   2.701 126.762  0.00  0.00    -0.008 A 
ATOM     13  C   LIG A   1      -5.405   3.736 127.579  0.00  0.00    +0.058 A 
ATOM     14  C   LIG A   1      -4.549   4.669 128.192  0.00  0.00    +0.162 A 
ATOM     15  C   LIG A   1      -3.168   4.593 127.958  0.00  0.00    +0.162 A 
ATOM     16  C   LIG A   1      -2.676   3.566 127.149  0.00  0.00    +0.050 A 
ATOM     17  C   LIG A   1      -3.540   2.636 126.563  0.00  0.00    +0.012 A 
BRANCH  14  18
ATOM     18  O   LIG A   1      -5.237   5.568 128.968  0.00  0.00    -0.491 OA
ATOM     19  C   LIG A   1      -5.439   5.267 130.340  0.00  0.00    +0.277 C 
ENDBRANCH  14  18
BRANCH  15  20
ATOM     20  O   LIG A   1      -2.337   5.486 128.577  0.00  0.00    -0.491 OA
ATOM     21  C   LIG A   1      -2.340   6.815 128.071  0.00  0.00    +0.277 C 
ENDBRANCH  15  20
ENDBRANCH  11  12
BRANCH   6  22
ATOM     22  O   LIG A   1      -9.847  -2.926 124.131  0.00  0.00    -0.503 OA
ATOM     23  H   LIG A   1     -10.734  -2.532 124.090  0.00  0.00    +0.292 HD
ENDBRANCH   6  22
BRANCH   7  24
ATOM     24  O   LIG A   1      -8.871  -0.464 122.883  0.00  0.00    -0.488 OA
ATOM     25  C   LIG A   1     -10.066   0.289 122.727  0.00  0.00    +0.277 C 
ENDBRANCH   7  24
TORSDOF 5
ENDMDL
