MODEL 1
REMARK VINA RESULT:      -8.7      0.000      0.000
REMARK  Name = NuBBE_913
REMARK  12 active torsions:
REMARK  status: ('A' for Active; 'I' for Inactive)
REMARK    1  A    between atoms: N_1  and  C_14
REMARK    2  A    between atoms: C_2  and  C_4
REMARK    3  A    between atoms: C_5  and  O_6
REMARK    4  A    between atoms: C_7  and  N_8
REMARK    5  A    between atoms: C_15  and  C_16
REMARK    6  A    between atoms: C_20  and  C_28
REMARK    7  A    between atoms: C_21  and  O_27
REMARK    8  A    between atoms: C_22  and  C_26
REMARK    9  A    between atoms: C_28  and  C_29
REMARK   10  A    between atoms: C_29  and  C_30
REMARK   11  A    between atoms: C_29  and  C_32
REMARK   12  A    between atoms: C_30  and  C_31
REMARK                            x       y       z     vdW  Elec       q    Type
REMARK                         _______ _______ _______ _____ _____    ______ ____
ROOT
ATOM      1  C   LIG A   1      -6.789   5.549 131.855  0.00  0.00    +0.223 C 
ATOM      2  C   LIG A   1      -6.309   4.111 131.469  0.00  0.00    +0.204 C 
ATOM      3  C   LIG A   1      -7.377   3.060 131.187  0.00  0.00    +0.054 C 
ATOM      4  O   LIG A   1      -5.288   4.089 130.429  0.00  0.00    -0.459 OA
ATOM      5  C   LIG A   1      -5.508   4.671 129.222  0.00  0.00    +0.313 C 
ATOM      6  O   LIG A   1      -6.606   4.980 128.781  0.00  0.00    -0.250 OA
ATOM      7  C   LIG A   1      -4.187   5.090 128.579  0.00  0.00    +0.130 C 
ATOM      8  C   LIG A   1      -3.599   6.355 129.265  0.00  0.00    +0.168 C 
ATOM      9  C   LIG A   1      -4.577   7.523 129.625  0.00  0.00    +0.203 C 
ATOM     10  O   LIG A   1      -5.745   7.139 130.397  0.00  0.00    -0.458 OA
ATOM     11  C   LIG A   1      -5.602   6.488 131.587  0.00  0.00    +0.332 C 
ATOM     12  O   LIG A   1      -4.551   6.441 132.217  0.00  0.00    -0.249 OA
ATOM     13  C   LIG A   1      -3.854   8.708 130.270  0.00  0.00    +0.055 C 
ENDROOT
BRANCH   1  14
ATOM     14  N   LIG A   1      -8.014   5.976 131.189  0.00  0.00    -0.295 N 
ATOM     15  C   LIG A   1      -9.233   6.021 131.825  0.00  0.00    +0.248 C 
ATOM     16  O   LIG A   1      -9.357   5.763 133.018  0.00  0.00    -0.270 OA
ATOM     17  H   LIG A   1      -7.961   6.222 130.201  0.00  0.00    +0.150 HD
BRANCH  15  18
ATOM     18  C   LIG A   1     -10.427   6.413 131.010  0.00  0.00    +0.080 A 
ATOM     19  C   LIG A   1     -10.441   6.385 129.607  0.00  0.00    +0.150 A 
ATOM     20  C   LIG A   1     -11.534   6.884 128.877  0.00  0.00    +0.076 A 
ATOM     21  C   LIG A   1     -12.682   7.275 129.579  0.00  0.00    +0.027 A 
ATOM     22  C   LIG A   1     -12.717   7.221 130.975  0.00  0.00    +0.003 A 
ATOM     23  C   LIG A   1     -11.585   6.818 131.687  0.00  0.00    +0.017 A 
BRANCH  20  24
ATOM     24  N   LIG A   1     -11.555   7.040 127.475  0.00  0.00    -0.285 N 
ATOM     25  C   LIG A   1     -10.868   7.954 126.719  0.00  0.00    +0.330 C 
ATOM     26  O   LIG A   1     -10.951   8.017 125.508  0.00  0.00    -0.279 OA
ATOM     27  H   LIG A   1     -12.228   6.505 126.939  0.00  0.00    +0.155 HD
ENDBRANCH  20  24
BRANCH  19  28
ATOM     28  O   LIG A   1      -9.392   5.793 128.954  0.00  0.00    -0.504 OA
ATOM     29  H   LIG A   1      -8.685   6.469 128.901  0.00  0.00    +0.292 HD
ENDBRANCH  19  28
ENDBRANCH  15  18
ENDBRANCH   1  14
BRANCH   8  30
ATOM     30  O   LIG A   1      -2.757   5.988 130.362  0.00  0.00    -0.387 OA
ATOM     31  H   LIG A   1      -2.480   6.791 130.849  0.00  0.00    +0.210 HD
ENDBRANCH   8  30
BRANCH   7  32
ATOM     32  C   LIG A   1      -3.201   3.889 128.519  0.00  0.00    +0.020 C 
BRANCH  32  33
ATOM     33  C   LIG A   1      -3.084   3.133 127.167  0.00  0.00    -0.013 C 
ATOM     34  C   LIG A   1      -1.629   2.989 126.701  0.00  0.00    +0.007 C 
BRANCH  33  35
ATOM     35  C   LIG A   1      -3.903   3.820 126.046  0.00  0.00    -0.000 C 
ATOM     36  C   LIG A   1      -5.162   3.075 125.616  0.00  0.00    +0.004 C 
ENDBRANCH  33  35
ENDBRANCH  32  33
ENDBRANCH   7  32
TORSDOF 8
ENDMDL
MODEL 2
REMARK VINA RESULT:      -8.1      2.923      3.976
REMARK  Name = NuBBE_913
REMARK  12 active torsions:
REMARK  status: ('A' for Active; 'I' for Inactive)
REMARK    1  A    between atoms: N_1  and  C_14
REMARK    2  A    between atoms: C_2  and  C_4
REMARK    3  A    between atoms: C_5  and  O_6
REMARK    4  A    between atoms: C_7  and  N_8
REMARK    5  A    between atoms: C_15  and  C_16
REMARK    6  A    between atoms: C_20  and  C_28
REMARK    7  A    between atoms: C_21  and  O_27
REMARK    8  A    between atoms: C_22  and  C_26
REMARK    9  A    between atoms: C_28  and  C_29
REMARK   10  A    between atoms: C_29  and  C_30
REMARK   11  A    between atoms: C_29  and  C_32
REMARK   12  A    between atoms: C_30  and  C_31
REMARK                            x       y       z     vdW  Elec       q    Type
REMARK                         _______ _______ _______ _____ _____    ______ ____
ROOT
ATOM      1  C   LIG A   1      -8.113   3.688 131.766  0.00  0.00    +0.223 C 
ATOM      2  C   LIG A   1      -8.618   2.216 131.912  0.00  0.00    +0.204 C 
ATOM      3  C   LIG A   1     -10.113   1.998 132.122  0.00  0.00    +0.054 C 
ATOM      4  O   LIG A   1      -8.113   1.314 130.885  0.00  0.00    -0.459 OA
ATOM      5  C   LIG A   1      -8.311   1.574 129.567  0.00  0.00    +0.313 C 
ATOM      6  O   LIG A   1      -9.138   2.357 129.123  0.00  0.00    -0.250 OA
ATOM      7  C   LIG A   1      -7.217   0.925 128.722  0.00  0.00    +0.130 C 
ATOM      8  C   LIG A   1      -5.874   1.699 128.841  0.00  0.00    +0.168 C 
ATOM      9  C   LIG A   1      -5.916   3.263 128.807  0.00  0.00    +0.203 C 
ATOM     10  O   LIG A   1      -6.834   3.879 129.748  0.00  0.00    -0.458 OA
ATOM     11  C   LIG A   1      -6.739   3.609 131.082  0.00  0.00    +0.332 C 
ATOM     12  O   LIG A   1      -5.754   3.100 131.607  0.00  0.00    -0.249 OA
ATOM     13  C   LIG A   1      -4.521   3.884 128.908  0.00  0.00    +0.055 C 
ENDROOT
BRANCH   1  14
ATOM     14  N   LIG A   1      -9.040   4.579 131.079  0.00  0.00    -0.295 N 
ATOM     15  C   LIG A   1      -9.605   5.680 131.682  0.00  0.00    +0.248 C 
ATOM     16  O   LIG A   1      -9.314   6.018 132.824  0.00  0.00    -0.270 OA
ATOM     17  H   LIG A   1      -9.299   4.354 130.119  0.00  0.00    +0.150 HD
BRANCH  15  18
ATOM     18  C   LIG A   1     -10.595   6.475 130.887  0.00  0.00    +0.080 A 
ATOM     19  C   LIG A   1     -10.387   6.843 129.549  0.00  0.00    +0.150 A 
ATOM     20  C   LIG A   1     -11.278   7.700 128.880  0.00  0.00    +0.076 A 
ATOM     21  C   LIG A   1     -12.467   8.063 129.527  0.00  0.00    +0.027 A 
ATOM     22  C   LIG A   1     -12.732   7.627 130.828  0.00  0.00    +0.003 A 
ATOM     23  C   LIG A   1     -11.788   6.861 131.514  0.00  0.00    +0.017 A 
BRANCH  20  24
ATOM     24  N   LIG A   1     -11.053   8.243 127.597  0.00  0.00    -0.285 N 
ATOM     25  C   LIG A   1     -11.109   7.599 126.389  0.00  0.00    +0.330 C 
ATOM     26  O   LIG A   1     -10.894   8.150 125.327  0.00  0.00    -0.279 OA
ATOM     27  H   LIG A   1     -10.698   9.189 127.528  0.00  0.00    +0.155 HD
ENDBRANCH  20  24
BRANCH  19  28
ATOM     28  O   LIG A   1      -9.327   6.293 128.877  0.00  0.00    -0.504 OA
ATOM     29  H   LIG A   1      -8.959   5.601 129.465  0.00  0.00    +0.292 HD
ENDBRANCH  19  28
ENDBRANCH  15  18
ENDBRANCH   1  14
BRANCH   8  30
ATOM     30  O   LIG A   1      -5.097   1.195 129.931  0.00  0.00    -0.387 OA
ATOM     31  H   LIG A   1      -5.290   0.244 130.063  0.00  0.00    +0.210 HD
ENDBRANCH   8  30
BRANCH   7  32
ATOM     32  C   LIG A   1      -7.102  -0.592 129.044  0.00  0.00    +0.020 C 
BRANCH  32  33
ATOM     33  C   LIG A   1      -7.377  -1.588 127.885  0.00  0.00    -0.013 C 
ATOM     34  C   LIG A   1      -8.160  -0.945 126.734  0.00  0.00    +0.007 C 
BRANCH  33  35
ATOM     35  C   LIG A   1      -8.143  -2.845 128.371  0.00  0.00    -0.000 C 
ATOM     36  C   LIG A   1      -8.854  -3.632 127.275  0.00  0.00    +0.004 C 
ENDBRANCH  33  35
ENDBRANCH  32  33
ENDBRANCH   7  32
TORSDOF 8
ENDMDL
MODEL 3
REMARK VINA RESULT:      -8.1      3.095      4.359
REMARK  Name = NuBBE_913
REMARK  12 active torsions:
REMARK  status: ('A' for Active; 'I' for Inactive)
REMARK    1  A    between atoms: N_1  and  C_14
REMARK    2  A    between atoms: C_2  and  C_4
REMARK    3  A    between atoms: C_5  and  O_6
REMARK    4  A    between atoms: C_7  and  N_8
REMARK    5  A    between atoms: C_15  and  C_16
REMARK    6  A    between atoms: C_20  and  C_28
REMARK    7  A    between atoms: C_21  and  O_27
REMARK    8  A    between atoms: C_22  and  C_26
REMARK    9  A    between atoms: C_28  and  C_29
REMARK   10  A    between atoms: C_29  and  C_30
REMARK   11  A    between atoms: C_29  and  C_32
REMARK   12  A    between atoms: C_30  and  C_31
REMARK                            x       y       z     vdW  Elec       q    Type
REMARK                         _______ _______ _______ _____ _____    ______ ____
ROOT
ATOM      1  C   LIG A   1      -7.197   4.624 130.172  0.00  0.00    +0.223 C 
ATOM      2  C   LIG A   1      -7.100   3.177 130.757  0.00  0.00    +0.204 C 
ATOM      3  C   LIG A   1      -8.020   2.820 131.918  0.00  0.00    +0.054 C 
ATOM      4  O   LIG A   1      -7.128   2.128 129.745  0.00  0.00    -0.459 OA
ATOM      5  C   LIG A   1      -8.159   2.032 128.867  0.00  0.00    +0.313 C 
ATOM      6  O   LIG A   1      -9.250   2.567 129.004  0.00  0.00    -0.250 OA
ATOM      7  C   LIG A   1      -7.705   1.349 127.579  0.00  0.00    +0.130 C 
ATOM      8  C   LIG A   1      -6.837   2.300 126.708  0.00  0.00    +0.168 C 
ATOM      9  C   LIG A   1      -7.294   3.789 126.558  0.00  0.00    +0.203 C 
ATOM     10  O   LIG A   1      -7.550   4.488 127.805  0.00  0.00    -0.458 OA
ATOM     11  C   LIG A   1      -6.583   4.564 128.764  0.00  0.00    +0.332 C 
ATOM     12  O   LIG A   1      -5.396   4.333 128.556  0.00  0.00    -0.249 OA
ATOM     13  C   LIG A   1      -6.359   4.596 125.655  0.00  0.00    +0.055 C 
ENDROOT
BRANCH   1  14
ATOM     14  N   LIG A   1      -8.540   5.191 130.183  0.00  0.00    -0.295 N 
ATOM     15  C   LIG A   1      -8.784   6.534 130.357  0.00  0.00    +0.248 C 
ATOM     16  O   LIG A   1      -7.877   7.354 130.453  0.00  0.00    -0.270 OA
ATOM     17  H   LIG A   1      -9.330   4.553 130.086  0.00  0.00    +0.150 HD
BRANCH  15  18
ATOM     18  C   LIG A   1     -10.213   6.978 130.417  0.00  0.00    +0.080 A 
ATOM     19  C   LIG A   1     -10.768   7.901 129.517  0.00  0.00    +0.150 A 
ATOM     20  C   LIG A   1     -12.075   8.391 129.687  0.00  0.00    +0.076 A 
ATOM     21  C   LIG A   1     -12.875   7.826 130.688  0.00  0.00    +0.027 A 
ATOM     22  C   LIG A   1     -12.365   6.837 131.534  0.00  0.00    +0.003 A 
ATOM     23  C   LIG A   1     -11.032   6.436 131.416  0.00  0.00    +0.017 A 
BRANCH  20  24
ATOM     24  N   LIG A   1     -12.642   9.435 128.925  0.00  0.00    -0.285 N 
ATOM     25  C   LIG A   1     -13.437  10.461 129.363  0.00  0.00    +0.330 C 
ATOM     26  O   LIG A   1     -13.887  11.319 128.628  0.00  0.00    -0.279 OA
ATOM     27  H   LIG A   1     -12.567   9.392 127.915  0.00  0.00    +0.155 HD
ENDBRANCH  20  24
BRANCH  19  28
ATOM     28  O   LIG A   1     -10.034   8.268 128.420  0.00  0.00    -0.504 OA
ATOM     29  H   LIG A   1     -10.396   9.128 128.123  0.00  0.00    +0.292 HD
ENDBRANCH  19  28
ENDBRANCH  15  18
ENDBRANCH   1  14
BRANCH   8  30
ATOM     30  O   LIG A   1      -5.455   2.183 127.059  0.00  0.00    -0.387 OA
ATOM     31  H   LIG A   1      -5.368   2.094 128.031  0.00  0.00    +0.210 HD
ENDBRANCH   8  30
BRANCH   7  32
ATOM     32  C   LIG A   1      -7.028  -0.016 127.891  0.00  0.00    +0.020 C 
BRANCH  32  33
ATOM     33  C   LIG A   1      -7.911  -1.117 128.537  0.00  0.00    -0.013 C 
ATOM     34  C   LIG A   1      -7.445  -1.487 129.951  0.00  0.00    +0.007 C 
BRANCH  33  35
ATOM     35  C   LIG A   1      -7.958  -2.403 127.674  0.00  0.00    -0.000 C 
ATOM     36  C   LIG A   1      -8.587  -3.615 128.353  0.00  0.00    +0.004 C 
ENDBRANCH  33  35
ENDBRANCH  32  33
ENDBRANCH   7  32
TORSDOF 8
ENDMDL
MODEL 4
REMARK VINA RESULT:      -8.1      4.043      5.883
REMARK  Name = NuBBE_913
REMARK  12 active torsions:
REMARK  status: ('A' for Active; 'I' for Inactive)
REMARK    1  A    between atoms: N_1  and  C_14
REMARK    2  A    between atoms: C_2  and  C_4
REMARK    3  A    between atoms: C_5  and  O_6
REMARK    4  A    between atoms: C_7  and  N_8
REMARK    5  A    between atoms: C_15  and  C_16
REMARK    6  A    between atoms: C_20  and  C_28
REMARK    7  A    between atoms: C_21  and  O_27
REMARK    8  A    between atoms: C_22  and  C_26
REMARK    9  A    between atoms: C_28  and  C_29
REMARK   10  A    between atoms: C_29  and  C_30
REMARK   11  A    between atoms: C_29  and  C_32
REMARK   12  A    between atoms: C_30  and  C_31
REMARK                            x       y       z     vdW  Elec       q    Type
REMARK                         _______ _______ _______ _____ _____    ______ ____
ROOT
ATOM      1  C   LIG A   1      -6.842   3.456 127.545  0.00  0.00    +0.223 C 
ATOM      2  C   LIG A   1      -6.517   2.055 128.160  0.00  0.00    +0.204 C 
ATOM      3  C   LIG A   1      -6.731   1.873 129.658  0.00  0.00    +0.054 C 
ATOM      4  O   LIG A   1      -7.098   0.939 127.424  0.00  0.00    -0.459 OA
ATOM      5  C   LIG A   1      -8.436   0.871 127.200  0.00  0.00    +0.313 C 
ATOM      6  O   LIG A   1      -9.283   1.511 127.807  0.00  0.00    -0.250 OA
ATOM      7  C   LIG A   1      -8.729   0.053 125.944  0.00  0.00    +0.130 C 
ATOM      8  C   LIG A   1      -8.388   0.852 124.655  0.00  0.00    +0.168 C 
ATOM      9  C   LIG A   1      -8.798   2.361 124.590  0.00  0.00    +0.203 C 
ATOM     10  O   LIG A   1      -8.356   3.173 125.709  0.00  0.00    -0.458 OA
ATOM     11  C   LIG A   1      -7.033   3.234 126.037  0.00  0.00    +0.332 C 
ATOM     12  O   LIG A   1      -6.128   2.880 125.288  0.00  0.00    -0.249 OA
ATOM     13  C   LIG A   1      -8.423   3.008 123.255  0.00  0.00    +0.055 C 
ENDROOT
BRANCH   1  14
ATOM     14  N   LIG A   1      -7.968   4.141 128.167  0.00  0.00    -0.295 N 
ATOM     15  C   LIG A   1      -7.818   5.052 129.188  0.00  0.00    +0.248 C 
ATOM     16  O   LIG A   1      -6.715   5.393 129.600  0.00  0.00    -0.270 OA
ATOM     17  H   LIG A   1      -8.908   3.908 127.845  0.00  0.00    +0.150 HD
BRANCH  15  18
ATOM     18  C   LIG A   1      -9.062   5.635 129.786  0.00  0.00    +0.080 A 
ATOM     19  C   LIG A   1      -9.994   6.378 129.045  0.00  0.00    +0.150 A 
ATOM     20  C   LIG A   1     -11.079   7.019 129.670  0.00  0.00    +0.076 A 
ATOM     21  C   LIG A   1     -11.302   6.778 131.031  0.00  0.00    +0.027 A 
ATOM     22  C   LIG A   1     -10.434   5.963 131.763  0.00  0.00    +0.003 A 
ATOM     23  C   LIG A   1      -9.304   5.418 131.149  0.00  0.00    +0.017 A 
BRANCH  20  24
ATOM     24  N   LIG A   1     -11.960   7.911 129.023  0.00  0.00    -0.285 N 
ATOM     25  C   LIG A   1     -12.597   9.001 129.556  0.00  0.00    +0.330 C 
ATOM     26  O   LIG A   1     -13.347   9.715 128.919  0.00  0.00    -0.279 OA
ATOM     27  H   LIG A   1     -12.268   7.690 128.083  0.00  0.00    +0.155 HD
ENDBRANCH  20  24
BRANCH  19  28
ATOM     28  O   LIG A   1      -9.868   6.412 127.682  0.00  0.00    -0.504 OA
ATOM     29  H   LIG A   1      -9.596   7.325 127.454  0.00  0.00    +0.292 HD
ENDBRANCH  19  28
ENDBRANCH  15  18
ENDBRANCH   1  14
BRANCH   8  30
ATOM     30  O   LIG A   1      -7.026   0.637 124.275  0.00  0.00    -0.387 OA
ATOM     31  H   LIG A   1      -6.739   1.344 123.660  0.00  0.00    +0.210 HD
ENDBRANCH   8  30
BRANCH   7  32
ATOM     32  C   LIG A   1      -8.041  -1.340 126.024  0.00  0.00    +0.020 C 
BRANCH  32  33
ATOM     33  C   LIG A   1      -8.958  -2.591 125.950  0.00  0.00    -0.013 C 
ATOM     34  C   LIG A   1      -8.869  -3.457 127.213  0.00  0.00    +0.007 C 
BRANCH  33  35
ATOM     35  C   LIG A   1      -8.638  -3.472 124.716  0.00  0.00    -0.000 C 
ATOM     36  C   LIG A   1      -9.340  -3.057 123.427  0.00  0.00    +0.004 C 
ENDBRANCH  33  35
ENDBRANCH  32  33
ENDBRANCH   7  32
TORSDOF 8
ENDMDL
MODEL 5
REMARK VINA RESULT:      -7.9      4.004      7.527
REMARK  Name = NuBBE_913
REMARK  12 active torsions:
REMARK  status: ('A' for Active; 'I' for Inactive)
REMARK    1  A    between atoms: N_1  and  C_14
REMARK    2  A    between atoms: C_2  and  C_4
REMARK    3  A    between atoms: C_5  and  O_6
REMARK    4  A    between atoms: C_7  and  N_8
REMARK    5  A    between atoms: C_15  and  C_16
REMARK    6  A    between atoms: C_20  and  C_28
REMARK    7  A    between atoms: C_21  and  O_27
REMARK    8  A    between atoms: C_22  and  C_26
REMARK    9  A    between atoms: C_28  and  C_29
REMARK   10  A    between atoms: C_29  and  C_30
REMARK   11  A    between atoms: C_29  and  C_32
REMARK   12  A    between atoms: C_30  and  C_31
REMARK                            x       y       z     vdW  Elec       q    Type
REMARK                         _______ _______ _______ _____ _____    ______ ____
ROOT
ATOM      1  C   LIG A   1      -6.440   3.254 130.296  0.00  0.00    +0.223 C 
ATOM      2  C   LIG A   1      -6.630   4.428 129.281  0.00  0.00    +0.204 C 
ATOM      3  C   LIG A   1      -6.550   4.100 127.794  0.00  0.00    +0.054 C 
ATOM      4  O   LIG A   1      -7.794   5.262 129.554  0.00  0.00    -0.459 OA
ATOM      5  C   LIG A   1      -9.038   4.722 129.631  0.00  0.00    +0.313 C 
ATOM      6  O   LIG A   1      -9.352   3.620 129.203  0.00  0.00    -0.250 OA
ATOM      7  C   LIG A   1      -9.941   5.578 130.516  0.00  0.00    +0.130 C 
ATOM      8  C   LIG A   1      -9.593   5.401 132.021  0.00  0.00    +0.168 C 
ATOM      9  C   LIG A   1      -9.303   3.956 132.548  0.00  0.00    +0.203 C 
ATOM     10  O   LIG A   1      -8.304   3.212 131.802  0.00  0.00    -0.458 OA
ATOM     11  C   LIG A   1      -7.053   3.725 131.624  0.00  0.00    +0.332 C 
ATOM     12  O   LIG A   1      -6.594   4.651 132.286  0.00  0.00    -0.249 OA
ATOM     13  C   LIG A   1      -9.002   3.934 134.048  0.00  0.00    +0.055 C 
ENDROOT
BRANCH   1  14
ATOM     14  N   LIG A   1      -6.975   1.974 129.845  0.00  0.00    -0.295 N 
ATOM     15  C   LIG A   1      -6.338   0.776 130.074  0.00  0.00    +0.248 C 
ATOM     16  O   LIG A   1      -5.305   0.701 130.731  0.00  0.00    -0.270 OA
ATOM     17  H   LIG A   1      -7.844   1.979 129.311  0.00  0.00    +0.150 HD
BRANCH  15  18
ATOM     18  C   LIG A   1      -6.959  -0.461 129.499  0.00  0.00    +0.080 A 
ATOM     19  C   LIG A   1      -7.262  -0.605 128.137  0.00  0.00    +0.150 A 
ATOM     20  C   LIG A   1      -7.963  -1.727 127.660  0.00  0.00    +0.076 A 
ATOM     21  C   LIG A   1      -8.224  -2.778 128.548  0.00  0.00    +0.027 A 
ATOM     22  C   LIG A   1      -7.844  -2.688 129.890  0.00  0.00    +0.003 A 
ATOM     23  C   LIG A   1      -7.240  -1.524 130.368  0.00  0.00    +0.017 A 
BRANCH  20  24
ATOM     24  N   LIG A   1      -8.445  -1.865 126.341  0.00  0.00    -0.285 N 
ATOM     25  C   LIG A   1      -9.343  -2.784 125.864  0.00  0.00    +0.330 C 
ATOM     26  O   LIG A   1      -9.699  -2.832 124.703  0.00  0.00    -0.279 OA
ATOM     27  H   LIG A   1      -8.017  -1.310 125.609  0.00  0.00    +0.155 HD
ENDBRANCH  20  24
BRANCH  19  28
ATOM     28  O   LIG A   1      -6.799   0.340 127.260  0.00  0.00    -0.504 OA
ATOM     29  H   LIG A   1      -6.035  -0.064 126.799  0.00  0.00    +0.292 HD
ENDBRANCH  19  28
ENDBRANCH  15  18
ENDBRANCH   1  14
BRANCH   8  30
ATOM     30  O   LIG A   1      -8.592   6.341 132.421  0.00  0.00    -0.387 OA
ATOM     31  H   LIG A   1      -7.722   6.069 132.063  0.00  0.00    +0.210 HD
ENDBRANCH   8  30
BRANCH   7  32
ATOM     32  C   LIG A   1      -9.936   7.058 130.037  0.00  0.00    +0.020 C 
BRANCH  32  33
ATOM     33  C   LIG A   1     -11.108   7.515 129.127  0.00  0.00    -0.013 C 
ATOM     34  C   LIG A   1     -10.637   8.400 127.966  0.00  0.00    +0.007 C 
BRANCH  33  35
ATOM     35  C   LIG A   1     -12.199   8.273 129.924  0.00  0.00    -0.000 C 
ATOM     36  C   LIG A   1     -12.852   7.474 131.047  0.00  0.00    +0.004 C 
ENDBRANCH  33  35
ENDBRANCH  32  33
ENDBRANCH   7  32
TORSDOF 8
ENDMDL
MODEL 6
REMARK VINA RESULT:      -7.6      4.320      7.175
REMARK  Name = NuBBE_913
REMARK  12 active torsions:
REMARK  status: ('A' for Active; 'I' for Inactive)
REMARK    1  A    between atoms: N_1  and  C_14
REMARK    2  A    between atoms: C_2  and  C_4
REMARK    3  A    between atoms: C_5  and  O_6
REMARK    4  A    between atoms: C_7  and  N_8
REMARK    5  A    between atoms: C_15  and  C_16
REMARK    6  A    between atoms: C_20  and  C_28
REMARK    7  A    between atoms: C_21  and  O_27
REMARK    8  A    between atoms: C_22  and  C_26
REMARK    9  A    between atoms: C_28  and  C_29
REMARK   10  A    between atoms: C_29  and  C_30
REMARK   11  A    between atoms: C_29  and  C_32
REMARK   12  A    between atoms: C_30  and  C_31
REMARK                            x       y       z     vdW  Elec       q    Type
REMARK                         _______ _______ _______ _____ _____    ______ ____
ROOT
ATOM      1  C   LIG A   1      -7.048   3.089 126.729  0.00  0.00    +0.223 C 
ATOM      2  C   LIG A   1      -5.725   2.319 126.410  0.00  0.00    +0.204 C 
ATOM      3  C   LIG A   1      -4.719   2.141 127.541  0.00  0.00    +0.054 C 
ATOM      4  O   LIG A   1      -5.931   1.058 125.709  0.00  0.00    -0.459 OA
ATOM      5  C   LIG A   1      -6.727   0.090 126.232  0.00  0.00    +0.313 C 
ATOM      6  O   LIG A   1      -7.085   0.031 127.400  0.00  0.00    -0.250 OA
ATOM      7  C   LIG A   1      -7.298  -0.792 125.124  0.00  0.00    +0.130 C 
ATOM      8  C   LIG A   1      -8.423  -0.061 124.339  0.00  0.00    +0.168 C 
ATOM      9  C   LIG A   1      -9.473   0.768 125.152  0.00  0.00    +0.203 C 
ATOM     10  O   LIG A   1      -8.916   1.738 126.077  0.00  0.00    -0.458 OA
ATOM     11  C   LIG A   1      -8.053   2.697 125.635  0.00  0.00    +0.332 C 
ATOM     12  O   LIG A   1      -7.915   2.998 124.454  0.00  0.00    -0.249 OA
ATOM     13  C   LIG A   1     -10.531   1.408 124.251  0.00  0.00    +0.055 C 
ENDROOT
BRANCH   1  14
ATOM     14  N   LIG A   1      -7.561   2.875 128.077  0.00  0.00    -0.295 N 
ATOM     15  C   LIG A   1      -8.266   3.833 128.770  0.00  0.00    +0.248 C 
ATOM     16  O   LIG A   1      -8.563   4.912 128.270  0.00  0.00    -0.270 OA
ATOM     17  H   LIG A   1      -7.358   1.984 128.531  0.00  0.00    +0.150 HD
BRANCH  15  18
ATOM     18  C   LIG A   1      -8.679   3.511 130.173  0.00  0.00    +0.080 A 
ATOM     19  C   LIG A   1      -8.519   4.403 131.245  0.00  0.00    +0.150 A 
ATOM     20  C   LIG A   1      -8.797   4.014 132.567  0.00  0.00    +0.076 A 
ATOM     21  C   LIG A   1      -9.385   2.761 132.784  0.00  0.00    +0.027 A 
ATOM     22  C   LIG A   1      -9.637   1.896 131.715  0.00  0.00    +0.003 A 
ATOM     23  C   LIG A   1      -9.259   2.259 130.420  0.00  0.00    +0.017 A 
BRANCH  20  24
ATOM     24  N   LIG A   1      -8.508   4.794 133.706  0.00  0.00    -0.285 N 
ATOM     25  C   LIG A   1      -7.717   4.464 134.775  0.00  0.00    +0.330 C 
ATOM     26  O   LIG A   1      -7.528   5.203 135.721  0.00  0.00    -0.279 OA
ATOM     27  H   LIG A   1      -9.015   5.662 133.839  0.00  0.00    +0.155 HD
ENDBRANCH  20  24
BRANCH  19  28
ATOM     28  O   LIG A   1      -8.150   5.693 130.971  0.00  0.00    -0.504 OA
ATOM     29  H   LIG A   1      -7.174   5.688 130.888  0.00  0.00    +0.292 HD
ENDBRANCH  19  28
ENDBRANCH  15  18
ENDBRANCH   1  14
BRANCH   8  30
ATOM     30  O   LIG A   1      -7.875   0.675 123.242  0.00  0.00    -0.387 OA
ATOM     31  H   LIG A   1      -6.908   0.771 123.359  0.00  0.00    +0.210 HD
ENDBRANCH   8  30
BRANCH   7  32
ATOM     32  C   LIG A   1      -6.158  -1.347 124.223  0.00  0.00    +0.020 C 
BRANCH  32  33
ATOM     33  C   LIG A   1      -6.171  -2.869 123.917  0.00  0.00    -0.013 C 
ATOM     34  C   LIG A   1      -7.363  -3.587 124.563  0.00  0.00    +0.007 C 
BRANCH  33  35
ATOM     35  C   LIG A   1      -4.862  -3.563 124.372  0.00  0.00    -0.000 C 
ATOM     36  C   LIG A   1      -4.466  -4.791 123.560  0.00  0.00    +0.004 C 
ENDBRANCH  33  35
ENDBRANCH  32  33
ENDBRANCH   7  32
TORSDOF 8
ENDMDL
MODEL 7
REMARK VINA RESULT:      -7.5      3.382      4.822
REMARK  Name = NuBBE_913
REMARK  12 active torsions:
REMARK  status: ('A' for Active; 'I' for Inactive)
REMARK    1  A    between atoms: N_1  and  C_14
REMARK    2  A    between atoms: C_2  and  C_4
REMARK    3  A    between atoms: C_5  and  O_6
REMARK    4  A    between atoms: C_7  and  N_8
REMARK    5  A    between atoms: C_15  and  C_16
REMARK    6  A    between atoms: C_20  and  C_28
REMARK    7  A    between atoms: C_21  and  O_27
REMARK    8  A    between atoms: C_22  and  C_26
REMARK    9  A    between atoms: C_28  and  C_29
REMARK   10  A    between atoms: C_29  and  C_30
REMARK   11  A    between atoms: C_29  and  C_32
REMARK   12  A    between atoms: C_30  and  C_31
REMARK                            x       y       z     vdW  Elec       q    Type
REMARK                         _______ _______ _______ _____ _____    ______ ____
ROOT
ATOM      1  C   LIG A   1      -6.918   2.455 129.969  0.00  0.00    +0.223 C 
ATOM      2  C   LIG A   1      -7.495   1.009 130.108  0.00  0.00    +0.204 C 
ATOM      3  C   LIG A   1      -8.831   0.846 130.825  0.00  0.00    +0.054 C 
ATOM      4  O   LIG A   1      -7.490   0.249 128.865  0.00  0.00    -0.459 OA
ATOM      5  C   LIG A   1      -8.115   0.721 127.755  0.00  0.00    +0.313 C 
ATOM      6  O   LIG A   1      -8.955   1.609 127.747  0.00  0.00    -0.250 OA
ATOM      7  C   LIG A   1      -7.471   0.149 126.493  0.00  0.00    +0.130 C 
ATOM      8  C   LIG A   1      -6.098   0.818 126.204  0.00  0.00    +0.168 C 
ATOM      9  C   LIG A   1      -5.979   2.368 126.382  0.00  0.00    +0.203 C 
ATOM     10  O   LIG A   1      -6.428   2.883 127.663  0.00  0.00    -0.458 OA
ATOM     11  C   LIG A   1      -5.895   2.405 128.823  0.00  0.00    +0.332 C 
ATOM     12  O   LIG A   1      -4.849   1.766 128.882  0.00  0.00    -0.249 OA
ATOM     13  C   LIG A   1      -4.581   2.886 126.038  0.00  0.00    +0.055 C 
ENDROOT
BRANCH   1  14
ATOM     14  N   LIG A   1      -7.925   3.493 129.788  0.00  0.00    -0.295 N 
ATOM     15  C   LIG A   1      -8.232   4.416 130.761  0.00  0.00    +0.248 C 
ATOM     16  O   LIG A   1      -7.629   4.464 131.828  0.00  0.00    -0.270 OA
ATOM     17  H   LIG A   1      -8.442   3.510 128.908  0.00  0.00    +0.150 HD
BRANCH  15  18
ATOM     18  C   LIG A   1      -9.335   5.388 130.473  0.00  0.00    +0.080 A 
ATOM     19  C   LIG A   1      -9.515   5.997 129.221  0.00  0.00    +0.150 A 
ATOM     20  C   LIG A   1     -10.480   7.001 129.030  0.00  0.00    +0.076 A 
ATOM     21  C   LIG A   1     -11.369   7.280 130.075  0.00  0.00    +0.027 A 
ATOM     22  C   LIG A   1     -11.262   6.614 131.299  0.00  0.00    +0.003 A 
ATOM     23  C   LIG A   1     -10.232   5.694 131.505  0.00  0.00    +0.017 A 
BRANCH  20  24
ATOM     24  N   LIG A   1     -10.610   7.769 127.853  0.00  0.00    -0.285 N 
ATOM     25  C   LIG A   1     -10.939   7.336 126.596  0.00  0.00    +0.330 C 
ATOM     26  O   LIG A   1     -11.023   8.075 125.634  0.00  0.00    -0.279 OA
ATOM     27  H   LIG A   1     -10.326   8.742 127.878  0.00  0.00    +0.155 HD
ENDBRANCH  20  24
BRANCH  19  28
ATOM     28  O   LIG A   1      -8.774   5.544 128.162  0.00  0.00    -0.504 OA
ATOM     29  H   LIG A   1      -9.373   5.548 127.386  0.00  0.00    +0.292 HD
ENDBRANCH  19  28
ENDBRANCH  15  18
ENDBRANCH   1  14
BRANCH   8  30
ATOM     30  O   LIG A   1      -5.044   0.109 126.861  0.00  0.00    -0.387 OA
ATOM     31  H   LIG A   1      -5.362  -0.232 127.723  0.00  0.00    +0.210 HD
ENDBRANCH   8  30
BRANCH   7  32
ATOM     32  C   LIG A   1      -7.416  -1.403 126.561  0.00  0.00    +0.020 C 
BRANCH  32  33
ATOM     33  C   LIG A   1      -8.139  -2.191 125.435  0.00  0.00    -0.013 C 
ATOM     34  C   LIG A   1      -9.375  -2.941 125.946  0.00  0.00    +0.007 C 
BRANCH  33  35
ATOM     35  C   LIG A   1      -7.194  -3.201 124.736  0.00  0.00    -0.000 C 
ATOM     36  C   LIG A   1      -5.909  -2.602 124.174  0.00  0.00    +0.004 C 
ENDBRANCH  33  35
ENDBRANCH  32  33
ENDBRANCH   7  32
TORSDOF 8
ENDMDL
MODEL 8
REMARK VINA RESULT:      -7.5      2.834      4.336
REMARK  Name = NuBBE_913
REMARK  12 active torsions:
REMARK  status: ('A' for Active; 'I' for Inactive)
REMARK    1  A    between atoms: N_1  and  C_14
REMARK    2  A    between atoms: C_2  and  C_4
REMARK    3  A    between atoms: C_5  and  O_6
REMARK    4  A    between atoms: C_7  and  N_8
REMARK    5  A    between atoms: C_15  and  C_16
REMARK    6  A    between atoms: C_20  and  C_28
REMARK    7  A    between atoms: C_21  and  O_27
REMARK    8  A    between atoms: C_22  and  C_26
REMARK    9  A    between atoms: C_28  and  C_29
REMARK   10  A    between atoms: C_29  and  C_30
REMARK   11  A    between atoms: C_29  and  C_32
REMARK   12  A    between atoms: C_30  and  C_31
REMARK                            x       y       z     vdW  Elec       q    Type
REMARK                         _______ _______ _______ _____ _____    ______ ____
ROOT
ATOM      1  C   LIG A   1      -6.647   3.840 129.344  0.00  0.00    +0.223 C 
ATOM      2  C   LIG A   1      -6.582   2.282 129.455  0.00  0.00    +0.204 C 
ATOM      3  C   LIG A   1      -7.438   1.612 130.524  0.00  0.00    +0.054 C 
ATOM      4  O   LIG A   1      -6.729   1.592 128.180  0.00  0.00    -0.459 OA
ATOM      5  C   LIG A   1      -7.821   1.796 127.398  0.00  0.00    +0.313 C 
ATOM      6  O   LIG A   1      -8.873   2.292 127.776  0.00  0.00    -0.250 OA
ATOM      7  C   LIG A   1      -7.489   1.526 125.932  0.00  0.00    +0.130 C 
ATOM      8  C   LIG A   1      -6.636   2.674 125.323  0.00  0.00    +0.168 C 
ATOM      9  C   LIG A   1      -7.028   4.149 125.667  0.00  0.00    +0.203 C 
ATOM     10  O   LIG A   1      -7.165   4.441 127.082  0.00  0.00    -0.458 OA
ATOM     11  C   LIG A   1      -6.133   4.196 127.940  0.00  0.00    +0.332 C 
ATOM     12  O   LIG A   1      -4.976   4.008 127.579  0.00  0.00    -0.249 OA
ATOM     13  C   LIG A   1      -6.118   5.168 124.978  0.00  0.00    +0.055 C 
ENDROOT
BRANCH   1  14
ATOM     14  N   LIG A   1      -7.957   4.411 129.632  0.00  0.00    -0.295 N 
ATOM     15  C   LIG A   1      -8.122   5.653 130.202  0.00  0.00    +0.248 C 
ATOM     16  O   LIG A   1      -7.173   6.388 130.449  0.00  0.00    -0.270 OA
ATOM     17  H   LIG A   1      -8.782   3.848 129.425  0.00  0.00    +0.150 HD
BRANCH  15  18
ATOM     18  C   LIG A   1      -9.520   6.095 130.509  0.00  0.00    +0.080 A 
ATOM     19  C   LIG A   1     -10.386   6.630 129.543  0.00  0.00    +0.150 A 
ATOM     20  C   LIG A   1     -11.642   7.154 129.897  0.00  0.00    +0.076 A 
ATOM     21  C   LIG A   1     -12.082   6.996 131.217  0.00  0.00    +0.027 A 
ATOM     22  C   LIG A   1     -11.268   6.380 132.172  0.00  0.00    +0.003 A 
ATOM     23  C   LIG A   1      -9.983   5.958 131.825  0.00  0.00    +0.017 A 
BRANCH  20  24
ATOM     24  N   LIG A   1     -12.494   7.851 129.014  0.00  0.00    -0.285 N 
ATOM     25  C   LIG A   1     -12.920   9.151 129.105  0.00  0.00    +0.330 C 
ATOM     26  O   LIG A   1     -13.662   9.670 128.295  0.00  0.00    -0.279 OA
ATOM     27  H   LIG A   1     -12.954   7.332 128.275  0.00  0.00    +0.155 HD
ENDBRANCH  20  24
BRANCH  19  28
ATOM     28  O   LIG A   1     -10.013   6.569 128.226  0.00  0.00    -0.504 OA
ATOM     29  H   LIG A   1     -10.839   6.640 127.703  0.00  0.00    +0.292 HD
ENDBRANCH  19  28
ENDBRANCH  15  18
ENDBRANCH   1  14
BRANCH   8  30
ATOM     30  O   LIG A   1      -5.241   2.419 125.512  0.00  0.00    -0.387 OA
ATOM     31  H   LIG A   1      -4.927   2.882 126.316  0.00  0.00    +0.210 HD
ENDBRANCH   8  30
BRANCH   7  32
ATOM     32  C   LIG A   1      -6.860   0.114 125.763  0.00  0.00    +0.020 C 
BRANCH  32  33
ATOM     33  C   LIG A   1      -6.893  -0.515 124.343  0.00  0.00    -0.013 C 
ATOM     34  C   LIG A   1      -8.211  -0.236 123.610  0.00  0.00    +0.007 C 
BRANCH  33  35
ATOM     35  C   LIG A   1      -6.656  -2.046 124.382  0.00  0.00    -0.000 C 
ATOM     36  C   LIG A   1      -5.339  -2.511 123.771  0.00  0.00    +0.004 C 
ENDBRANCH  33  35
ENDBRANCH  32  33
ENDBRANCH   7  32
TORSDOF 8
ENDMDL
MODEL 9
REMARK VINA RESULT:      -7.4      3.073      5.704
REMARK  Name = NuBBE_913
REMARK  12 active torsions:
REMARK  status: ('A' for Active; 'I' for Inactive)
REMARK    1  A    between atoms: N_1  and  C_14
REMARK    2  A    between atoms: C_2  and  C_4
REMARK    3  A    between atoms: C_5  and  O_6
REMARK    4  A    between atoms: C_7  and  N_8
REMARK    5  A    between atoms: C_15  and  C_16
REMARK    6  A    between atoms: C_20  and  C_28
REMARK    7  A    between atoms: C_21  and  O_27
REMARK    8  A    between atoms: C_22  and  C_26
REMARK    9  A    between atoms: C_28  and  C_29
REMARK   10  A    between atoms: C_29  and  C_30
REMARK   11  A    between atoms: C_29  and  C_32
REMARK   12  A    between atoms: C_30  and  C_31
REMARK                            x       y       z     vdW  Elec       q    Type
REMARK                         _______ _______ _______ _____ _____    ______ ____
ROOT
ATOM      1  C   LIG A   1      -7.349   2.753 129.855  0.00  0.00    +0.223 C 
ATOM      2  C   LIG A   1      -5.849   2.896 130.273  0.00  0.00    +0.204 C 
ATOM      3  C   LIG A   1      -4.792   2.362 129.312  0.00  0.00    +0.054 C 
ATOM      4  O   LIG A   1      -5.489   4.231 130.733  0.00  0.00    -0.459 OA
ATOM      5  C   LIG A   1      -5.690   5.319 129.946  0.00  0.00    +0.313 C 
ATOM      6  O   LIG A   1      -5.884   5.286 128.739  0.00  0.00    -0.250 OA
ATOM      7  C   LIG A   1      -5.861   6.575 130.799  0.00  0.00    +0.130 C 
ATOM      8  C   LIG A   1      -7.256   6.609 131.484  0.00  0.00    +0.168 C 
ATOM      9  C   LIG A   1      -8.505   6.190 130.641  0.00  0.00    +0.203 C 
ATOM     10  O   LIG A   1      -8.402   4.903 129.976  0.00  0.00    -0.458 OA
ATOM     11  C   LIG A   1      -8.131   3.775 130.695  0.00  0.00    +0.332 C 
ATOM     12  O   LIG A   1      -8.245   3.700 131.914  0.00  0.00    -0.249 OA
ATOM     13  C   LIG A   1      -9.807   6.297 131.437  0.00  0.00    +0.055 C 
ENDROOT
BRANCH   1  14
ATOM     14  N   LIG A   1      -7.592   2.887 128.424  0.00  0.00    -0.295 N 
ATOM     15  C   LIG A   1      -7.950   1.825 127.624  0.00  0.00    +0.248 C 
ATOM     16  O   LIG A   1      -8.149   0.704 128.079  0.00  0.00    -0.270 OA
ATOM     17  H   LIG A   1      -7.461   3.805 127.999  0.00  0.00    +0.150 HD
BRANCH  15  18
ATOM     18  C   LIG A   1      -8.105   2.083 126.157  0.00  0.00    +0.080 A 
ATOM     19  C   LIG A   1      -7.200   2.856 125.413  0.00  0.00    +0.150 A 
ATOM     20  C   LIG A   1      -7.451   3.183 124.069  0.00  0.00    +0.076 A 
ATOM     21  C   LIG A   1      -8.552   2.596 123.434  0.00  0.00    +0.027 A 
ATOM     22  C   LIG A   1      -9.412   1.748 124.138  0.00  0.00    +0.003 A 
ATOM     23  C   LIG A   1      -9.205   1.516 125.499  0.00  0.00    +0.017 A 
BRANCH  20  24
ATOM     24  N   LIG A   1      -6.676   4.084 123.309  0.00  0.00    -0.285 N 
ATOM     25  C   LIG A   1      -6.030   3.848 122.124  0.00  0.00    +0.330 C 
ATOM     26  O   LIG A   1      -5.377   4.690 121.538  0.00  0.00    -0.279 OA
ATOM     27  H   LIG A   1      -6.456   4.990 123.708  0.00  0.00    +0.155 HD
ENDBRANCH  20  24
BRANCH  19  28
ATOM     28  O   LIG A   1      -6.022   3.232 126.004  0.00  0.00    -0.504 OA
ATOM     29  H   LIG A   1      -5.883   4.172 125.765  0.00  0.00    +0.292 HD
ENDBRANCH  19  28
ENDBRANCH  15  18
ENDBRANCH   1  14
BRANCH   8  30
ATOM     30  O   LIG A   1      -7.208   5.954 132.755  0.00  0.00    -0.387 OA
ATOM     31  H   LIG A   1      -7.567   5.047 132.673  0.00  0.00    +0.210 HD
ENDBRANCH   8  30
BRANCH   7  32
ATOM     32  C   LIG A   1      -4.669   6.735 131.784  0.00  0.00    +0.020 C 
BRANCH  32  33
ATOM     33  C   LIG A   1      -3.431   7.525 131.281  0.00  0.00    -0.013 C 
ATOM     34  C   LIG A   1      -3.771   8.470 130.121  0.00  0.00    +0.007 C 
BRANCH  33  35
ATOM     35  C   LIG A   1      -2.282   6.583 130.839  0.00  0.00    -0.000 C 
ATOM     36  C   LIG A   1      -2.121   6.426 129.331  0.00  0.00    +0.004 C 
ENDBRANCH  33  35
ENDBRANCH  32  33
ENDBRANCH   7  32
TORSDOF 8
ENDMDL
