MODEL 1
REMARK VINA RESULT:      -7.3      0.000      0.000
REMARK  Name = NuBBE_2057
REMARK  8 active torsions:
REMARK  status: ('A' for Active; 'I' for Inactive)
REMARK    1  A    between atoms: C_6  and  O_7
REMARK    2  A    between atoms: O_7  and  C_8
REMARK    3  A    between atoms: C_8  and  C_9
REMARK    4  A    between atoms: C_9  and  C_10
REMARK    5  A    between atoms: C_9  and  O_14
REMARK    6  A    between atoms: C_10  and  C_11
REMARK    7  A    between atoms: C_10  and  C_12
REMARK    8  A    between atoms: C_10  and  O_13
REMARK                            x       y       z     vdW  Elec       q    Type
REMARK                         _______ _______ _______ _____ _____    ______ ____
ROOT
ATOM      1  O   LIG A   1      -7.099   4.589 118.356  0.00  0.00    -0.245 OA
ATOM      2  C   LIG A   1      -6.872   4.356 119.533  0.00  0.00    +0.337 A 
ATOM      3  O   LIG A   1      -7.831   3.819 120.380  0.00  0.00    -0.422 OA
ATOM      4  C   LIG A   1      -7.549   3.578 121.738  0.00  0.00    +0.146 A 
ATOM      5  C   LIG A   1      -8.593   3.039 122.499  0.00  0.00    +0.096 A 
ATOM      6  C   LIG A   1      -8.410   2.763 123.858  0.00  0.00    +0.169 A 
ATOM      7  C   LIG A   1      -7.162   3.065 124.396  0.00  0.00    +0.208 A 
ATOM      8  O   LIG A   1      -6.776   2.891 125.694  0.00  0.00    -0.449 OA
ATOM      9  C   LIG A   1      -5.410   3.349 125.652  0.00  0.00    +0.467 C 
ATOM     10  O   LIG A   1      -5.002   3.807 124.349  0.00  0.00    -0.452 OA
ATOM     11  C   LIG A   1      -6.139   3.595 123.626  0.00  0.00    +0.180 A 
ATOM     12  C   LIG A   1      -6.300   3.862 122.279  0.00  0.00    +0.063 A 
ATOM     13  C   LIG A   1      -5.270   4.407 121.411  0.00  0.00    +0.022 A 
ATOM     14  C   LIG A   1      -5.549   4.636 120.122  0.00  0.00    +0.093 A 
ENDROOT
BRANCH   6  15
ATOM     15  O   LIG A   1      -9.368   2.219 124.676  0.00  0.00    -0.485 OA
BRANCH  15  16
ATOM     16  C   LIG A   1     -10.234   1.258 124.036  0.00  0.00    +0.263 C 
BRANCH  16  17
ATOM     17  C   LIG A   1      -9.404   0.162 123.352  0.00  0.00    +0.183 C 
BRANCH  17  18
ATOM     18  C   LIG A   1      -8.846  -0.884 124.359  0.00  0.00    +0.089 C 
ATOM     19  C   LIG A   1      -9.067  -2.315 123.854  0.00  0.00    +0.044 C 
ATOM     20  C   LIG A   1      -7.361  -0.682 124.675  0.00  0.00    +0.044 C 
BRANCH  18  21
ATOM     21  O   LIG A   1      -9.562  -0.752 125.598  0.00  0.00    -0.387 OA
ATOM     22  H   LIG A   1      -9.780  -1.667 125.870  0.00  0.00    +0.210 HD
ENDBRANCH  18  21
ENDBRANCH  17  18
BRANCH  17  23
ATOM     23  O   LIG A   1     -10.255  -0.526 122.415  0.00  0.00    -0.386 OA
ATOM     24  H   LIG A   1      -9.722  -1.269 122.068  0.00  0.00    +0.210 HD
ENDBRANCH  17  23
ENDBRANCH  16  17
ENDBRANCH  15  16
ENDBRANCH   6  15
TORSDOF 6
ENDMDL
MODEL 2
REMARK VINA RESULT:      -7.1      8.645      9.999
REMARK  Name = NuBBE_2057
REMARK  8 active torsions:
REMARK  status: ('A' for Active; 'I' for Inactive)
REMARK    1  A    between atoms: C_6  and  O_7
REMARK    2  A    between atoms: O_7  and  C_8
REMARK    3  A    between atoms: C_8  and  C_9
REMARK    4  A    between atoms: C_9  and  C_10
REMARK    5  A    between atoms: C_9  and  O_14
REMARK    6  A    between atoms: C_10  and  C_11
REMARK    7  A    between atoms: C_10  and  C_12
REMARK    8  A    between atoms: C_10  and  O_13
REMARK                            x       y       z     vdW  Elec       q    Type
REMARK                         _______ _______ _______ _____ _____    ______ ____
ROOT
ATOM      1  O   LIG A   1      -3.947   8.329 129.767  0.00  0.00    -0.245 OA
ATOM      2  C   LIG A   1      -4.683   7.678 130.492  0.00  0.00    +0.337 A 
ATOM      3  O   LIG A   1      -6.053   7.603 130.281  0.00  0.00    -0.422 OA
ATOM      4  C   LIG A   1      -6.882   6.862 131.144  0.00  0.00    +0.146 A 
ATOM      5  C   LIG A   1      -8.248   6.861 130.838  0.00  0.00    +0.096 A 
ATOM      6  C   LIG A   1      -9.152   6.152 131.636  0.00  0.00    +0.169 A 
ATOM      7  C   LIG A   1      -8.625   5.478 132.733  0.00  0.00    +0.208 A 
ATOM      8  O   LIG A   1      -9.325   4.742 133.645  0.00  0.00    -0.449 OA
ATOM      9  C   LIG A   1      -8.272   4.282 134.514  0.00  0.00    +0.467 C 
ATOM     10  O   LIG A   1      -6.967   4.759 134.132  0.00  0.00    -0.452 OA
ATOM     11  C   LIG A   1      -7.268   5.487 133.019  0.00  0.00    +0.180 A 
ATOM     12  C   LIG A   1      -6.360   6.173 132.234  0.00  0.00    +0.063 A 
ATOM     13  C   LIG A   1      -4.927   6.218 132.468  0.00  0.00    +0.022 A 
ATOM     14  C   LIG A   1      -4.148   6.929 131.643  0.00  0.00    +0.093 A 
ENDROOT
BRANCH   6  15
ATOM     15  O   LIG A   1     -10.503   6.079 131.402  0.00  0.00    -0.485 OA
BRANCH  15  16
ATOM     16  C   LIG A   1     -11.047   7.187 130.655  0.00  0.00    +0.263 C 
BRANCH  16  17
ATOM     17  C   LIG A   1     -12.082   6.688 129.637  0.00  0.00    +0.183 C 
BRANCH  17  18
ATOM     18  C   LIG A   1     -12.101   7.538 128.334  0.00  0.00    +0.089 C 
ATOM     19  C   LIG A   1     -13.319   8.470 128.295  0.00  0.00    +0.044 C 
ATOM     20  C   LIG A   1     -10.825   8.362 128.137  0.00  0.00    +0.044 C 
BRANCH  18  21
ATOM     21  O   LIG A   1     -12.206   6.649 127.210  0.00  0.00    -0.387 OA
ATOM     22  H   LIG A   1     -13.078   6.213 127.306  0.00  0.00    +0.210 HD
ENDBRANCH  18  21
ENDBRANCH  17  18
BRANCH  17  23
ATOM     23  O   LIG A   1     -11.746   5.332 129.282  0.00  0.00    -0.386 OA
ATOM     24  H   LIG A   1     -12.535   4.797 129.498  0.00  0.00    +0.210 HD
ENDBRANCH  17  23
ENDBRANCH  16  17
ENDBRANCH  15  16
ENDBRANCH   6  15
TORSDOF 6
ENDMDL
MODEL 3
REMARK VINA RESULT:      -7.0      2.615      7.605
REMARK  Name = NuBBE_2057
REMARK  8 active torsions:
REMARK  status: ('A' for Active; 'I' for Inactive)
REMARK    1  A    between atoms: C_6  and  O_7
REMARK    2  A    between atoms: O_7  and  C_8
REMARK    3  A    between atoms: C_8  and  C_9
REMARK    4  A    between atoms: C_9  and  C_10
REMARK    5  A    between atoms: C_9  and  O_14
REMARK    6  A    between atoms: C_10  and  C_11
REMARK    7  A    between atoms: C_10  and  C_12
REMARK    8  A    between atoms: C_10  and  O_13
REMARK                            x       y       z     vdW  Elec       q    Type
REMARK                         _______ _______ _______ _____ _____    ______ ____
ROOT
ATOM      1  O   LIG A   1      -7.864  -3.205 130.172  0.00  0.00    -0.245 OA
ATOM      2  C   LIG A   1      -8.076  -2.906 129.007  0.00  0.00    +0.337 A 
ATOM      3  O   LIG A   1      -7.734  -1.666 128.487  0.00  0.00    -0.422 OA
ATOM      4  C   LIG A   1      -8.007  -1.340 127.145  0.00  0.00    +0.146 A 
ATOM      5  C   LIG A   1      -7.624  -0.058 126.731  0.00  0.00    +0.096 A 
ATOM      6  C   LIG A   1      -7.851   0.358 125.415  0.00  0.00    +0.169 A 
ATOM      7  C   LIG A   1      -8.480  -0.550 124.570  0.00  0.00    +0.208 A 
ATOM      8  O   LIG A   1      -8.810  -0.346 123.261  0.00  0.00    -0.449 OA
ATOM      9  C   LIG A   1      -9.404  -1.611 122.912  0.00  0.00    +0.467 C 
ATOM     10  O   LIG A   1      -9.444  -2.544 124.008  0.00  0.00    -0.452 OA
ATOM     11  C   LIG A   1      -8.851  -1.816 124.997  0.00  0.00    +0.180 A 
ATOM     12  C   LIG A   1      -8.622  -2.248 126.290  0.00  0.00    +0.063 A 
ATOM     13  C   LIG A   1      -8.973  -3.561 126.802  0.00  0.00    +0.022 A 
ATOM     14  C   LIG A   1      -8.713  -3.861 128.081  0.00  0.00    +0.093 A 
ENDROOT
BRANCH   6  15
ATOM     15  O   LIG A   1      -7.493   1.586 124.917  0.00  0.00    -0.485 OA
BRANCH  15  16
ATOM     16  C   LIG A   1      -7.520   2.660 125.879  0.00  0.00    +0.263 C 
BRANCH  16  17
ATOM     17  C   LIG A   1      -7.611   4.017 125.164  0.00  0.00    +0.183 C 
BRANCH  17  18
ATOM     18  C   LIG A   1      -6.214   4.625 124.853  0.00  0.00    +0.089 C 
ATOM     19  C   LIG A   1      -5.175   4.199 125.898  0.00  0.00    +0.044 C 
ATOM     20  C   LIG A   1      -5.702   4.268 123.454  0.00  0.00    +0.044 C 
BRANCH  18  21
ATOM     21  O   LIG A   1      -6.317   6.057 124.911  0.00  0.00    -0.387 OA
ATOM     22  H   LIG A   1      -7.095   6.283 124.361  0.00  0.00    +0.210 HD
ENDBRANCH  18  21
ENDBRANCH  17  18
BRANCH  17  23
ATOM     23  O   LIG A   1      -8.303   3.820 123.916  0.00  0.00    -0.386 OA
ATOM     24  H   LIG A   1      -8.141   4.629 123.392  0.00  0.00    +0.210 HD
ENDBRANCH  17  23
ENDBRANCH  16  17
ENDBRANCH  15  16
ENDBRANCH   6  15
TORSDOF 6
ENDMDL
MODEL 4
REMARK VINA RESULT:      -6.9      2.195      5.381
REMARK  Name = NuBBE_2057
REMARK  8 active torsions:
REMARK  status: ('A' for Active; 'I' for Inactive)
REMARK    1  A    between atoms: C_6  and  O_7
REMARK    2  A    between atoms: O_7  and  C_8
REMARK    3  A    between atoms: C_8  and  C_9
REMARK    4  A    between atoms: C_9  and  C_10
REMARK    5  A    between atoms: C_9  and  O_14
REMARK    6  A    between atoms: C_10  and  C_11
REMARK    7  A    between atoms: C_10  and  C_12
REMARK    8  A    between atoms: C_10  and  O_13
REMARK                            x       y       z     vdW  Elec       q    Type
REMARK                         _______ _______ _______ _____ _____    ______ ____
ROOT
ATOM      1  O   LIG A   1      -5.270   5.344 119.090  0.00  0.00    -0.245 OA
ATOM      2  C   LIG A   1      -5.929   4.796 119.960  0.00  0.00    +0.337 A 
ATOM      3  O   LIG A   1      -5.457   4.636 121.255  0.00  0.00    -0.422 OA
ATOM      4  C   LIG A   1      -6.230   3.983 122.235  0.00  0.00    +0.146 A 
ATOM      5  C   LIG A   1      -5.651   3.873 123.505  0.00  0.00    +0.096 A 
ATOM      6  C   LIG A   1      -6.341   3.242 124.545  0.00  0.00    +0.169 A 
ATOM      7  C   LIG A   1      -7.599   2.730 124.243  0.00  0.00    +0.208 A 
ATOM      8  O   LIG A   1      -8.431   2.068 125.099  0.00  0.00    -0.449 OA
ATOM      9  C   LIG A   1      -9.566   1.804 124.251  0.00  0.00    +0.467 C 
ATOM     10  O   LIG A   1      -9.396   2.286 122.904  0.00  0.00    -0.452 OA
ATOM     11  C   LIG A   1      -8.157   2.850 122.980  0.00  0.00    +0.180 A 
ATOM     12  C   LIG A   1      -7.494   3.481 121.944  0.00  0.00    +0.063 A 
ATOM     13  C   LIG A   1      -8.022   3.653 120.601  0.00  0.00    +0.022 A 
ATOM     14  C   LIG A   1      -7.278   4.272 119.676  0.00  0.00    +0.093 A 
ENDROOT
BRANCH   6  15
ATOM     15  O   LIG A   1      -5.861   3.105 125.824  0.00  0.00    -0.485 OA
BRANCH  15  16
ATOM     16  C   LIG A   1      -4.513   3.579 126.018  0.00  0.00    +0.263 C 
BRANCH  16  17
ATOM     17  C   LIG A   1      -4.422   4.428 127.294  0.00  0.00    +0.183 C 
BRANCH  17  18
ATOM     18  C   LIG A   1      -3.006   4.393 127.938  0.00  0.00    +0.089 C 
ATOM     19  C   LIG A   1      -3.091   4.200 129.458  0.00  0.00    +0.044 C 
ATOM     20  C   LIG A   1      -2.101   3.313 127.340  0.00  0.00    +0.044 C 
BRANCH  18  21
ATOM     21  O   LIG A   1      -2.366   5.657 127.703  0.00  0.00    -0.387 OA
ATOM     22  H   LIG A   1      -2.635   6.227 128.452  0.00  0.00    +0.210 HD
ENDBRANCH  18  21
ENDBRANCH  17  18
BRANCH  17  23
ATOM     23  O   LIG A   1      -4.722   5.794 126.946  0.00  0.00    -0.386 OA
ATOM     24  H   LIG A   1      -5.582   5.992 127.366  0.00  0.00    +0.210 HD
ENDBRANCH  17  23
ENDBRANCH  16  17
ENDBRANCH  15  16
ENDBRANCH   6  15
TORSDOF 6
ENDMDL
MODEL 5
REMARK VINA RESULT:      -6.8      2.846      7.660
REMARK  Name = NuBBE_2057
REMARK  8 active torsions:
REMARK  status: ('A' for Active; 'I' for Inactive)
REMARK    1  A    between atoms: C_6  and  O_7
REMARK    2  A    between atoms: O_7  and  C_8
REMARK    3  A    between atoms: C_8  and  C_9
REMARK    4  A    between atoms: C_9  and  C_10
REMARK    5  A    between atoms: C_9  and  O_14
REMARK    6  A    between atoms: C_10  and  C_11
REMARK    7  A    between atoms: C_10  and  C_12
REMARK    8  A    between atoms: C_10  and  O_13
REMARK                            x       y       z     vdW  Elec       q    Type
REMARK                         _______ _______ _______ _____ _____    ______ ____
ROOT
ATOM      1  O   LIG A   1      -7.607  -2.977 130.530  0.00  0.00    -0.245 OA
ATOM      2  C   LIG A   1      -7.850  -2.900 129.335  0.00  0.00    +0.337 A 
ATOM      3  O   LIG A   1      -7.202  -1.997 128.505  0.00  0.00    -0.422 OA
ATOM      4  C   LIG A   1      -7.514  -1.916 127.134  0.00  0.00    +0.146 A 
ATOM      5  C   LIG A   1      -6.801  -0.964 126.394  0.00  0.00    +0.096 A 
ATOM      6  C   LIG A   1      -7.040  -0.809 125.025  0.00  0.00    +0.169 A 
ATOM      7  C   LIG A   1      -8.016  -1.626 124.462  0.00  0.00    +0.208 A 
ATOM      8  O   LIG A   1      -8.415  -1.630 123.157  0.00  0.00    -0.449 OA
ATOM      9  C   LIG A   1      -9.411  -2.671 123.163  0.00  0.00    +0.467 C 
ATOM     10  O   LIG A   1      -9.612  -3.261 124.461  0.00  0.00    -0.452 OA
ATOM     11  C   LIG A   1      -8.710  -2.564 125.210  0.00  0.00    +0.180 A 
ATOM     12  C   LIG A   1      -8.478  -2.739 126.562  0.00  0.00    +0.063 A 
ATOM     13  C   LIG A   1      -9.158  -3.708 127.403  0.00  0.00    +0.022 A 
ATOM     14  C   LIG A   1      -8.856  -3.775 128.706  0.00  0.00    +0.093 A 
ENDROOT
BRANCH   6  15
ATOM     15  O   LIG A   1      -6.377   0.081 124.217  0.00  0.00    -0.485 OA
BRANCH  15  16
ATOM     16  C   LIG A   1      -6.790   1.455 124.367  0.00  0.00    +0.263 C 
BRANCH  16  17
ATOM     17  C   LIG A   1      -7.053   2.088 122.992  0.00  0.00    +0.183 C 
BRANCH  17  18
ATOM     18  C   LIG A   1      -8.457   2.752 122.896  0.00  0.00    +0.089 C 
ATOM     19  C   LIG A   1      -8.674   3.396 121.521  0.00  0.00    +0.044 C 
ATOM     20  C   LIG A   1      -9.602   1.778 123.187  0.00  0.00    +0.044 C 
BRANCH  18  21
ATOM     21  O   LIG A   1      -8.534   3.799 123.876  0.00  0.00    -0.387 OA
ATOM     22  H   LIG A   1      -9.093   3.439 124.595  0.00  0.00    +0.210 HD
ENDBRANCH  18  21
ENDBRANCH  17  18
BRANCH  17  23
ATOM     23  O   LIG A   1      -6.059   3.106 122.770  0.00  0.00    -0.386 OA
ATOM     24  H   LIG A   1      -5.195   2.661 122.871  0.00  0.00    +0.210 HD
ENDBRANCH  17  23
ENDBRANCH  16  17
ENDBRANCH  15  16
ENDBRANCH   6  15
TORSDOF 6
ENDMDL
MODEL 6
REMARK VINA RESULT:      -6.7      7.787      8.700
REMARK  Name = NuBBE_2057
REMARK  8 active torsions:
REMARK  status: ('A' for Active; 'I' for Inactive)
REMARK    1  A    between atoms: C_6  and  O_7
REMARK    2  A    between atoms: O_7  and  C_8
REMARK    3  A    between atoms: C_8  and  C_9
REMARK    4  A    between atoms: C_9  and  C_10
REMARK    5  A    between atoms: C_9  and  O_14
REMARK    6  A    between atoms: C_10  and  C_11
REMARK    7  A    between atoms: C_10  and  C_12
REMARK    8  A    between atoms: C_10  and  O_13
REMARK                            x       y       z     vdW  Elec       q    Type
REMARK                         _______ _______ _______ _____ _____    ______ ____
ROOT
ATOM      1  O   LIG A   1     -13.798   7.370 127.640  0.00  0.00    -0.245 OA
ATOM      2  C   LIG A   1     -12.732   7.238 128.223  0.00  0.00    +0.337 A 
ATOM      3  O   LIG A   1     -12.463   6.146 129.036  0.00  0.00    -0.422 OA
ATOM      4  C   LIG A   1     -11.234   6.028 129.712  0.00  0.00    +0.146 A 
ATOM      5  C   LIG A   1     -11.075   4.888 130.510  0.00  0.00    +0.096 A 
ATOM      6  C   LIG A   1      -9.888   4.680 131.219  0.00  0.00    +0.169 A 
ATOM      7  C   LIG A   1      -8.906   5.660 131.100  0.00  0.00    +0.208 A 
ATOM      8  O   LIG A   1      -7.687   5.664 131.714  0.00  0.00    -0.449 OA
ATOM      9  C   LIG A   1      -7.115   6.887 131.209  0.00  0.00    +0.467 C 
ATOM     10  O   LIG A   1      -7.995   7.605 130.323  0.00  0.00    -0.452 OA
ATOM     11  C   LIG A   1      -9.080   6.781 130.303  0.00  0.00    +0.180 A 
ATOM     12  C   LIG A   1     -10.243   6.995 129.586  0.00  0.00    +0.063 A 
ATOM     13  C   LIG A   1     -10.489   8.139 128.725  0.00  0.00    +0.022 A 
ATOM     14  C   LIG A   1     -11.663   8.243 128.089  0.00  0.00    +0.093 A 
ENDROOT
BRANCH   6  15
ATOM     15  O   LIG A   1      -9.637   3.586 132.009  0.00  0.00    -0.485 OA
BRANCH  15  16
ATOM     16  C   LIG A   1      -9.598   2.328 131.304  0.00  0.00    +0.263 C 
BRANCH  16  17
ATOM     17  C   LIG A   1      -8.382   1.502 131.749  0.00  0.00    +0.183 C 
BRANCH  17  18
ATOM     18  C   LIG A   1      -7.059   1.973 131.079  0.00  0.00    +0.089 C 
ATOM     19  C   LIG A   1      -5.994   0.870 131.115  0.00  0.00    +0.044 C 
ATOM     20  C   LIG A   1      -7.253   2.444 129.635  0.00  0.00    +0.044 C 
BRANCH  18  21
ATOM     21  O   LIG A   1      -6.544   3.090 131.821  0.00  0.00    -0.387 OA
ATOM     22  H   LIG A   1      -5.675   3.289 131.418  0.00  0.00    +0.210 HD
ENDBRANCH  18  21
ENDBRANCH  17  18
BRANCH  17  23
ATOM     23  O   LIG A   1      -8.239   1.648 133.175  0.00  0.00    -0.386 OA
ATOM     24  H   LIG A   1      -7.473   1.094 133.424  0.00  0.00    +0.210 HD
ENDBRANCH  17  23
ENDBRANCH  16  17
ENDBRANCH  15  16
ENDBRANCH   6  15
TORSDOF 6
ENDMDL
MODEL 7
REMARK VINA RESULT:      -6.4      6.359      8.650
REMARK  Name = NuBBE_2057
REMARK  8 active torsions:
REMARK  status: ('A' for Active; 'I' for Inactive)
REMARK    1  A    between atoms: C_6  and  O_7
REMARK    2  A    between atoms: O_7  and  C_8
REMARK    3  A    between atoms: C_8  and  C_9
REMARK    4  A    between atoms: C_9  and  C_10
REMARK    5  A    between atoms: C_9  and  O_14
REMARK    6  A    between atoms: C_10  and  C_11
REMARK    7  A    between atoms: C_10  and  C_12
REMARK    8  A    between atoms: C_10  and  O_13
REMARK                            x       y       z     vdW  Elec       q    Type
REMARK                         _______ _______ _______ _____ _____    ______ ____
ROOT
ATOM      1  O   LIG A   1     -13.816   7.055 128.359  0.00  0.00    -0.245 OA
ATOM      2  C   LIG A   1     -12.894   6.866 129.137  0.00  0.00    +0.337 A 
ATOM      3  O   LIG A   1     -11.654   6.407 128.718  0.00  0.00    -0.422 OA
ATOM      4  C   LIG A   1     -10.614   6.179 129.639  0.00  0.00    +0.146 A 
ATOM      5  C   LIG A   1      -9.407   5.711 129.104  0.00  0.00    +0.096 A 
ATOM      6  C   LIG A   1      -8.314   5.456 129.939  0.00  0.00    +0.169 A 
ATOM      7  C   LIG A   1      -8.500   5.675 131.300  0.00  0.00    +0.208 A 
ATOM      8  O   LIG A   1      -7.578   5.477 132.287  0.00  0.00    -0.449 OA
ATOM      9  C   LIG A   1      -8.316   5.881 133.457  0.00  0.00    +0.467 C 
ATOM     10  O   LIG A   1      -9.665   6.293 133.166  0.00  0.00    -0.452 OA
ATOM     11  C   LIG A   1      -9.702   6.142 131.812  0.00  0.00    +0.180 A 
ATOM     12  C   LIG A   1     -10.788   6.410 130.999  0.00  0.00    +0.063 A 
ATOM     13  C   LIG A   1     -12.070   6.910 131.464  0.00  0.00    +0.022 A 
ATOM     14  C   LIG A   1     -13.054   7.120 130.580  0.00  0.00    +0.093 A 
ENDROOT
BRANCH   6  15
ATOM     15  O   LIG A   1      -7.090   5.015 129.502  0.00  0.00    -0.485 OA
BRANCH  15  16
ATOM     16  C   LIG A   1      -7.087   3.676 128.964  0.00  0.00    +0.263 C 
BRANCH  16  17
ATOM     17  C   LIG A   1      -6.442   3.661 127.571  0.00  0.00    +0.183 C 
BRANCH  17  18
ATOM     18  C   LIG A   1      -7.468   3.372 126.438  0.00  0.00    +0.089 C 
ATOM     19  C   LIG A   1      -7.970   4.672 125.796  0.00  0.00    +0.044 C 
ATOM     20  C   LIG A   1      -6.915   2.450 125.348  0.00  0.00    +0.044 C 
BRANCH  18  21
ATOM     21  O   LIG A   1      -8.607   2.711 127.012  0.00  0.00    -0.387 OA
ATOM     22  H   LIG A   1      -8.543   1.780 126.714  0.00  0.00    +0.210 HD
ENDBRANCH  18  21
ENDBRANCH  17  18
BRANCH  17  23
ATOM     23  O   LIG A   1      -5.862   4.958 127.330  0.00  0.00    -0.386 OA
ATOM     24  H   LIG A   1      -5.202   5.090 128.039  0.00  0.00    +0.210 HD
ENDBRANCH  17  23
ENDBRANCH  16  17
ENDBRANCH  15  16
ENDBRANCH   6  15
TORSDOF 6
ENDMDL
MODEL 8
REMARK VINA RESULT:      -6.3      8.636      9.804
REMARK  Name = NuBBE_2057
REMARK  8 active torsions:
REMARK  status: ('A' for Active; 'I' for Inactive)
REMARK    1  A    between atoms: C_6  and  O_7
REMARK    2  A    between atoms: O_7  and  C_8
REMARK    3  A    between atoms: C_8  and  C_9
REMARK    4  A    between atoms: C_9  and  C_10
REMARK    5  A    between atoms: C_9  and  O_14
REMARK    6  A    between atoms: C_10  and  C_11
REMARK    7  A    between atoms: C_10  and  C_12
REMARK    8  A    between atoms: C_10  and  O_13
REMARK                            x       y       z     vdW  Elec       q    Type
REMARK                         _______ _______ _______ _____ _____    ______ ____
ROOT
ATOM      1  O   LIG A   1      -3.208   7.318 128.611  0.00  0.00    -0.245 OA
ATOM      2  C   LIG A   1      -3.809   6.711 129.484  0.00  0.00    +0.337 A 
ATOM      3  O   LIG A   1      -5.103   7.041 129.859  0.00  0.00    -0.422 OA
ATOM      4  C   LIG A   1      -5.767   6.337 130.882  0.00  0.00    +0.146 A 
ATOM      5  C   LIG A   1      -7.067   6.762 131.180  0.00  0.00    +0.096 A 
ATOM      6  C   LIG A   1      -7.809   6.123 132.179  0.00  0.00    +0.169 A 
ATOM      7  C   LIG A   1      -7.184   5.078 132.853  0.00  0.00    +0.208 A 
ATOM      8  O   LIG A   1      -7.715   4.335 133.867  0.00  0.00    -0.449 OA
ATOM      9  C   LIG A   1      -6.641   3.415 134.144  0.00  0.00    +0.467 C 
ATOM     10  O   LIG A   1      -5.480   3.628 133.317  0.00  0.00    -0.452 OA
ATOM     11  C   LIG A   1      -5.895   4.670 132.543  0.00  0.00    +0.180 A 
ATOM     12  C   LIG A   1      -5.154   5.282 131.549  0.00  0.00    +0.063 A 
ATOM     13  C   LIG A   1      -3.806   4.901 131.164  0.00  0.00    +0.022 A 
ATOM     14  C   LIG A   1      -3.183   5.579 130.192  0.00  0.00    +0.093 A 
ENDROOT
BRANCH   6  15
ATOM     15  O   LIG A   1      -9.094   6.458 132.526  0.00  0.00    -0.485 OA
BRANCH  15  16
ATOM     16  C   LIG A   1     -10.119   5.811 131.743  0.00  0.00    +0.263 C 
BRANCH  16  17
ATOM     17  C   LIG A   1     -11.247   6.800 131.417  0.00  0.00    +0.183 C 
BRANCH  17  18
ATOM     18  C   LIG A   1     -11.392   7.062 129.890  0.00  0.00    +0.089 C 
ATOM     19  C   LIG A   1     -12.606   7.951 129.592  0.00  0.00    +0.044 C 
ATOM     20  C   LIG A   1     -10.141   7.687 129.267  0.00  0.00    +0.044 C 
BRANCH  18  21
ATOM     21  O   LIG A   1     -11.609   5.805 129.230  0.00  0.00    -0.387 OA
ATOM     22  H   LIG A   1     -10.932   5.201 129.596  0.00  0.00    +0.210 HD
ENDBRANCH  18  21
ENDBRANCH  17  18
BRANCH  17  23
ATOM     23  O   LIG A   1     -12.486   6.241 131.896  0.00  0.00    -0.386 OA
ATOM     24  H   LIG A   1     -12.244   5.661 132.645  0.00  0.00    +0.210 HD
ENDBRANCH  17  23
ENDBRANCH  16  17
ENDBRANCH  15  16
ENDBRANCH   6  15
TORSDOF 6
ENDMDL
MODEL 9
REMARK VINA RESULT:      -6.3      7.711     10.058
REMARK  Name = NuBBE_2057
REMARK  8 active torsions:
REMARK  status: ('A' for Active; 'I' for Inactive)
REMARK    1  A    between atoms: C_6  and  O_7
REMARK    2  A    between atoms: O_7  and  C_8
REMARK    3  A    between atoms: C_8  and  C_9
REMARK    4  A    between atoms: C_9  and  C_10
REMARK    5  A    between atoms: C_9  and  O_14
REMARK    6  A    between atoms: C_10  and  C_11
REMARK    7  A    between atoms: C_10  and  C_12
REMARK    8  A    between atoms: C_10  and  O_13
REMARK                            x       y       z     vdW  Elec       q    Type
REMARK                         _______ _______ _______ _____ _____    ______ ____
ROOT
ATOM      1  O   LIG A   1      -7.850  -0.077 132.861  0.00  0.00    -0.245 OA
ATOM      2  C   LIG A   1      -8.235   0.937 132.299  0.00  0.00    +0.337 A 
ATOM      3  O   LIG A   1      -7.365   1.950 131.921  0.00  0.00    -0.422 OA
ATOM      4  C   LIG A   1      -7.837   3.117 131.292  0.00  0.00    +0.146 A 
ATOM      5  C   LIG A   1      -6.870   4.074 130.961  0.00  0.00    +0.096 A 
ATOM      6  C   LIG A   1      -7.241   5.267 130.331  0.00  0.00    +0.169 A 
ATOM      7  C   LIG A   1      -8.597   5.446 130.076  0.00  0.00    +0.208 A 
ATOM      8  O   LIG A   1      -9.175   6.534 129.489  0.00  0.00    -0.449 OA
ATOM      9  C   LIG A   1     -10.564   6.151 129.474  0.00  0.00    +0.467 C 
ATOM     10  O   LIG A   1     -10.805   4.860 130.065  0.00  0.00    -0.452 OA
ATOM     11  C   LIG A   1      -9.540   4.486 130.409  0.00  0.00    +0.180 A 
ATOM     12  C   LIG A   1      -9.189   3.297 131.020  0.00  0.00    +0.063 A 
ATOM     13  C   LIG A   1     -10.121   2.244 131.387  0.00  0.00    +0.022 A 
ATOM     14  C   LIG A   1      -9.662   1.139 131.988  0.00  0.00    +0.093 A 
ENDROOT
BRANCH   6  15
ATOM     15  O   LIG A   1      -6.362   6.251 129.953  0.00  0.00    -0.485 OA
BRANCH  15  16
ATOM     16  C   LIG A   1      -5.275   6.477 130.874  0.00  0.00    +0.263 C 
BRANCH  16  17
ATOM     17  C   LIG A   1      -4.068   7.078 130.140  0.00  0.00    +0.183 C 
BRANCH  17  18
ATOM     18  C   LIG A   1      -3.504   6.134 129.040  0.00  0.00    +0.089 C 
ATOM     19  C   LIG A   1      -2.237   6.718 128.402  0.00  0.00    +0.044 C 
ATOM     20  C   LIG A   1      -3.209   4.722 129.554  0.00  0.00    +0.044 C 
BRANCH  18  21
ATOM     21  O   LIG A   1      -4.487   6.008 128.000  0.00  0.00    -0.387 OA
ATOM     22  H   LIG A   1      -5.025   5.228 128.246  0.00  0.00    +0.210 HD
ENDBRANCH  18  21
ENDBRANCH  17  18
BRANCH  17  23
ATOM     23  O   LIG A   1      -4.491   8.302 129.508  0.00  0.00    -0.386 OA
ATOM     24  H   LIG A   1      -5.141   8.039 128.827  0.00  0.00    +0.210 HD
ENDBRANCH  17  23
ENDBRANCH  16  17
ENDBRANCH  15  16
ENDBRANCH   6  15
TORSDOF 6
ENDMDL
