MODEL 1
REMARK VINA RESULT:      -8.7      0.000      0.000
REMARK  Name = NuBBE_1059
REMARK  11 active torsions:
REMARK  status: ('A' for Active; 'I' for Inactive)
REMARK    1  A    between atoms: C_1  and  C_2
REMARK    2  A    between atoms: C_6  and  C_8
REMARK    3  A    between atoms: C_8  and  C_10
REMARK    4  A    between atoms: C_8  and  C_19
REMARK    5  A    between atoms: C_11  and  C_12
REMARK    6  A    between atoms: C_12  and  C_14
REMARK    7  A    between atoms: C_12  and  C_17
REMARK    8  A    between atoms: C_14  and  C_15
REMARK    9  A    between atoms: C_14  and  C_16
REMARK   10  A    between atoms: C_17  and  C_18
REMARK   11  A    between atoms: C_24  and  C_34
REMARK                            x       y       z     vdW  Elec       q    Type
REMARK                         _______ _______ _______ _____ _____    ______ ____
ROOT
ATOM      1  C   LIG A   1      -7.518  -1.154 128.473  0.00  0.00    +0.012 C 
ATOM      2  C   LIG A   1      -7.490   0.007 127.469  0.00  0.00    -0.026 C 
ATOM      3  C   LIG A   1      -8.636  -0.063 126.430  0.00  0.00    -0.001 C 
ATOM      4  C   LIG A   1      -8.737   1.388 125.909  0.00  0.00    +0.004 C 
ATOM      5  C   LIG A   1      -8.261   2.290 127.050  0.00  0.00    +0.005 C 
ATOM      6  C   LIG A   1      -7.875   1.339 128.194  0.00  0.00    +0.002 C 
ATOM      7  C   LIG A   1      -8.483  -1.087 125.286  0.00  0.00    -0.004 C 
ATOM      8  C   LIG A   1      -7.077  -1.109 124.634  0.00  0.00    -0.001 C 
ATOM      9  C   LIG A   1      -6.961  -2.282 123.582  0.00  0.00    -0.025 C 
ATOM     10  C   LIG A   1      -7.156  -3.680 124.263  0.00  0.00    +0.002 C 
ATOM     11  C   LIG A   1      -5.871  -4.456 124.608  0.00  0.00    +0.078 C 
ATOM     12  C   LIG A   1      -4.818  -4.321 123.550  0.00  0.00    +0.134 C 
ATOM     13  C   LIG A   1      -4.432  -2.915 123.210  0.00  0.00    +0.075 C 
ATOM     14  C   LIG A   1      -5.662  -2.176 122.717  0.00  0.00    +0.015 C 
ATOM     15  O   LIG A   1      -4.240  -5.298 123.067  0.00  0.00    -0.297 OA
ATOM     16  C   LIG A   1      -8.024  -3.639 125.540  0.00  0.00    +0.005 C 
ATOM     17  C   LIG A   1      -9.016  -2.488 125.662  0.00  0.00    +0.004 C 
ATOM     18  C   LIG A   1      -8.114  -2.106 122.534  0.00  0.00    +0.012 C 
ATOM     19  C   LIG A   1      -5.955  -1.065 125.689  0.00  0.00    +0.005 C 
ATOM     20  C   LIG A   1      -6.131   0.037 126.743  0.00  0.00    +0.007 C 
ENDROOT
BRANCH   6  21
ATOM     21  C   LIG A   1      -6.953   1.930 129.297  0.00  0.00    +0.012 C 
ATOM     22  C   LIG A   1      -7.798   2.300 130.529  0.00  0.00    +0.012 C 
BRANCH  21  23
ATOM     23  C   LIG A   1      -6.127   3.143 128.924  0.00  0.00    -0.027 C 
ATOM     24  C   LIG A   1      -4.812   3.106 128.635  0.00  0.00    -0.027 C 
BRANCH  24  25
ATOM     25  C   LIG A   1      -3.979   4.341 128.320  0.00  0.00    +0.014 C 
BRANCH  25  26
ATOM     26  C   LIG A   1      -3.232   4.186 126.957  0.00  0.00    -0.010 C 
ATOM     27  C   LIG A   1      -2.099   3.153 127.022  0.00  0.00    +0.008 C 
ATOM     28  C   LIG A   1      -4.183   3.790 125.818  0.00  0.00    +0.008 C 
ENDBRANCH  25  26
BRANCH  25  29
ATOM     29  C   LIG A   1      -2.977   4.660 129.460  0.00  0.00    +0.004 C 
ATOM     30  C   LIG A   1      -2.339   6.041 129.384  0.00  0.00    +0.004 C 
ENDBRANCH  25  29
ENDBRANCH  24  25
ENDBRANCH  21  23
ENDBRANCH   6  21
TORSDOF 5
ENDMDL
MODEL 2
REMARK VINA RESULT:      -8.5      3.407      5.225
REMARK  Name = NuBBE_1059
REMARK  11 active torsions:
REMARK  status: ('A' for Active; 'I' for Inactive)
REMARK    1  A    between atoms: C_1  and  C_2
REMARK    2  A    between atoms: C_6  and  C_8
REMARK    3  A    between atoms: C_8  and  C_10
REMARK    4  A    between atoms: C_8  and  C_19
REMARK    5  A    between atoms: C_11  and  C_12
REMARK    6  A    between atoms: C_12  and  C_14
REMARK    7  A    between atoms: C_12  and  C_17
REMARK    8  A    between atoms: C_14  and  C_15
REMARK    9  A    between atoms: C_14  and  C_16
REMARK   10  A    between atoms: C_17  and  C_18
REMARK   11  A    between atoms: C_24  and  C_34
REMARK                            x       y       z     vdW  Elec       q    Type
REMARK                         _______ _______ _______ _____ _____    ______ ____
ROOT
ATOM      1  C   LIG A   1      -5.720  -1.221 127.798  0.00  0.00    +0.012 C 
ATOM      2  C   LIG A   1      -7.169  -1.717 127.907  0.00  0.00    -0.026 C 
ATOM      3  C   LIG A   1      -7.520  -2.795 126.851  0.00  0.00    -0.001 C 
ATOM      4  C   LIG A   1      -8.757  -3.498 127.456  0.00  0.00    +0.004 C 
ATOM      5  C   LIG A   1      -8.631  -3.362 128.975  0.00  0.00    +0.005 C 
ATOM      6  C   LIG A   1      -7.338  -2.563 129.211  0.00  0.00    +0.002 C 
ATOM      7  C   LIG A   1      -7.771  -2.307 125.409  0.00  0.00    -0.004 C 
ATOM      8  C   LIG A   1      -8.671  -1.049 125.309  0.00  0.00    -0.001 C 
ATOM      9  C   LIG A   1      -8.752  -0.530 123.819  0.00  0.00    -0.025 C 
ATOM     10  C   LIG A   1      -7.341  -0.109 123.284  0.00  0.00    +0.002 C 
ATOM     11  C   LIG A   1      -7.017   1.396 123.323  0.00  0.00    +0.078 C 
ATOM     12  C   LIG A   1      -8.197   2.245 122.960  0.00  0.00    +0.134 C 
ATOM     13  C   LIG A   1      -9.426   2.015 123.784  0.00  0.00    +0.075 C 
ATOM     14  C   LIG A   1      -9.851   0.567 123.632  0.00  0.00    +0.015 C 
ATOM     15  O   LIG A   1      -8.130   3.140 122.113  0.00  0.00    -0.297 OA
ATOM     16  C   LIG A   1      -6.167  -0.849 123.964  0.00  0.00    +0.005 C 
ATOM     17  C   LIG A   1      -6.473  -2.211 124.577  0.00  0.00    +0.004 C 
ATOM     18  C   LIG A   1      -9.260  -1.714 122.923  0.00  0.00    +0.012 C 
ATOM     19  C   LIG A   1      -8.284   0.018 126.351  0.00  0.00    +0.005 C 
ATOM     20  C   LIG A   1      -8.139  -0.527 127.780  0.00  0.00    +0.007 C 
ENDROOT
BRANCH   6  21
ATOM     21  C   LIG A   1      -7.189  -1.896 130.608  0.00  0.00    +0.012 C 
ATOM     22  C   LIG A   1      -7.178  -2.984 131.697  0.00  0.00    +0.012 C 
BRANCH  21  23
ATOM     23  C   LIG A   1      -8.232  -0.869 130.993  0.00  0.00    -0.027 C 
ATOM     24  C   LIG A   1      -7.958   0.419 131.279  0.00  0.00    -0.027 C 
BRANCH  24  25
ATOM     25  C   LIG A   1      -9.007   1.428 131.723  0.00  0.00    +0.014 C 
BRANCH  25  26
ATOM     26  C   LIG A   1      -9.398   2.389 130.554  0.00  0.00    -0.010 C 
ATOM     27  C   LIG A   1      -9.957   3.727 131.056  0.00  0.00    +0.008 C 
ATOM     28  C   LIG A   1      -8.212   2.679 129.623  0.00  0.00    +0.008 C 
ENDBRANCH  25  26
BRANCH  25  29
ATOM     29  C   LIG A   1      -8.535   2.236 132.960  0.00  0.00    +0.004 C 
ATOM     30  C   LIG A   1      -7.098   1.970 133.390  0.00  0.00    +0.004 C 
ENDBRANCH  25  29
ENDBRANCH  24  25
ENDBRANCH  21  23
ENDBRANCH   6  21
TORSDOF 5
ENDMDL
MODEL 3
REMARK VINA RESULT:      -8.3      5.178      8.498
REMARK  Name = NuBBE_1059
REMARK  11 active torsions:
REMARK  status: ('A' for Active; 'I' for Inactive)
REMARK    1  A    between atoms: C_1  and  C_2
REMARK    2  A    between atoms: C_6  and  C_8
REMARK    3  A    between atoms: C_8  and  C_10
REMARK    4  A    between atoms: C_8  and  C_19
REMARK    5  A    between atoms: C_11  and  C_12
REMARK    6  A    between atoms: C_12  and  C_14
REMARK    7  A    between atoms: C_12  and  C_17
REMARK    8  A    between atoms: C_14  and  C_15
REMARK    9  A    between atoms: C_14  and  C_16
REMARK   10  A    between atoms: C_17  and  C_18
REMARK   11  A    between atoms: C_24  and  C_34
REMARK                            x       y       z     vdW  Elec       q    Type
REMARK                         _______ _______ _______ _____ _____    ______ ____
ROOT
ATOM      1  C   LIG A   1      -4.949  -0.727 130.618  0.00  0.00    +0.012 C 
ATOM      2  C   LIG A   1      -5.589  -2.013 130.074  0.00  0.00    -0.026 C 
ATOM      3  C   LIG A   1      -6.822  -2.468 130.894  0.00  0.00    -0.001 C 
ATOM      4  C   LIG A   1      -7.581  -3.393 129.915  0.00  0.00    +0.004 C 
ATOM      5  C   LIG A   1      -7.244  -2.899 128.506  0.00  0.00    +0.005 C 
ATOM      6  C   LIG A   1      -6.281  -1.716 128.703  0.00  0.00    +0.002 C 
ATOM      7  C   LIG A   1      -6.548  -3.150 132.251  0.00  0.00    -0.004 C 
ATOM      8  C   LIG A   1      -5.422  -4.214 132.213  0.00  0.00    -0.001 C 
ATOM      9  C   LIG A   1      -5.104  -4.750 133.665  0.00  0.00    -0.025 C 
ATOM     10  C   LIG A   1      -4.596  -3.600 134.599  0.00  0.00    +0.002 C 
ATOM     11  C   LIG A   1      -3.070  -3.495 134.785  0.00  0.00    +0.078 C 
ATOM     12  C   LIG A   1      -2.412  -4.837 134.886  0.00  0.00    +0.134 C 
ATOM     13  C   LIG A   1      -2.676  -5.766 133.742  0.00  0.00    +0.075 C 
ATOM     14  C   LIG A   1      -4.171  -6.005 133.643  0.00  0.00    +0.015 C 
ATOM     15  O   LIG A   1      -1.627  -5.119 135.796  0.00  0.00    -0.297 OA
ATOM     16  C   LIG A   1      -5.108  -2.198 134.201  0.00  0.00    +0.005 C 
ATOM     17  C   LIG A   1      -6.409  -2.138 133.411  0.00  0.00    +0.004 C 
ATOM     18  C   LIG A   1      -6.439  -5.299 134.280  0.00  0.00    +0.012 C 
ATOM     19  C   LIG A   1      -4.198  -3.727 131.415  0.00  0.00    +0.005 C 
ATOM     20  C   LIG A   1      -4.542  -3.142 130.038  0.00  0.00    +0.007 C 
ENDROOT
BRANCH   6  21
ATOM     21  C   LIG A   1      -5.434  -1.308 127.465  0.00  0.00    +0.012 C 
ATOM     22  C   LIG A   1      -5.712   0.165 127.117  0.00  0.00    +0.012 C 
BRANCH  21  23
ATOM     23  C   LIG A   1      -5.624  -2.123 126.204  0.00  0.00    -0.027 C 
ATOM     24  C   LIG A   1      -5.471  -1.637 124.957  0.00  0.00    -0.027 C 
BRANCH  24  25
ATOM     25  C   LIG A   1      -5.722  -2.449 123.695  0.00  0.00    +0.014 C 
BRANCH  25  26
ATOM     26  C   LIG A   1      -7.141  -2.157 123.107  0.00  0.00    -0.010 C 
ATOM     27  C   LIG A   1      -8.224  -3.059 123.714  0.00  0.00    +0.008 C 
ATOM     28  C   LIG A   1      -7.559  -0.694 123.308  0.00  0.00    +0.008 C 
ENDBRANCH  25  26
BRANCH  25  29
ATOM     29  C   LIG A   1      -5.537  -3.968 123.946  0.00  0.00    +0.004 C 
ATOM     30  C   LIG A   1      -4.163  -4.516 123.582  0.00  0.00    +0.004 C 
ENDBRANCH  25  29
ENDBRANCH  24  25
ENDBRANCH  21  23
ENDBRANCH   6  21
TORSDOF 5
ENDMDL
MODEL 4
REMARK VINA RESULT:      -8.1      4.496      7.136
REMARK  Name = NuBBE_1059
REMARK  11 active torsions:
REMARK  status: ('A' for Active; 'I' for Inactive)
REMARK    1  A    between atoms: C_1  and  C_2
REMARK    2  A    between atoms: C_6  and  C_8
REMARK    3  A    between atoms: C_8  and  C_10
REMARK    4  A    between atoms: C_8  and  C_19
REMARK    5  A    between atoms: C_11  and  C_12
REMARK    6  A    between atoms: C_12  and  C_14
REMARK    7  A    between atoms: C_12  and  C_17
REMARK    8  A    between atoms: C_14  and  C_15
REMARK    9  A    between atoms: C_14  and  C_16
REMARK   10  A    between atoms: C_17  and  C_18
REMARK   11  A    between atoms: C_24  and  C_34
REMARK                            x       y       z     vdW  Elec       q    Type
REMARK                         _______ _______ _______ _____ _____    ______ ____
ROOT
ATOM      1  C   LIG A   1      -7.070  -0.283 129.392  0.00  0.00    +0.012 C 
ATOM      2  C   LIG A   1      -6.518  -1.708 129.241  0.00  0.00    -0.026 C 
ATOM      3  C   LIG A   1      -5.220  -1.766 128.397  0.00  0.00    -0.001 C 
ATOM      4  C   LIG A   1      -4.584  -3.113 128.812  0.00  0.00    +0.004 C 
ATOM      5  C   LIG A   1      -5.048  -3.385 130.245  0.00  0.00    +0.005 C 
ATOM      6  C   LIG A   1      -5.959  -2.203 130.615  0.00  0.00    +0.002 C 
ATOM      7  C   LIG A   1      -5.374  -1.638 126.867  0.00  0.00    -0.004 C 
ATOM      8  C   LIG A   1      -6.522  -2.490 126.268  0.00  0.00    -0.001 C 
ATOM      9  C   LIG A   1      -6.706  -2.186 124.729  0.00  0.00    -0.025 C 
ATOM     10  C   LIG A   1      -7.092  -0.687 124.486  0.00  0.00    +0.002 C 
ATOM     11  C   LIG A   1      -8.589  -0.394 124.269  0.00  0.00    +0.078 C 
ATOM     12  C   LIG A   1      -9.265  -1.446 123.443  0.00  0.00    +0.134 C 
ATOM     13  C   LIG A   1      -9.137  -2.844 123.962  0.00  0.00    +0.075 C 
ATOM     14  C   LIG A   1      -7.666  -3.206 124.033  0.00  0.00    +0.015 C 
ATOM     15  O   LIG A   1      -9.962  -1.167 122.464  0.00  0.00    -0.297 OA
ATOM     16  C   LIG A   1      -6.590   0.275 125.585  0.00  0.00    +0.005 C 
ATOM     17  C   LIG A   1      -5.373  -0.170 126.387  0.00  0.00    +0.004 C 
ATOM     18  C   LIG A   1      -5.329  -2.436 124.019  0.00  0.00    +0.012 C 
ATOM     19  C   LIG A   1      -7.808  -2.393 127.110  0.00  0.00    +0.005 C 
ATOM     20  C   LIG A   1      -7.589  -2.620 128.613  0.00  0.00    +0.007 C 
ENDROOT
BRANCH   6  21
ATOM     21  C   LIG A   1      -6.915  -2.425 131.820  0.00  0.00    +0.012 C 
ATOM     22  C   LIG A   1      -6.659  -1.344 132.885  0.00  0.00    +0.012 C 
BRANCH  21  23
ATOM     23  C   LIG A   1      -6.852  -3.772 132.509  0.00  0.00    -0.027 C 
ATOM     24  C   LIG A   1      -6.147  -4.019 133.630  0.00  0.00    -0.027 C 
BRANCH  24  25
ATOM     25  C   LIG A   1      -6.043  -5.391 134.280  0.00  0.00    +0.014 C 
BRANCH  25  26
ATOM     26  C   LIG A   1      -6.615  -5.373 135.734  0.00  0.00    -0.010 C 
ATOM     27  C   LIG A   1      -7.022  -3.964 136.188  0.00  0.00    +0.008 C 
ATOM     28  C   LIG A   1      -7.828  -6.301 135.890  0.00  0.00    +0.008 C 
ENDBRANCH  25  26
BRANCH  25  29
ATOM     29  C   LIG A   1      -4.584  -5.918 134.273  0.00  0.00    +0.004 C 
ATOM     30  C   LIG A   1      -3.615  -5.112 133.416  0.00  0.00    +0.004 C 
ENDBRANCH  25  29
ENDBRANCH  24  25
ENDBRANCH  21  23
ENDBRANCH   6  21
TORSDOF 5
ENDMDL
MODEL 5
REMARK VINA RESULT:      -8.0      4.296      9.331
REMARK  Name = NuBBE_1059
REMARK  11 active torsions:
REMARK  status: ('A' for Active; 'I' for Inactive)
REMARK    1  A    between atoms: C_1  and  C_2
REMARK    2  A    between atoms: C_6  and  C_8
REMARK    3  A    between atoms: C_8  and  C_10
REMARK    4  A    between atoms: C_8  and  C_19
REMARK    5  A    between atoms: C_11  and  C_12
REMARK    6  A    between atoms: C_12  and  C_14
REMARK    7  A    between atoms: C_12  and  C_17
REMARK    8  A    between atoms: C_14  and  C_15
REMARK    9  A    between atoms: C_14  and  C_16
REMARK   10  A    between atoms: C_17  and  C_18
REMARK   11  A    between atoms: C_24  and  C_34
REMARK                            x       y       z     vdW  Elec       q    Type
REMARK                         _______ _______ _______ _____ _____    ______ ____
ROOT
ATOM      1  C   LIG A   1      -8.942   1.114 131.659  0.00  0.00    +0.012 C 
ATOM      2  C   LIG A   1      -8.076   1.645 130.508  0.00  0.00    -0.026 C 
ATOM      3  C   LIG A   1      -6.967   2.616 130.983  0.00  0.00    -0.001 C 
ATOM      4  C   LIG A   1      -5.947   2.590 129.821  0.00  0.00    +0.004 C 
ATOM      5  C   LIG A   1      -6.079   1.215 129.162  0.00  0.00    +0.005 C 
ATOM      6  C   LIG A   1      -7.187   0.489 129.942  0.00  0.00    +0.002 C 
ATOM      7  C   LIG A   1      -7.401   4.051 131.348  0.00  0.00    -0.004 C 
ATOM      8  C   LIG A   1      -8.376   4.699 130.334  0.00  0.00    -0.001 C 
ATOM      9  C   LIG A   1      -8.887   6.099 130.858  0.00  0.00    -0.025 C 
ATOM     10  C   LIG A   1      -9.679   5.951 132.202  0.00  0.00    +0.002 C 
ATOM     11  C   LIG A   1     -11.215   5.931 132.090  0.00  0.00    +0.078 C 
ATOM     12  C   LIG A   1     -11.728   6.897 131.066  0.00  0.00    +0.134 C 
ATOM     13  C   LIG A   1     -11.161   6.728 129.690  0.00  0.00    +0.075 C 
ATOM     14  C   LIG A   1      -9.656   6.901 129.757  0.00  0.00    +0.015 C 
ATOM     15  O   LIG A   1     -12.626   7.706 131.313  0.00  0.00    -0.297 OA
ATOM     16  C   LIG A   1      -9.263   4.722 133.041  0.00  0.00    +0.005 C 
ATOM     17  C   LIG A   1      -7.857   4.180 132.819  0.00  0.00    +0.004 C 
ATOM     18  C   LIG A   1      -7.630   6.992 131.150  0.00  0.00    +0.012 C 
ATOM     19  C   LIG A   1      -9.485   3.722 129.898  0.00  0.00    +0.005 C 
ATOM     20  C   LIG A   1      -8.968   2.344 129.463  0.00  0.00    +0.007 C 
ENDROOT
BRANCH   6  21
ATOM     21  C   LIG A   1      -7.840  -0.731 129.232  0.00  0.00    +0.012 C 
ATOM     22  C   LIG A   1      -7.613  -1.998 130.076  0.00  0.00    +0.012 C 
BRANCH  21  23
ATOM     23  C   LIG A   1      -7.382  -1.030 127.820  0.00  0.00    -0.027 C 
ATOM     24  C   LIG A   1      -8.190  -1.479 126.841  0.00  0.00    -0.027 C 
BRANCH  24  25
ATOM     25  C   LIG A   1      -7.707  -1.833 125.441  0.00  0.00    +0.014 C 
BRANCH  25  26
ATOM     26  C   LIG A   1      -8.700  -2.809 124.730  0.00  0.00    -0.010 C 
ATOM     27  C   LIG A   1      -8.983  -2.403 123.278  0.00  0.00    +0.008 C 
ATOM     28  C   LIG A   1      -8.191  -4.257 124.738  0.00  0.00    +0.008 C 
ENDBRANCH  25  26
BRANCH  25  29
ATOM     29  C   LIG A   1      -6.276  -2.431 125.464  0.00  0.00    +0.004 C 
ATOM     30  C   LIG A   1      -5.374  -1.980 124.322  0.00  0.00    +0.004 C 
ENDBRANCH  25  29
ENDBRANCH  24  25
ENDBRANCH  21  23
ENDBRANCH   6  21
TORSDOF 5
ENDMDL
MODEL 6
REMARK VINA RESULT:      -8.0      4.093      6.862
REMARK  Name = NuBBE_1059
REMARK  11 active torsions:
REMARK  status: ('A' for Active; 'I' for Inactive)
REMARK    1  A    between atoms: C_1  and  C_2
REMARK    2  A    between atoms: C_6  and  C_8
REMARK    3  A    between atoms: C_8  and  C_10
REMARK    4  A    between atoms: C_8  and  C_19
REMARK    5  A    between atoms: C_11  and  C_12
REMARK    6  A    between atoms: C_12  and  C_14
REMARK    7  A    between atoms: C_12  and  C_17
REMARK    8  A    between atoms: C_14  and  C_15
REMARK    9  A    between atoms: C_14  and  C_16
REMARK   10  A    between atoms: C_17  and  C_18
REMARK   11  A    between atoms: C_24  and  C_34
REMARK                            x       y       z     vdW  Elec       q    Type
REMARK                         _______ _______ _______ _____ _____    ______ ____
ROOT
ATOM      1  C   LIG A   1      -5.526  -1.631 127.487  0.00  0.00    +0.012 C 
ATOM      2  C   LIG A   1      -7.002  -1.964 127.749  0.00  0.00    -0.026 C 
ATOM      3  C   LIG A   1      -7.590  -2.955 126.715  0.00  0.00    -0.001 C 
ATOM      4  C   LIG A   1      -8.826  -3.537 127.440  0.00  0.00    +0.004 C 
ATOM      5  C   LIG A   1      -8.517  -3.472 128.938  0.00  0.00    +0.005 C 
ATOM      6  C   LIG A   1      -7.122  -2.834 129.044  0.00  0.00    +0.002 C 
ATOM      7  C   LIG A   1      -7.941  -2.390 125.323  0.00  0.00    -0.004 C 
ATOM      8  C   LIG A   1      -8.694  -1.036 125.357  0.00  0.00    -0.001 C 
ATOM      9  C   LIG A   1      -8.879  -0.456 123.899  0.00  0.00    -0.025 C 
ATOM     10  C   LIG A   1      -7.496  -0.178 123.216  0.00  0.00    +0.002 C 
ATOM     11  C   LIG A   1      -6.998   1.279 123.253  0.00  0.00    +0.078 C 
ATOM     12  C   LIG A   1      -8.104   2.269 123.048  0.00  0.00    +0.134 C 
ATOM     13  C   LIG A   1      -9.252   2.148 124.001  0.00  0.00    +0.075 C 
ATOM     14  C   LIG A   1      -9.857   0.764 123.864  0.00  0.00    +0.015 C 
ATOM     15  O   LIG A   1      -8.027   3.181 122.221  0.00  0.00    -0.297 OA
ATOM     16  C   LIG A   1      -6.349  -1.070 123.740  0.00  0.00    +0.005 C 
ATOM     17  C   LIG A   1      -6.741  -2.410 124.351  0.00  0.00    +0.004 C 
ATOM     18  C   LIG A   1      -9.617  -1.541 123.038  0.00  0.00    +0.012 C 
ATOM     19  C   LIG A   1      -8.073  -0.059 126.373  0.00  0.00    +0.005 C 
ATOM     20  C   LIG A   1      -7.836  -0.668 127.762  0.00  0.00    +0.007 C 
ENDROOT
BRANCH   6  21
ATOM     21  C   LIG A   1      -6.743  -2.240 130.430  0.00  0.00    +0.012 C 
ATOM     22  C   LIG A   1      -5.219  -2.329 130.627  0.00  0.00    +0.012 C 
BRANCH  21  23
ATOM     23  C   LIG A   1      -7.402  -2.857 131.645  0.00  0.00    -0.027 C 
ATOM     24  C   LIG A   1      -6.729  -3.387 132.684  0.00  0.00    -0.027 C 
BRANCH  24  25
ATOM     25  C   LIG A   1      -7.401  -4.058 133.874  0.00  0.00    +0.014 C 
BRANCH  25  26
ATOM     26  C   LIG A   1      -7.700  -3.028 135.010  0.00  0.00    -0.010 C 
ATOM     27  C   LIG A   1      -8.160  -3.703 136.309  0.00  0.00    +0.008 C 
ATOM     28  C   LIG A   1      -6.483  -2.147 135.326  0.00  0.00    +0.008 C 
ENDBRANCH  25  26
BRANCH  25  29
ATOM     29  C   LIG A   1      -6.556  -5.240 134.416  0.00  0.00    +0.004 C 
ATOM     30  C   LIG A   1      -5.194  -5.412 133.755  0.00  0.00    +0.004 C 
ENDBRANCH  25  29
ENDBRANCH  24  25
ENDBRANCH  21  23
ENDBRANCH   6  21
TORSDOF 5
ENDMDL
MODEL 7
REMARK VINA RESULT:      -8.0      6.994     10.082
REMARK  Name = NuBBE_1059
REMARK  11 active torsions:
REMARK  status: ('A' for Active; 'I' for Inactive)
REMARK    1  A    between atoms: C_1  and  C_2
REMARK    2  A    between atoms: C_6  and  C_8
REMARK    3  A    between atoms: C_8  and  C_10
REMARK    4  A    between atoms: C_8  and  C_19
REMARK    5  A    between atoms: C_11  and  C_12
REMARK    6  A    between atoms: C_12  and  C_14
REMARK    7  A    between atoms: C_12  and  C_17
REMARK    8  A    between atoms: C_14  and  C_15
REMARK    9  A    between atoms: C_14  and  C_16
REMARK   10  A    between atoms: C_17  and  C_18
REMARK   11  A    between atoms: C_24  and  C_34
REMARK                            x       y       z     vdW  Elec       q    Type
REMARK                         _______ _______ _______ _____ _____    ______ ____
ROOT
ATOM      1  C   LIG A   1      -4.147   4.887 130.732  0.00  0.00    +0.012 C 
ATOM      2  C   LIG A   1      -4.417   5.631 132.048  0.00  0.00    -0.026 C 
ATOM      3  C   LIG A   1      -4.887   4.692 133.187  0.00  0.00    -0.001 C 
ATOM      4  C   LIG A   1      -4.584   5.504 134.468  0.00  0.00    +0.004 C 
ATOM      5  C   LIG A   1      -3.402   6.415 134.131  0.00  0.00    +0.005 C 
ATOM      6  C   LIG A   1      -3.064   6.126 132.659  0.00  0.00    +0.002 C 
ATOM      7  C   LIG A   1      -6.351   4.206 133.134  0.00  0.00    -0.004 C 
ATOM      8  C   LIG A   1      -7.380   5.317 132.804  0.00  0.00    -0.001 C 
ATOM      9  C   LIG A   1      -8.826   4.710 132.621  0.00  0.00    -0.025 C 
ATOM     10  C   LIG A   1      -8.872   3.694 131.428  0.00  0.00    +0.002 C 
ATOM     11  C   LIG A   1      -9.412   4.236 130.091  0.00  0.00    +0.078 C 
ATOM     12  C   LIG A   1     -10.570   5.167 130.276  0.00  0.00    +0.134 C 
ATOM     13  C   LIG A   1     -10.313   6.334 131.177  0.00  0.00    +0.075 C 
ATOM     14  C   LIG A   1      -9.930   5.816 132.551  0.00  0.00    +0.015 C 
ATOM     15  O   LIG A   1     -11.626   5.038 129.651  0.00  0.00    -0.297 OA
ATOM     16  C   LIG A   1      -7.517   3.013 131.134  0.00  0.00    +0.005 C 
ATOM     17  C   LIG A   1      -6.525   2.926 132.288  0.00  0.00    +0.004 C 
ATOM     18  C   LIG A   1      -9.186   3.916 133.926  0.00  0.00    +0.012 C 
ATOM     19  C   LIG A   1      -6.900   6.219 131.651  0.00  0.00    +0.005 C 
ATOM     20  C   LIG A   1      -5.464   6.737 131.818  0.00  0.00    +0.007 C 
ENDROOT
BRANCH   6  21
ATOM     21  C   LIG A   1      -2.216   7.202 131.926  0.00  0.00    +0.012 C 
ATOM     22  C   LIG A   1      -0.722   6.953 132.200  0.00  0.00    +0.012 C 
BRANCH  21  23
ATOM     23  C   LIG A   1      -2.509   8.650 132.256  0.00  0.00    -0.027 C 
ATOM     24  C   LIG A   1      -1.719   9.429 133.019  0.00  0.00    -0.027 C 
BRANCH  24  25
ATOM     25  C   LIG A   1      -2.053  10.866 133.393  0.00  0.00    +0.014 C 
BRANCH  25  26
ATOM     26  C   LIG A   1      -0.836  11.813 133.144  0.00  0.00    -0.010 C 
ATOM     27  C   LIG A   1       0.494  11.052 133.063  0.00  0.00    +0.008 C 
ATOM     28  C   LIG A   1      -1.000  12.640 131.861  0.00  0.00    +0.008 C 
ENDBRANCH  25  26
BRANCH  25  29
ATOM     29  C   LIG A   1      -2.540  10.976 134.862  0.00  0.00    +0.004 C 
ATOM     30  C   LIG A   1      -2.167  12.275 135.566  0.00  0.00    +0.004 C 
ENDBRANCH  25  29
ENDBRANCH  24  25
ENDBRANCH  21  23
ENDBRANCH   6  21
TORSDOF 5
ENDMDL
MODEL 8
REMARK VINA RESULT:      -7.9      2.873      4.808
REMARK  Name = NuBBE_1059
REMARK  11 active torsions:
REMARK  status: ('A' for Active; 'I' for Inactive)
REMARK    1  A    between atoms: C_1  and  C_2
REMARK    2  A    between atoms: C_6  and  C_8
REMARK    3  A    between atoms: C_8  and  C_10
REMARK    4  A    between atoms: C_8  and  C_19
REMARK    5  A    between atoms: C_11  and  C_12
REMARK    6  A    between atoms: C_12  and  C_14
REMARK    7  A    between atoms: C_12  and  C_17
REMARK    8  A    between atoms: C_14  and  C_15
REMARK    9  A    between atoms: C_14  and  C_16
REMARK   10  A    between atoms: C_17  and  C_18
REMARK   11  A    between atoms: C_24  and  C_34
REMARK                            x       y       z     vdW  Elec       q    Type
REMARK                         _______ _______ _______ _____ _____    ______ ____
ROOT
ATOM      1  C   LIG A   1      -5.586  -1.853 127.324  0.00  0.00    +0.012 C 
ATOM      2  C   LIG A   1      -7.077  -2.121 127.576  0.00  0.00    -0.026 C 
ATOM      3  C   LIG A   1      -7.719  -3.027 126.496  0.00  0.00    -0.001 C 
ATOM      4  C   LIG A   1      -8.982  -3.579 127.196  0.00  0.00    +0.004 C 
ATOM      5  C   LIG A   1      -8.667  -3.606 128.694  0.00  0.00    +0.005 C 
ATOM      6  C   LIG A   1      -7.240  -3.048 128.825  0.00  0.00    +0.002 C 
ATOM      7  C   LIG A   1      -8.043  -2.374 125.135  0.00  0.00    -0.004 C 
ATOM      8  C   LIG A   1      -8.723  -0.985 125.241  0.00  0.00    -0.001 C 
ATOM      9  C   LIG A   1      -8.880  -0.324 123.815  0.00  0.00    -0.025 C 
ATOM     10  C   LIG A   1      -7.486  -0.085 123.141  0.00  0.00    +0.002 C 
ATOM     11  C   LIG A   1      -6.911   1.340 123.249  0.00  0.00    +0.078 C 
ATOM     12  C   LIG A   1      -7.964   2.396 123.099  0.00  0.00    +0.134 C 
ATOM     13  C   LIG A   1      -9.115   2.288 124.051  0.00  0.00    +0.075 C 
ATOM     14  C   LIG A   1      -9.793   0.946 123.847  0.00  0.00    +0.015 C 
ATOM     15  O   LIG A   1      -7.841   3.343 122.319  0.00  0.00    -0.297 OA
ATOM     16  C   LIG A   1      -6.386  -1.061 123.614  0.00  0.00    +0.005 C 
ATOM     17  C   LIG A   1      -6.847  -2.408 124.158  0.00  0.00    +0.004 C 
ATOM     18  C   LIG A   1      -9.676  -1.324 122.905  0.00  0.00    +0.012 C 
ATOM     19  C   LIG A   1      -8.049  -0.095 126.302  0.00  0.00    +0.005 C 
ATOM     20  C   LIG A   1      -7.841  -0.786 127.658  0.00  0.00    +0.007 C 
ENDROOT
BRANCH   6  21
ATOM     21  C   LIG A   1      -6.828  -2.546 130.237  0.00  0.00    +0.012 C 
ATOM     22  C   LIG A   1      -7.965  -1.696 130.833  0.00  0.00    +0.012 C 
BRANCH  21  23
ATOM     23  C   LIG A   1      -5.551  -1.738 130.333  0.00  0.00    -0.027 C 
ATOM     24  C   LIG A   1      -5.497  -0.450 130.725  0.00  0.00    -0.027 C 
BRANCH  24  25
ATOM     25  C   LIG A   1      -4.215   0.370 130.761  0.00  0.00    +0.014 C 
BRANCH  25  26
ATOM     26  C   LIG A   1      -4.003   1.027 132.164  0.00  0.00    -0.010 C 
ATOM     27  C   LIG A   1      -3.681   2.524 132.069  0.00  0.00    +0.008 C 
ATOM     28  C   LIG A   1      -5.226   0.851 133.075  0.00  0.00    +0.008 C 
ENDBRANCH  25  26
BRANCH  25  29
ATOM     29  C   LIG A   1      -4.193   1.447 129.645  0.00  0.00    +0.004 C 
ATOM     30  C   LIG A   1      -5.546   1.737 129.007  0.00  0.00    +0.004 C 
ENDBRANCH  25  29
ENDBRANCH  24  25
ENDBRANCH  21  23
ENDBRANCH   6  21
TORSDOF 5
ENDMDL
MODEL 9
REMARK VINA RESULT:      -7.8      3.675      8.608
REMARK  Name = NuBBE_1059
REMARK  11 active torsions:
REMARK  status: ('A' for Active; 'I' for Inactive)
REMARK    1  A    between atoms: C_1  and  C_2
REMARK    2  A    between atoms: C_6  and  C_8
REMARK    3  A    between atoms: C_8  and  C_10
REMARK    4  A    between atoms: C_8  and  C_19
REMARK    5  A    between atoms: C_11  and  C_12
REMARK    6  A    between atoms: C_12  and  C_14
REMARK    7  A    between atoms: C_12  and  C_17
REMARK    8  A    between atoms: C_14  and  C_15
REMARK    9  A    between atoms: C_14  and  C_16
REMARK   10  A    between atoms: C_17  and  C_18
REMARK   11  A    between atoms: C_24  and  C_34
REMARK                            x       y       z     vdW  Elec       q    Type
REMARK                         _______ _______ _______ _____ _____    ______ ____
ROOT
ATOM      1  C   LIG A   1      -8.305  -1.248 130.784  0.00  0.00    +0.012 C 
ATOM      2  C   LIG A   1      -7.226  -0.978 129.725  0.00  0.00    -0.026 C 
ATOM      3  C   LIG A   1      -5.792  -0.985 130.308  0.00  0.00    -0.001 C 
ATOM      4  C   LIG A   1      -4.902  -1.230 129.068  0.00  0.00    +0.004 C 
ATOM      5  C   LIG A   1      -5.754  -2.026 128.077  0.00  0.00    +0.005 C 
ATOM      6  C   LIG A   1      -7.121  -2.203 128.758  0.00  0.00    +0.002 C 
ATOM      7  C   LIG A   1      -5.354   0.262 131.106  0.00  0.00    -0.004 C 
ATOM      8  C   LIG A   1      -5.727   1.609 130.438  0.00  0.00    -0.001 C 
ATOM      9  C   LIG A   1      -5.381   2.824 131.386  0.00  0.00    -0.025 C 
ATOM     10  C   LIG A   1      -6.193   2.752 132.724  0.00  0.00    +0.002 C 
ATOM     11  C   LIG A   1      -7.459   3.627 132.802  0.00  0.00    +0.078 C 
ATOM     12  C   LIG A   1      -7.272   4.965 132.155  0.00  0.00    +0.134 C 
ATOM     13  C   LIG A   1      -6.824   4.925 130.727  0.00  0.00    +0.075 C 
ATOM     14  C   LIG A   1      -5.493   4.201 130.653  0.00  0.00    +0.015 C 
ATOM     15  O   LIG A   1      -7.564   6.020 132.725  0.00  0.00    -0.297 OA
ATOM     16  C   LIG A   1      -6.599   1.319 133.135  0.00  0.00    +0.005 C 
ATOM     17  C   LIG A   1      -5.739   0.180 132.600  0.00  0.00    +0.004 C 
ATOM     18  C   LIG A   1      -3.859   2.729 131.756  0.00  0.00    +0.012 C 
ATOM     19  C   LIG A   1      -7.167   1.599 129.891  0.00  0.00    +0.005 C 
ATOM     20  C   LIG A   1      -7.501   0.370 129.032  0.00  0.00    +0.007 C 
ENDROOT
BRANCH   6  21
ATOM     21  C   LIG A   1      -8.309  -2.574 127.825  0.00  0.00    +0.012 C 
ATOM     22  C   LIG A   1      -8.777  -4.007 128.137  0.00  0.00    +0.012 C 
BRANCH  21  23
ATOM     23  C   LIG A   1      -8.066  -2.484 126.334  0.00  0.00    -0.027 C 
ATOM     24  C   LIG A   1      -7.752  -3.535 125.552  0.00  0.00    -0.027 C 
BRANCH  24  25
ATOM     25  C   LIG A   1      -7.451  -3.423 124.064  0.00  0.00    +0.014 C 
BRANCH  25  26
ATOM     26  C   LIG A   1      -6.061  -2.754 123.817  0.00  0.00    -0.010 C 
ATOM     27  C   LIG A   1      -4.906  -3.763 123.876  0.00  0.00    +0.008 C 
ATOM     28  C   LIG A   1      -6.001  -2.028 122.465  0.00  0.00    +0.008 C 
ENDBRANCH  25  26
BRANCH  25  29
ATOM     29  C   LIG A   1      -8.569  -2.654 123.311  0.00  0.00    +0.004 C 
ATOM     30  C   LIG A   1      -9.890  -3.403 123.187  0.00  0.00    +0.004 C 
ENDBRANCH  25  29
ENDBRANCH  24  25
ENDBRANCH  21  23
ENDBRANCH   6  21
TORSDOF 5
ENDMDL
