MODEL 1
REMARK VINA RESULT:      -7.5      0.000      0.000
REMARK  Name = NuBBE_2001
REMARK  12 active torsions:
REMARK  status: ('A' for Active; 'I' for Inactive)
REMARK    1  A    between atoms: C_1  and  C_2
REMARK    2  A    between atoms: C_7  and  C_9
REMARK    3  A    between atoms: C_12  and  O_13
REMARK    4  A    between atoms: O_13  and  C_14
REMARK    5  A    between atoms: C_14  and  C_15
REMARK    6  A    between atoms: C_16  and  O_17
REMARK    7  A    between atoms: O_17  and  C_18
REMARK    8  A    between atoms: C_22  and  O_23
REMARK    9  A    between atoms: C_24  and  C_25
REMARK   10  A    between atoms: C_26  and  O_27
REMARK   11  A    between atoms: O_27  and  C_28
REMARK   12  A    between atoms: C_28  and  C_29
REMARK                            x       y       z     vdW  Elec       q    Type
REMARK                         _______ _______ _______ _____ _____    ______ ____
ROOT
ATOM      1  C   LIG A   1     -10.127   1.666 122.995  0.00  0.00    +0.051 C 
ATOM      2  C   LIG A   1      -8.931   2.383 123.585  0.00  0.00    +0.034 A 
ATOM      3  C   LIG A   1      -8.718   2.343 124.975  0.00  0.00    +0.142 A 
ATOM      4  C   LIG A   1      -7.661   3.035 125.552  0.00  0.00    +0.101 A 
ATOM      5  C   LIG A   1      -7.392   2.892 127.010  0.00  0.00    +0.174 C 
ATOM      6  C   LIG A   1      -8.237   1.891 127.745  0.00  0.00    +0.129 C 
ATOM      7  C   LIG A   1      -8.794   0.855 126.778  0.00  0.00    +0.211 C 
ATOM      8  O   LIG A   1      -9.511   1.503 125.711  0.00  0.00    -0.483 OA
ATOM      9  O   LIG A   1      -6.540   3.540 127.546  0.00  0.00    -0.292 OA
ATOM     10  C   LIG A   1      -6.724   3.679 124.748  0.00  0.00    +0.137 A 
ATOM     11  C   LIG A   1      -6.815   3.612 123.345  0.00  0.00    +0.034 A 
ATOM     12  C   LIG A   1      -5.612   4.115 122.597  0.00  0.00    +0.051 C 
ATOM     13  C   LIG A   1      -7.951   3.000 122.756  0.00  0.00    +0.133 A 
ENDROOT
BRANCH   7  14
ATOM     14  C   LIG A   1      -7.837  -0.250 126.301  0.00  0.00    -0.003 A 
ATOM     15  C   LIG A   1      -6.443  -0.195 126.350  0.00  0.00    +0.011 A 
ATOM     16  C   LIG A   1      -5.660  -1.243 125.847  0.00  0.00    +0.050 A 
ATOM     17  C   LIG A   1      -6.193  -2.416 125.286  0.00  0.00    +0.162 A 
ATOM     18  C   LIG A   1      -7.590  -2.504 125.241  0.00  0.00    +0.162 A 
ATOM     19  C   LIG A   1      -8.378  -1.417 125.736  0.00  0.00    +0.056 A 
BRANCH  18  20
ATOM     20  O   LIG A   1      -8.398  -3.467 124.699  0.00  0.00    -0.491 OA
ATOM     21  C   LIG A   1      -9.199  -3.117 123.592  0.00  0.00    +0.277 C 
ENDBRANCH  18  20
BRANCH  17  22
ATOM     22  O   LIG A   1      -5.143  -3.195 124.889  0.00  0.00    -0.489 OA
BRANCH  22  23
ATOM     23  C   LIG A   1      -4.807  -3.536 123.564  0.00  0.00    +0.226 C 
ATOM     24  C   LIG A   1      -4.177  -4.907 123.439  0.00  0.00    +0.048 C 
ENDBRANCH  22  23
ENDBRANCH  17  22
ENDBRANCH   7  14
BRANCH  10  25
ATOM     25  O   LIG A   1      -5.617   4.278 125.294  0.00  0.00    -0.506 OA
ATOM     26  H   LIG A   1      -4.825   3.719 125.119  0.00  0.00    +0.292 HD
ENDBRANCH  10  25
BRANCH  13  27
ATOM     27  O   LIG A   1      -8.204   2.817 121.418  0.00  0.00    -0.491 OA
BRANCH  27  28
ATOM     28  C   LIG A   1      -8.697   3.863 120.588  0.00  0.00    +0.226 C 
ATOM     29  C   LIG A   1      -7.688   4.230 119.506  0.00  0.00    +0.048 C 
ENDBRANCH  27  28
ENDBRANCH  13  27
TORSDOF 7
ENDMDL
MODEL 2
REMARK VINA RESULT:      -7.3      6.634      9.964
REMARK  Name = NuBBE_2001
REMARK  12 active torsions:
REMARK  status: ('A' for Active; 'I' for Inactive)
REMARK    1  A    between atoms: C_1  and  C_2
REMARK    2  A    between atoms: C_7  and  C_9
REMARK    3  A    between atoms: C_12  and  O_13
REMARK    4  A    between atoms: O_13  and  C_14
REMARK    5  A    between atoms: C_14  and  C_15
REMARK    6  A    between atoms: C_16  and  O_17
REMARK    7  A    between atoms: O_17  and  C_18
REMARK    8  A    between atoms: C_22  and  O_23
REMARK    9  A    between atoms: C_24  and  C_25
REMARK   10  A    between atoms: C_26  and  O_27
REMARK   11  A    between atoms: O_27  and  C_28
REMARK   12  A    between atoms: C_28  and  C_29
REMARK                            x       y       z     vdW  Elec       q    Type
REMARK                         _______ _______ _______ _____ _____    ______ ____
ROOT
ATOM      1  C   LIG A   1      -4.291   6.434 132.472  0.00  0.00    +0.051 C 
ATOM      2  C   LIG A   1      -4.930   5.096 132.165  0.00  0.00    +0.034 A 
ATOM      3  C   LIG A   1      -6.044   4.675 132.914  0.00  0.00    +0.142 A 
ATOM      4  C   LIG A   1      -6.619   3.430 132.692  0.00  0.00    +0.101 A 
ATOM      5  C   LIG A   1      -7.861   3.049 133.421  0.00  0.00    +0.174 C 
ATOM      6  C   LIG A   1      -8.480   4.116 134.278  0.00  0.00    +0.129 C 
ATOM      7  C   LIG A   1      -8.044   5.496 133.806  0.00  0.00    +0.211 C 
ATOM      8  O   LIG A   1      -6.607   5.581 133.771  0.00  0.00    -0.483 OA
ATOM      9  O   LIG A   1      -8.329   1.952 133.309  0.00  0.00    -0.292 OA
ATOM     10  C   LIG A   1      -6.177   2.631 131.640  0.00  0.00    +0.137 A 
ATOM     11  C   LIG A   1      -5.166   3.084 130.770  0.00  0.00    +0.034 A 
ATOM     12  C   LIG A   1      -4.964   2.257 129.532  0.00  0.00    +0.051 C 
ATOM     13  C   LIG A   1      -4.504   4.305 131.059  0.00  0.00    +0.133 A 
ENDROOT
BRANCH   7  14
ATOM     14  C   LIG A   1      -8.729   6.058 132.549  0.00  0.00    -0.003 A 
ATOM     15  C   LIG A   1      -8.081   6.666 131.473  0.00  0.00    +0.011 A 
ATOM     16  C   LIG A   1      -8.806   7.186 130.392  0.00  0.00    +0.050 A 
ATOM     17  C   LIG A   1     -10.206   7.122 130.288  0.00  0.00    +0.162 A 
ATOM     18  C   LIG A   1     -10.880   6.501 131.347  0.00  0.00    +0.162 A 
ATOM     19  C   LIG A   1     -10.130   5.995 132.456  0.00  0.00    +0.056 A 
BRANCH  18  20
ATOM     20  O   LIG A   1     -12.221   6.349 131.574  0.00  0.00    -0.491 OA
ATOM     21  C   LIG A   1     -13.049   7.484 131.451  0.00  0.00    +0.277 C 
ENDBRANCH  18  20
BRANCH  17  22
ATOM     22  O   LIG A   1     -10.561   7.741 129.123  0.00  0.00    -0.489 OA
BRANCH  22  23
ATOM     23  C   LIG A   1     -11.333   7.190 128.082  0.00  0.00    +0.226 C 
ATOM     24  C   LIG A   1     -10.776   7.481 126.704  0.00  0.00    +0.048 C 
ENDBRANCH  22  23
ENDBRANCH  17  22
ENDBRANCH   7  14
BRANCH  10  25
ATOM     25  O   LIG A   1      -6.801   1.447 131.341  0.00  0.00    -0.506 OA
ATOM     26  H   LIG A   1      -7.777   1.569 131.405  0.00  0.00    +0.292 HD
ENDBRANCH  10  25
BRANCH  13  27
ATOM     27  O   LIG A   1      -3.520   4.919 130.322  0.00  0.00    -0.491 OA
BRANCH  27  28
ATOM     28  C   LIG A   1      -3.793   5.574 129.088  0.00  0.00    +0.226 C 
ATOM     29  C   LIG A   1      -2.529   5.720 128.250  0.00  0.00    +0.048 C 
ENDBRANCH  27  28
ENDBRANCH  13  27
TORSDOF 7
ENDMDL
MODEL 3
REMARK VINA RESULT:      -7.1      1.825      6.730
REMARK  Name = NuBBE_2001
REMARK  12 active torsions:
REMARK  status: ('A' for Active; 'I' for Inactive)
REMARK    1  A    between atoms: C_1  and  C_2
REMARK    2  A    between atoms: C_7  and  C_9
REMARK    3  A    between atoms: C_12  and  O_13
REMARK    4  A    between atoms: O_13  and  C_14
REMARK    5  A    between atoms: C_14  and  C_15
REMARK    6  A    between atoms: C_16  and  O_17
REMARK    7  A    between atoms: O_17  and  C_18
REMARK    8  A    between atoms: C_22  and  O_23
REMARK    9  A    between atoms: C_24  and  C_25
REMARK   10  A    between atoms: C_26  and  O_27
REMARK   11  A    between atoms: O_27  and  C_28
REMARK   12  A    between atoms: C_28  and  C_29
REMARK                            x       y       z     vdW  Elec       q    Type
REMARK                         _______ _______ _______ _____ _____    ______ ____
ROOT
ATOM      1  C   LIG A   1      -7.595   0.703 127.788  0.00  0.00    +0.051 C 
ATOM      2  C   LIG A   1      -7.666  -0.117 126.517  0.00  0.00    +0.034 A 
ATOM      3  C   LIG A   1      -8.648   0.183 125.556  0.00  0.00    +0.142 A 
ATOM      4  C   LIG A   1      -8.773  -0.583 124.404  0.00  0.00    +0.101 A 
ATOM      5  C   LIG A   1      -9.748  -0.183 123.352  0.00  0.00    +0.174 C 
ATOM      6  C   LIG A   1     -10.460   1.122 123.569  0.00  0.00    +0.129 C 
ATOM      7  C   LIG A   1      -9.658   2.014 124.507  0.00  0.00    +0.211 C 
ATOM      8  O   LIG A   1      -9.384   1.324 125.740  0.00  0.00    -0.483 OA
ATOM      9  O   LIG A   1      -9.933  -0.871 122.389  0.00  0.00    -0.292 OA
ATOM     10  C   LIG A   1      -7.847  -1.585 124.126  0.00  0.00    +0.137 A 
ATOM     11  C   LIG A   1      -6.757  -1.816 124.988  0.00  0.00    +0.034 A 
ATOM     12  C   LIG A   1      -5.694  -2.732 124.451  0.00  0.00    +0.051 C 
ATOM     13  C   LIG A   1      -6.689  -1.109 126.216  0.00  0.00    +0.133 A 
ENDROOT
BRANCH   7  14
ATOM     14  C   LIG A   1      -8.436   2.738 123.916  0.00  0.00    -0.003 A 
ATOM     15  C   LIG A   1      -8.150   2.874 122.557  0.00  0.00    +0.011 A 
ATOM     16  C   LIG A   1      -6.983   3.518 122.124  0.00  0.00    +0.050 A 
ATOM     17  C   LIG A   1      -6.036   4.086 122.995  0.00  0.00    +0.162 A 
ATOM     18  C   LIG A   1      -6.308   3.978 124.364  0.00  0.00    +0.162 A 
ATOM     19  C   LIG A   1      -7.492   3.298 124.794  0.00  0.00    +0.056 A 
BRANCH  18  20
ATOM     20  O   LIG A   1      -5.561   4.356 125.447  0.00  0.00    -0.491 OA
ATOM     21  C   LIG A   1      -5.137   3.355 126.345  0.00  0.00    +0.277 C 
ENDBRANCH  18  20
BRANCH  17  22
ATOM     22  O   LIG A   1      -5.030   4.602 122.228  0.00  0.00    -0.489 OA
BRANCH  22  23
ATOM     23  C   LIG A   1      -4.777   4.312 120.873  0.00  0.00    +0.226 C 
ATOM     24  C   LIG A   1      -5.179   5.430 119.935  0.00  0.00    +0.048 C 
ENDBRANCH  22  23
ENDBRANCH  17  22
ENDBRANCH   7  14
BRANCH  10  25
ATOM     25  O   LIG A   1      -7.892  -2.282 122.945  0.00  0.00    -0.506 OA
ATOM     26  H   LIG A   1      -8.535  -1.850 122.337  0.00  0.00    +0.292 HD
ENDBRANCH  10  25
BRANCH  13  27
ATOM     27  O   LIG A   1      -5.700  -1.177 127.167  0.00  0.00    -0.491 OA
BRANCH  27  28
ATOM     28  C   LIG A   1      -5.318  -2.403 127.781  0.00  0.00    +0.226 C 
ATOM     29  C   LIG A   1      -4.604  -2.160 129.104  0.00  0.00    +0.048 C 
ENDBRANCH  27  28
ENDBRANCH  13  27
TORSDOF 7
ENDMDL
MODEL 4
REMARK VINA RESULT:      -7.1      6.020      9.932
REMARK  Name = NuBBE_2001
REMARK  12 active torsions:
REMARK  status: ('A' for Active; 'I' for Inactive)
REMARK    1  A    between atoms: C_1  and  C_2
REMARK    2  A    between atoms: C_7  and  C_9
REMARK    3  A    between atoms: C_12  and  O_13
REMARK    4  A    between atoms: O_13  and  C_14
REMARK    5  A    between atoms: C_14  and  C_15
REMARK    6  A    between atoms: C_16  and  O_17
REMARK    7  A    between atoms: O_17  and  C_18
REMARK    8  A    between atoms: C_22  and  O_23
REMARK    9  A    between atoms: C_24  and  C_25
REMARK   10  A    between atoms: C_26  and  O_27
REMARK   11  A    between atoms: O_27  and  C_28
REMARK   12  A    between atoms: C_28  and  C_29
REMARK                            x       y       z     vdW  Elec       q    Type
REMARK                         _______ _______ _______ _____ _____    ______ ____
ROOT
ATOM      1  C   LIG A   1      -9.352   3.291 133.805  0.00  0.00    +0.051 C 
ATOM      2  C   LIG A   1      -9.171   3.206 132.304  0.00  0.00    +0.034 A 
ATOM      3  C   LIG A   1      -9.320   4.366 131.523  0.00  0.00    +0.142 A 
ATOM      4  C   LIG A   1      -9.213   4.310 130.140  0.00  0.00    +0.101 A 
ATOM      5  C   LIG A   1      -9.268   5.566 129.342  0.00  0.00    +0.174 C 
ATOM      6  C   LIG A   1      -9.318   6.847 130.126  0.00  0.00    +0.129 C 
ATOM      7  C   LIG A   1      -8.755   6.636 131.525  0.00  0.00    +0.211 C 
ATOM      8  O   LIG A   1      -9.447   5.559 132.184  0.00  0.00    -0.483 OA
ATOM      9  O   LIG A   1      -9.260   5.537 128.145  0.00  0.00    -0.292 OA
ATOM     10  C   LIG A   1      -8.835   3.124 129.514  0.00  0.00    +0.137 A 
ATOM     11  C   LIG A   1      -8.527   1.979 130.273  0.00  0.00    +0.034 A 
ATOM     12  C   LIG A   1      -7.883   0.855 129.509  0.00  0.00    +0.051 C 
ATOM     13  C   LIG A   1      -8.740   2.003 131.674  0.00  0.00    +0.133 A 
ENDROOT
BRANCH   7  14
ATOM     14  C   LIG A   1      -7.225   6.569 131.665  0.00  0.00    -0.003 A 
ATOM     15  C   LIG A   1      -6.531   5.959 132.711  0.00  0.00    +0.011 A 
ATOM     16  C   LIG A   1      -5.131   5.992 132.766  0.00  0.00    +0.050 A 
ATOM     17  C   LIG A   1      -4.326   6.604 131.789  0.00  0.00    +0.162 A 
ATOM     18  C   LIG A   1      -4.998   7.208 130.720  0.00  0.00    +0.162 A 
ATOM     19  C   LIG A   1      -6.428   7.188 130.687  0.00  0.00    +0.056 A 
BRANCH  18  20
ATOM     20  O   LIG A   1      -4.511   7.936 129.667  0.00  0.00    -0.491 OA
ATOM     21  C   LIG A   1      -3.632   7.298 128.767  0.00  0.00    +0.277 C 
ENDBRANCH  18  20
BRANCH  17  22
ATOM     22  O   LIG A   1      -3.025   6.459 132.180  0.00  0.00    -0.489 OA
BRANCH  22  23
ATOM     23  C   LIG A   1      -2.005   7.425 132.076  0.00  0.00    +0.226 C 
ATOM     24  C   LIG A   1      -2.323   8.713 132.807  0.00  0.00    +0.048 C 
ENDBRANCH  22  23
ENDBRANCH  17  22
ENDBRANCH   7  14
BRANCH  10  25
ATOM     25  O   LIG A   1      -8.623   3.076 128.159  0.00  0.00    -0.506 OA
ATOM     26  H   LIG A   1      -8.810   2.165 127.834  0.00  0.00    +0.292 HD
ENDBRANCH  10  25
BRANCH  13  27
ATOM     27  O   LIG A   1      -8.476   1.002 132.579  0.00  0.00    -0.491 OA
BRANCH  27  28
ATOM     28  C   LIG A   1      -7.149   0.602 132.903  0.00  0.00    +0.226 C 
ATOM     29  C   LIG A   1      -6.983  -0.908 132.779  0.00  0.00    +0.048 C 
ENDBRANCH  27  28
ENDBRANCH  13  27
TORSDOF 7
ENDMDL
MODEL 5
REMARK VINA RESULT:      -7.1      5.690      9.787
REMARK  Name = NuBBE_2001
REMARK  12 active torsions:
REMARK  status: ('A' for Active; 'I' for Inactive)
REMARK    1  A    between atoms: C_1  and  C_2
REMARK    2  A    between atoms: C_7  and  C_9
REMARK    3  A    between atoms: C_12  and  O_13
REMARK    4  A    between atoms: O_13  and  C_14
REMARK    5  A    between atoms: C_14  and  C_15
REMARK    6  A    between atoms: C_16  and  O_17
REMARK    7  A    between atoms: O_17  and  C_18
REMARK    8  A    between atoms: C_22  and  O_23
REMARK    9  A    between atoms: C_24  and  C_25
REMARK   10  A    between atoms: C_26  and  O_27
REMARK   11  A    between atoms: O_27  and  C_28
REMARK   12  A    between atoms: C_28  and  C_29
REMARK                            x       y       z     vdW  Elec       q    Type
REMARK                         _______ _______ _______ _____ _____    ______ ____
ROOT
ATOM      1  C   LIG A   1      -5.888   6.662 130.709  0.00  0.00    +0.051 C 
ATOM      2  C   LIG A   1      -6.603   5.335 130.570  0.00  0.00    +0.034 A 
ATOM      3  C   LIG A   1      -7.459   4.901 131.599  0.00  0.00    +0.142 A 
ATOM      4  C   LIG A   1      -8.088   3.665 131.524  0.00  0.00    +0.101 A 
ATOM      5  C   LIG A   1      -9.071   3.272 132.572  0.00  0.00    +0.174 C 
ATOM      6  C   LIG A   1      -9.404   4.320 133.595  0.00  0.00    +0.129 C 
ATOM      7  C   LIG A   1      -9.107   5.709 133.048  0.00  0.00    +0.211 C 
ATOM      8  O   LIG A   1      -7.741   5.789 132.602  0.00  0.00    -0.483 OA
ATOM      9  O   LIG A   1      -9.565   2.181 132.576  0.00  0.00    -0.292 OA
ATOM     10  C   LIG A   1      -7.978   2.890 130.372  0.00  0.00    +0.137 A 
ATOM     11  C   LIG A   1      -7.255   3.360 129.258  0.00  0.00    +0.034 A 
ATOM     12  C   LIG A   1      -7.429   2.562 127.996  0.00  0.00    +0.051 C 
ATOM     13  C   LIG A   1      -6.524   4.569 129.371  0.00  0.00    +0.133 A 
ENDROOT
BRANCH   7  14
ATOM     14  C   LIG A   1     -10.119   6.306 132.055  0.00  0.00    -0.003 A 
ATOM     15  C   LIG A   1     -11.495   6.412 132.261  0.00  0.00    +0.011 A 
ATOM     16  C   LIG A   1     -12.337   6.935 131.270  0.00  0.00    +0.050 A 
ATOM     17  C   LIG A   1     -11.880   7.405 130.026  0.00  0.00    +0.162 A 
ATOM     18  C   LIG A   1     -10.500   7.326 129.801  0.00  0.00    +0.162 A 
ATOM     19  C   LIG A   1      -9.654   6.769 130.811  0.00  0.00    +0.056 A 
BRANCH  18  20
ATOM     20  O   LIG A   1      -9.768   7.628 128.684  0.00  0.00    -0.491 OA
ATOM     21  C   LIG A   1     -10.272   7.225 127.429  0.00  0.00    +0.277 C 
ENDBRANCH  18  20
BRANCH  17  22
ATOM     22  O   LIG A   1     -12.972   7.817 129.316  0.00  0.00    -0.489 OA
BRANCH  22  23
ATOM     23  C   LIG A   1     -13.157   9.079 128.718  0.00  0.00    +0.226 C 
ATOM     24  C   LIG A   1     -13.159  10.219 129.714  0.00  0.00    +0.048 C 
ENDBRANCH  22  23
ENDBRANCH  17  22
ENDBRANCH   7  14
BRANCH  10  25
ATOM     25  O   LIG A   1      -8.675   1.717 130.240  0.00  0.00    -0.506 OA
ATOM     26  H   LIG A   1      -8.097   0.964 130.503  0.00  0.00    +0.292 HD
ENDBRANCH  10  25
BRANCH  13  27
ATOM     27  O   LIG A   1      -5.787   5.197 128.395  0.00  0.00    -0.491 OA
BRANCH  27  28
ATOM     28  C   LIG A   1      -4.494   4.743 128.010  0.00  0.00    +0.226 C 
ATOM     29  C   LIG A   1      -3.517   5.905 127.884  0.00  0.00    +0.048 C 
ENDBRANCH  27  28
ENDBRANCH  13  27
TORSDOF 7
ENDMDL
MODEL 6
REMARK VINA RESULT:      -6.9      5.285      9.422
REMARK  Name = NuBBE_2001
REMARK  12 active torsions:
REMARK  status: ('A' for Active; 'I' for Inactive)
REMARK    1  A    between atoms: C_1  and  C_2
REMARK    2  A    between atoms: C_7  and  C_9
REMARK    3  A    between atoms: C_12  and  O_13
REMARK    4  A    between atoms: O_13  and  C_14
REMARK    5  A    between atoms: C_14  and  C_15
REMARK    6  A    between atoms: C_16  and  O_17
REMARK    7  A    between atoms: O_17  and  C_18
REMARK    8  A    between atoms: C_22  and  O_23
REMARK    9  A    between atoms: C_24  and  C_25
REMARK   10  A    between atoms: C_26  and  O_27
REMARK   11  A    between atoms: O_27  and  C_28
REMARK   12  A    between atoms: C_28  and  C_29
REMARK                            x       y       z     vdW  Elec       q    Type
REMARK                         _______ _______ _______ _____ _____    ______ ____
ROOT
ATOM      1  C   LIG A   1      -6.016   4.531 128.975  0.00  0.00    +0.051 C 
ATOM      2  C   LIG A   1      -6.738   3.747 130.051  0.00  0.00    +0.034 A 
ATOM      3  C   LIG A   1      -7.131   4.398 131.234  0.00  0.00    +0.142 A 
ATOM      4  C   LIG A   1      -7.748   3.694 132.260  0.00  0.00    +0.101 A 
ATOM      5  C   LIG A   1      -8.250   4.422 133.458  0.00  0.00    +0.174 C 
ATOM      6  C   LIG A   1      -8.154   5.921 133.411  0.00  0.00    +0.129 C 
ATOM      7  C   LIG A   1      -8.084   6.403 131.968  0.00  0.00    +0.211 C 
ATOM      8  O   LIG A   1      -6.996   5.760 131.279  0.00  0.00    -0.483 OA
ATOM      9  O   LIG A   1      -8.711   3.831 134.392  0.00  0.00    -0.292 OA
ATOM     10  C   LIG A   1      -8.097   2.358 132.082  0.00  0.00    +0.137 A 
ATOM     11  C   LIG A   1      -7.860   1.711 130.854  0.00  0.00    +0.034 A 
ATOM     12  C   LIG A   1      -8.514   0.367 130.698  0.00  0.00    +0.051 C 
ATOM     13  C   LIG A   1      -7.134   2.393 129.845  0.00  0.00    +0.133 A 
ENDROOT
BRANCH   7  14
ATOM     14  C   LIG A   1      -9.397   6.427 131.169  0.00  0.00    -0.003 A 
ATOM     15  C   LIG A   1     -10.681   6.349 131.711  0.00  0.00    +0.011 A 
ATOM     16  C   LIG A   1     -11.814   6.335 130.887  0.00  0.00    +0.050 A 
ATOM     17  C   LIG A   1     -11.761   6.419 129.485  0.00  0.00    +0.162 A 
ATOM     18  C   LIG A   1     -10.485   6.515 128.916  0.00  0.00    +0.162 A 
ATOM     19  C   LIG A   1      -9.335   6.505 129.767  0.00  0.00    +0.056 A 
BRANCH  18  20
ATOM     20  O   LIG A   1     -10.102   6.537 127.602  0.00  0.00    -0.491 OA
ATOM     21  C   LIG A   1     -10.522   7.623 126.805  0.00  0.00    +0.277 C 
ENDBRANCH  18  20
BRANCH  17  22
ATOM     22  O   LIG A   1     -13.045   6.355 129.021  0.00  0.00    -0.489 OA
BRANCH  22  23
ATOM     23  C   LIG A   1     -13.669   7.273 128.153  0.00  0.00    +0.226 C 
ATOM     24  C   LIG A   1     -13.381   8.718 128.501  0.00  0.00    +0.048 C 
ENDBRANCH  22  23
ENDBRANCH  17  22
ENDBRANCH   7  14
BRANCH  10  25
ATOM     25  O   LIG A   1      -8.799   1.676 133.044  0.00  0.00    -0.506 OA
ATOM     26  H   LIG A   1      -9.102   2.310 133.735  0.00  0.00    +0.292 HD
ENDBRANCH  10  25
BRANCH  13  27
ATOM     27  O   LIG A   1      -6.829   1.943 128.583  0.00  0.00    -0.491 OA
BRANCH  27  28
ATOM     28  C   LIG A   1      -7.813   1.824 127.561  0.00  0.00    +0.226 C 
ATOM     29  C   LIG A   1      -7.883   0.399 127.026  0.00  0.00    +0.048 C 
ENDBRANCH  27  28
ENDBRANCH  13  27
TORSDOF 7
ENDMDL
MODEL 7
REMARK VINA RESULT:      -6.8      3.833      7.580
REMARK  Name = NuBBE_2001
REMARK  12 active torsions:
REMARK  status: ('A' for Active; 'I' for Inactive)
REMARK    1  A    between atoms: C_1  and  C_2
REMARK    2  A    between atoms: C_7  and  C_9
REMARK    3  A    between atoms: C_12  and  O_13
REMARK    4  A    between atoms: O_13  and  C_14
REMARK    5  A    between atoms: C_14  and  C_15
REMARK    6  A    between atoms: C_16  and  O_17
REMARK    7  A    between atoms: O_17  and  C_18
REMARK    8  A    between atoms: C_22  and  O_23
REMARK    9  A    between atoms: C_24  and  C_25
REMARK   10  A    between atoms: C_26  and  O_27
REMARK   11  A    between atoms: O_27  and  C_28
REMARK   12  A    between atoms: C_28  and  C_29
REMARK                            x       y       z     vdW  Elec       q    Type
REMARK                         _______ _______ _______ _____ _____    ______ ____
ROOT
ATOM      1  C   LIG A   1      -5.282   0.020 126.089  0.00  0.00    +0.051 C 
ATOM      2  C   LIG A   1      -6.250  -0.988 126.672  0.00  0.00    +0.034 A 
ATOM      3  C   LIG A   1      -6.227  -1.247 128.055  0.00  0.00    +0.142 A 
ATOM      4  C   LIG A   1      -7.065  -2.204 128.612  0.00  0.00    +0.101 A 
ATOM      5  C   LIG A   1      -7.100  -2.386 130.090  0.00  0.00    +0.174 C 
ATOM      6  C   LIG A   1      -6.290  -1.412 130.897  0.00  0.00    +0.129 C 
ATOM      7  C   LIG A   1      -6.053  -0.134 130.104  0.00  0.00    +0.211 C 
ATOM      8  O   LIG A   1      -5.445  -0.438 128.835  0.00  0.00    -0.483 OA
ATOM      9  O   LIG A   1      -7.752  -3.259 130.588  0.00  0.00    -0.292 OA
ATOM     10  C   LIG A   1      -8.027  -2.835 127.827  0.00  0.00    +0.137 A 
ATOM     11  C   LIG A   1      -8.185  -2.492 126.471  0.00  0.00    +0.034 A 
ATOM     12  C   LIG A   1      -9.417  -3.042 125.807  0.00  0.00    +0.051 C 
ATOM     13  C   LIG A   1      -7.262  -1.596 125.875  0.00  0.00    +0.133 A 
ENDROOT
BRANCH   7  14
ATOM     14  C   LIG A   1      -7.221   0.862 130.009  0.00  0.00    -0.003 A 
ATOM     15  C   LIG A   1      -7.555   1.620 128.885  0.00  0.00    +0.011 A 
ATOM     16  C   LIG A   1      -8.617   2.533 128.919  0.00  0.00    +0.050 A 
ATOM     17  C   LIG A   1      -9.430   2.745 130.046  0.00  0.00    +0.162 A 
ATOM     18  C   LIG A   1      -9.127   1.984 131.182  0.00  0.00    +0.162 A 
ATOM     19  C   LIG A   1      -8.026   1.072 131.143  0.00  0.00    +0.056 A 
BRANCH  18  20
ATOM     20  O   LIG A   1      -9.675   2.011 132.436  0.00  0.00    -0.491 OA
ATOM     21  C   LIG A   1      -9.216   2.991 133.341  0.00  0.00    +0.277 C 
ENDBRANCH  18  20
BRANCH  17  22
ATOM     22  O   LIG A   1     -10.339   3.712 129.721  0.00  0.00    -0.489 OA
BRANCH  22  23
ATOM     23  C   LIG A   1     -10.604   4.891 130.446  0.00  0.00    +0.226 C 
ATOM     24  C   LIG A   1      -9.365   5.714 130.725  0.00  0.00    +0.048 C 
ENDBRANCH  22  23
ENDBRANCH  17  22
ENDBRANCH   7  14
BRANCH  10  25
ATOM     25  O   LIG A   1      -8.932  -3.705 128.381  0.00  0.00    -0.506 OA
ATOM     26  H   LIG A   1      -9.591  -3.967 127.697  0.00  0.00    +0.292 HD
ENDBRANCH  10  25
BRANCH  13  27
ATOM     27  O   LIG A   1      -7.267  -1.124 124.584  0.00  0.00    -0.491 OA
BRANCH  27  28
ATOM     28  C   LIG A   1      -7.072  -1.978 123.462  0.00  0.00    +0.226 C 
ATOM     29  C   LIG A   1      -5.679  -2.597 123.476  0.00  0.00    +0.048 C 
ENDBRANCH  27  28
ENDBRANCH  13  27
TORSDOF 7
ENDMDL
MODEL 8
REMARK VINA RESULT:      -6.7      6.539     10.632
REMARK  Name = NuBBE_2001
REMARK  12 active torsions:
REMARK  status: ('A' for Active; 'I' for Inactive)
REMARK    1  A    between atoms: C_1  and  C_2
REMARK    2  A    between atoms: C_7  and  C_9
REMARK    3  A    between atoms: C_12  and  O_13
REMARK    4  A    between atoms: O_13  and  C_14
REMARK    5  A    between atoms: C_14  and  C_15
REMARK    6  A    between atoms: C_16  and  O_17
REMARK    7  A    between atoms: O_17  and  C_18
REMARK    8  A    between atoms: C_22  and  O_23
REMARK    9  A    between atoms: C_24  and  C_25
REMARK   10  A    between atoms: C_26  and  O_27
REMARK   11  A    between atoms: O_27  and  C_28
REMARK   12  A    between atoms: C_28  and  C_29
REMARK                            x       y       z     vdW  Elec       q    Type
REMARK                         _______ _______ _______ _____ _____    ______ ____
ROOT
ATOM      1  C   LIG A   1      -8.567   4.253 134.420  0.00  0.00    +0.051 C 
ATOM      2  C   LIG A   1      -7.822   4.539 133.133  0.00  0.00    +0.034 A 
ATOM      3  C   LIG A   1      -8.268   3.956 131.933  0.00  0.00    +0.142 A 
ATOM      4  C   LIG A   1      -7.576   4.157 130.746  0.00  0.00    +0.101 A 
ATOM      5  C   LIG A   1      -8.125   3.618 129.470  0.00  0.00    +0.174 C 
ATOM      6  C   LIG A   1      -9.483   2.982 129.549  0.00  0.00    +0.129 C 
ATOM      7  C   LIG A   1     -10.242   3.499 130.764  0.00  0.00    +0.211 C 
ATOM      8  O   LIG A   1      -9.468   3.295 131.960  0.00  0.00    -0.483 OA
ATOM      9  O   LIG A   1      -7.507   3.706 128.448  0.00  0.00    -0.292 OA
ATOM     10  C   LIG A   1      -6.499   5.039 130.703  0.00  0.00    +0.137 A 
ATOM     11  C   LIG A   1      -6.117   5.761 131.850  0.00  0.00    +0.034 A 
ATOM     12  C   LIG A   1      -5.124   6.864 131.614  0.00  0.00    +0.051 C 
ATOM     13  C   LIG A   1      -6.751   5.477 133.086  0.00  0.00    +0.133 A 
ENDROOT
BRANCH   7  14
ATOM     14  C   LIG A   1     -10.865   4.902 130.660  0.00  0.00    -0.003 A 
ATOM     15  C   LIG A   1     -11.234   5.709 131.737  0.00  0.00    +0.011 A 
ATOM     16  C   LIG A   1     -11.836   6.958 131.531  0.00  0.00    +0.050 A 
ATOM     17  C   LIG A   1     -12.093   7.501 130.260  0.00  0.00    +0.162 A 
ATOM     18  C   LIG A   1     -11.716   6.717 129.162  0.00  0.00    +0.162 A 
ATOM     19  C   LIG A   1     -11.124   5.434 129.385  0.00  0.00    +0.056 A 
BRANCH  18  20
ATOM     20  O   LIG A   1     -11.896   6.929 127.822  0.00  0.00    -0.491 OA
ATOM     21  C   LIG A   1     -10.899   7.640 127.121  0.00  0.00    +0.277 C 
ENDBRANCH  18  20
BRANCH  17  22
ATOM     22  O   LIG A   1     -12.700   8.711 130.445  0.00  0.00    -0.489 OA
BRANCH  22  23
ATOM     23  C   LIG A   1     -12.989   9.665 129.450  0.00  0.00    +0.226 C 
ATOM     24  C   LIG A   1     -13.483  10.983 130.009  0.00  0.00    +0.048 C 
ENDBRANCH  22  23
ENDBRANCH  17  22
ENDBRANCH   7  14
BRANCH  10  25
ATOM     25  O   LIG A   1      -5.869   5.329 129.519  0.00  0.00    -0.506 OA
ATOM     26  H   LIG A   1      -5.008   4.851 129.484  0.00  0.00    +0.292 HD
ENDBRANCH  10  25
BRANCH  13  27
ATOM     27  O   LIG A   1      -6.536   6.089 134.297  0.00  0.00    -0.491 OA
BRANCH  27  28
ATOM     28  C   LIG A   1      -5.291   6.001 134.983  0.00  0.00    +0.226 C 
ATOM     29  C   LIG A   1      -4.906   4.549 135.241  0.00  0.00    +0.048 C 
ENDBRANCH  27  28
ENDBRANCH  13  27
TORSDOF 7
ENDMDL
MODEL 9
REMARK VINA RESULT:      -6.7      2.657      5.209
REMARK  Name = NuBBE_2001
REMARK  12 active torsions:
REMARK  status: ('A' for Active; 'I' for Inactive)
REMARK    1  A    between atoms: C_1  and  C_2
REMARK    2  A    between atoms: C_7  and  C_9
REMARK    3  A    between atoms: C_12  and  O_13
REMARK    4  A    between atoms: O_13  and  C_14
REMARK    5  A    between atoms: C_14  and  C_15
REMARK    6  A    between atoms: C_16  and  O_17
REMARK    7  A    between atoms: O_17  and  C_18
REMARK    8  A    between atoms: C_22  and  O_23
REMARK    9  A    between atoms: C_24  and  C_25
REMARK   10  A    between atoms: C_26  and  O_27
REMARK   11  A    between atoms: O_27  and  C_28
REMARK   12  A    between atoms: C_28  and  C_29
REMARK                            x       y       z     vdW  Elec       q    Type
REMARK                         _______ _______ _______ _____ _____    ______ ____
ROOT
ATOM      1  C   LIG A   1      -3.141   3.194 126.597  0.00  0.00    +0.051 C 
ATOM      2  C   LIG A   1      -4.534   3.629 127.000  0.00  0.00    +0.034 A 
ATOM      3  C   LIG A   1      -5.555   3.662 126.032  0.00  0.00    +0.142 A 
ATOM      4  C   LIG A   1      -6.829   4.106 126.359  0.00  0.00    +0.101 A 
ATOM      5  C   LIG A   1      -7.920   4.032 125.348  0.00  0.00    +0.174 C 
ATOM      6  C   LIG A   1      -7.577   3.354 124.052  0.00  0.00    +0.129 C 
ATOM      7  C   LIG A   1      -6.395   2.414 124.242  0.00  0.00    +0.211 C 
ATOM      8  O   LIG A   1      -5.276   3.125 124.803  0.00  0.00    -0.483 OA
ATOM      9  O   LIG A   1      -9.005   4.484 125.577  0.00  0.00    -0.292 OA
ATOM     10  C   LIG A   1      -7.148   4.411 127.680  0.00  0.00    +0.137 A 
ATOM     11  C   LIG A   1      -6.196   4.243 128.705  0.00  0.00    +0.034 A 
ATOM     12  C   LIG A   1      -6.733   4.349 130.105  0.00  0.00    +0.051 C 
ATOM     13  C   LIG A   1      -4.866   3.894 128.360  0.00  0.00    +0.133 A 
ENDROOT
BRANCH   7  14
ATOM     14  C   LIG A   1      -6.672   1.060 124.918  0.00  0.00    -0.003 A 
ATOM     15  C   LIG A   1      -5.893   0.476 125.918  0.00  0.00    +0.011 A 
ATOM     16  C   LIG A   1      -6.212  -0.785 126.438  0.00  0.00    +0.050 A 
ATOM     17  C   LIG A   1      -7.324  -1.541 126.027  0.00  0.00    +0.162 A 
ATOM     18  C   LIG A   1      -8.132  -0.969 125.037  0.00  0.00    +0.162 A 
ATOM     19  C   LIG A   1      -7.783   0.309 124.497  0.00  0.00    +0.056 A 
BRANCH  18  20
ATOM     20  O   LIG A   1      -9.224  -1.476 124.385  0.00  0.00    -0.491 OA
ATOM     21  C   LIG A   1      -9.290  -2.871 124.184  0.00  0.00    +0.277 C 
ENDBRANCH  18  20
BRANCH  17  22
ATOM     22  O   LIG A   1      -7.305  -2.714 126.729  0.00  0.00    -0.489 OA
BRANCH  22  23
ATOM     23  C   LIG A   1      -7.884  -2.944 127.992  0.00  0.00    +0.226 C 
ATOM     24  C   LIG A   1      -8.932  -4.037 127.982  0.00  0.00    +0.048 C 
ENDBRANCH  22  23
ENDBRANCH  17  22
ENDBRANCH   7  14
BRANCH  10  25
ATOM     25  O   LIG A   1      -8.428   4.751 128.039  0.00  0.00    -0.506 OA
ATOM     26  H   LIG A   1      -8.409   5.593 128.549  0.00  0.00    +0.292 HD
ENDBRANCH  10  25
BRANCH  13  27
ATOM     27  O   LIG A   1      -3.813   3.662 129.212  0.00  0.00    -0.491 OA
BRANCH  27  28
ATOM     28  C   LIG A   1      -3.263   4.685 130.036  0.00  0.00    +0.226 C 
ATOM     29  C   LIG A   1      -2.589   5.764 129.198  0.00  0.00    +0.048 C 
ENDBRANCH  27  28
ENDBRANCH  13  27
TORSDOF 7
ENDMDL
