MODEL 1
REMARK VINA RESULT:      -8.4      0.000      0.000
REMARK  Name = NuBBE_1546
REMARK  13 active torsions:
REMARK  status: ('A' for Active; 'I' for Inactive)
REMARK    1  A    between atoms: C_1  and  C_2
REMARK    2  A    between atoms: C_11  and  O_26
REMARK    3  A    between atoms: C_13  and  O_15
REMARK    4  A    between atoms: O_15  and  C_16
REMARK    5  A    between atoms: C_16  and  C_17
REMARK    6  A    between atoms: C_19  and  O_21
REMARK    7  A    between atoms: O_21  and  C_22
REMARK    8  A    between atoms: C_22  and  C_23
REMARK    9  A    between atoms: O_26  and  C_27
REMARK   10  A    between atoms: C_27  and  C_28
REMARK   11  A    between atoms: C_32  and  C_33
REMARK   12  A    between atoms: C_34  and  C_36
REMARK   13  A    between atoms: C_36  and  C_37
REMARK                            x       y       z     vdW  Elec       q    Type
REMARK                         _______ _______ _______ _____ _____    ______ ____
ROOT
ATOM      1  C   LIG A   1      -3.030   1.836 132.903  0.00  0.00    +0.012 C 
ATOM      2  C   LIG A   1      -4.138   2.697 132.312  0.00  0.00    -0.019 C 
ATOM      3  C   LIG A   1      -5.801   1.949 131.990  0.00  0.00    -0.001 C 
ATOM      4  C   LIG A   1      -7.214   2.960 133.337  0.00  0.00    -0.003 C 
ATOM      5  C   LIG A   1      -6.595   3.542 134.748  0.00  0.00    +0.004 C 
ATOM      6  C   LIG A   1      -5.242   4.220 134.415  0.00  0.00    +0.008 C 
ATOM      7  C   LIG A   1      -5.005   3.311 133.288  0.00  0.00    +0.040 C 
ATOM      8  C   LIG A   1      -6.167   3.682 132.033  0.00  0.00    +0.224 C 
ATOM      9  C   LIG A   1      -6.202   4.835 131.383  0.00  0.00    +0.257 C 
ATOM     10  C   LIG A   1      -4.490   5.026 130.857  0.00  0.00    +0.221 C 
ATOM     11  C   LIG A   1      -3.513   3.861 131.401  0.00  0.00    +0.055 C 
ATOM     12  C   LIG A   1      -8.024   4.753 132.683  0.00  0.00    +0.006 C 
ATOM     13  C   LIG A   1      -7.893   5.723 130.858  0.00  0.00    -0.019 C 
ATOM     14  C   LIG A   1      -7.173   7.138 130.965  0.00  0.00    +0.012 C 
ATOM     15  C   LIG A   1      -9.433   6.134 130.631  0.00  0.00    +0.061 C 
ATOM     16  C   LIG A   1     -10.090   6.085 132.062  0.00  0.00    +0.137 C 
ATOM     17  C   LIG A   1      -9.415   5.222 133.176  0.00  0.00    +0.079 C 
ATOM     18  O   LIG A   1     -11.176   6.624 132.289  0.00  0.00    -0.297 OA
ATOM     19  C   LIG A   1      -6.864   4.542 129.464  0.00  0.00    +0.008 C 
ATOM     20  C   LIG A   1      -6.139   2.696 130.032  0.00  0.00    +0.005 C 
ENDROOT
BRANCH  15  21
ATOM     21  C   LIG A   1      -9.689   7.400 129.762  0.00  0.00    +0.008 C 
ATOM     22  C   LIG A   1     -10.814   7.263 128.743  0.00  0.00    +0.004 C 
ENDBRANCH  15  21
BRANCH   9  23
ATOM     23  O   LIG A   1      -7.832   3.917 130.815  0.00  0.00    -0.454 OA
BRANCH  23  24
ATOM     24  C   LIG A   1      -8.911   3.404 130.050  0.00  0.00    +0.304 C 
ATOM     25  C   LIG A   1     -10.092   3.040 130.901  0.00  0.00    +0.136 C 
ATOM     26  O   LIG A   1      -8.961   3.169 128.849  0.00  0.00    -0.251 OA
ENDBRANCH  23  24
ENDBRANCH   9  23
BRANCH  10  27
ATOM     27  O   LIG A   1      -4.169   5.296 129.466  0.00  0.00    -0.458 OA
BRANCH  27  28
ATOM     28  C   LIG A   1      -3.657   6.515 129.111  0.00  0.00    +0.304 C 
ATOM     29  C   LIG A   1      -2.203   6.416 128.725  0.00  0.00    +0.136 C 
ATOM     30  O   LIG A   1      -4.268   7.574 129.143  0.00  0.00    -0.251 OA
ENDBRANCH  27  28
ENDBRANCH  10  27
BRANCH   8  31
ATOM     31  O   LIG A   1      -7.562   2.286 131.609  0.00  0.00    -0.457 OA
BRANCH  31  32
ATOM     32  C   LIG A   1      -8.119   0.960 131.676  0.00  0.00    +0.304 C 
ATOM     33  C   LIG A   1      -8.021   0.042 130.428  0.00  0.00    +0.136 C 
ATOM     34  O   LIG A   1      -8.602   0.457 132.694  0.00  0.00    -0.251 OA
ENDBRANCH  31  32
ENDBRANCH   8  31
TORSDOF 7
ENDMDL
MODEL 2
REMARK VINA RESULT:      -8.2      2.058      5.347
REMARK  Name = NuBBE_1546
REMARK  13 active torsions:
REMARK  status: ('A' for Active; 'I' for Inactive)
REMARK    1  A    between atoms: C_1  and  C_2
REMARK    2  A    between atoms: C_11  and  O_26
REMARK    3  A    between atoms: C_13  and  O_15
REMARK    4  A    between atoms: O_15  and  C_16
REMARK    5  A    between atoms: C_16  and  C_17
REMARK    6  A    between atoms: C_19  and  O_21
REMARK    7  A    between atoms: O_21  and  C_22
REMARK    8  A    between atoms: C_22  and  C_23
REMARK    9  A    between atoms: O_26  and  C_27
REMARK   10  A    between atoms: C_27  and  C_28
REMARK   11  A    between atoms: C_32  and  C_33
REMARK   12  A    between atoms: C_34  and  C_36
REMARK   13  A    between atoms: C_36  and  C_37
REMARK                            x       y       z     vdW  Elec       q    Type
REMARK                         _______ _______ _______ _____ _____    ______ ____
ROOT
ATOM      1  C   LIG A   1      -6.273   6.299 136.088  0.00  0.00    +0.012 C 
ATOM      2  C   LIG A   1      -6.486   5.320 134.942  0.00  0.00    -0.019 C 
ATOM      3  C   LIG A   1      -7.854   5.618 133.730  0.00  0.00    -0.001 C 
ATOM      4  C   LIG A   1      -6.897   6.007 131.789  0.00  0.00    -0.003 C 
ATOM      5  C   LIG A   1      -5.388   6.667 131.833  0.00  0.00    +0.004 C 
ATOM      6  C   LIG A   1      -4.594   5.931 132.941  0.00  0.00    +0.008 C 
ATOM      7  C   LIG A   1      -5.812   5.675 133.718  0.00  0.00    +0.040 C 
ATOM      8  C   LIG A   1      -6.789   4.521 132.836  0.00  0.00    +0.224 C 
ATOM      9  C   LIG A   1      -6.413   3.273 132.596  0.00  0.00    +0.257 C 
ATOM     10  C   LIG A   1      -5.927   2.702 134.233  0.00  0.00    +0.221 C 
ATOM     11  C   LIG A   1      -6.002   3.851 135.367  0.00  0.00    +0.055 C 
ATOM     12  C   LIG A   1      -6.394   4.359 130.637  0.00  0.00    +0.006 C 
ATOM     13  C   LIG A   1      -6.799   2.343 130.890  0.00  0.00    -0.019 C 
ATOM     14  C   LIG A   1      -5.481   1.471 131.079  0.00  0.00    +0.012 C 
ATOM     15  C   LIG A   1      -7.268   1.947 129.402  0.00  0.00    +0.061 C 
ATOM     16  C   LIG A   1      -6.684   3.074 128.470  0.00  0.00    +0.137 C 
ATOM     17  C   LIG A   1      -6.323   4.461 129.093  0.00  0.00    +0.079 C 
ATOM     18  O   LIG A   1      -6.607   2.923 127.248  0.00  0.00    -0.297 OA
ATOM     19  C   LIG A   1      -8.052   2.042 132.544  0.00  0.00    +0.008 C 
ATOM     20  C   LIG A   1      -8.678   3.664 133.656  0.00  0.00    +0.005 C 
ENDROOT
BRANCH  15  21
ATOM     21  C   LIG A   1      -7.037   0.467 128.977  0.00  0.00    +0.008 C 
ATOM     22  C   LIG A   1      -7.940  -0.547 129.668  0.00  0.00    +0.004 C 
ENDBRANCH  15  21
BRANCH   9  23
ATOM     23  O   LIG A   1      -8.035   3.498 131.527  0.00  0.00    -0.454 OA
BRANCH  23  24
ATOM     24  C   LIG A   1      -9.264   3.280 130.854  0.00  0.00    +0.304 C 
ATOM     25  C   LIG A   1     -10.131   2.279 131.559  0.00  0.00    +0.136 C 
ATOM     26  O   LIG A   1      -9.649   3.734 129.783  0.00  0.00    -0.251 OA
ENDBRANCH  23  24
ENDBRANCH   9  23
BRANCH  10  27
ATOM     27  O   LIG A   1      -6.469   1.469 134.778  0.00  0.00    -0.458 OA
BRANCH  27  28
ATOM     28  C   LIG A   1      -5.628   0.430 135.073  0.00  0.00    +0.304 C 
ATOM     29  C   LIG A   1      -4.240   0.669 134.536  0.00  0.00    +0.136 C 
ATOM     30  O   LIG A   1      -5.950  -0.597 135.655  0.00  0.00    -0.251 OA
ENDBRANCH  27  28
ENDBRANCH  10  27
BRANCH   8  31
ATOM     31  O   LIG A   1      -8.555   5.161 132.099  0.00  0.00    -0.457 OA
BRANCH  31  32
ATOM     32  C   LIG A   1      -9.556   6.164 131.841  0.00  0.00    +0.304 C 
ATOM     33  C   LIG A   1      -9.469   6.988 130.528  0.00  0.00    +0.136 C 
ATOM     34  O   LIG A   1     -10.543   6.365 132.554  0.00  0.00    -0.251 OA
ENDBRANCH  31  32
ENDBRANCH   8  31
TORSDOF 7
ENDMDL
MODEL 3
REMARK VINA RESULT:      -8.1      3.232      6.370
REMARK  Name = NuBBE_1546
REMARK  13 active torsions:
REMARK  status: ('A' for Active; 'I' for Inactive)
REMARK    1  A    between atoms: C_1  and  C_2
REMARK    2  A    between atoms: C_11  and  O_26
REMARK    3  A    between atoms: C_13  and  O_15
REMARK    4  A    between atoms: O_15  and  C_16
REMARK    5  A    between atoms: C_16  and  C_17
REMARK    6  A    between atoms: C_19  and  O_21
REMARK    7  A    between atoms: O_21  and  C_22
REMARK    8  A    between atoms: C_22  and  C_23
REMARK    9  A    between atoms: O_26  and  C_27
REMARK   10  A    between atoms: C_27  and  C_28
REMARK   11  A    between atoms: C_32  and  C_33
REMARK   12  A    between atoms: C_34  and  C_36
REMARK   13  A    between atoms: C_36  and  C_37
REMARK                            x       y       z     vdW  Elec       q    Type
REMARK                         _______ _______ _______ _____ _____    ______ ____
ROOT
ATOM      1  C   LIG A   1      -2.239   6.660 128.295  0.00  0.00    +0.012 C 
ATOM      2  C   LIG A   1      -3.100   5.425 128.516  0.00  0.00    -0.019 C 
ATOM      3  C   LIG A   1      -4.622   5.178 127.490  0.00  0.00    -0.001 C 
ATOM      4  C   LIG A   1      -4.269   3.386 126.267  0.00  0.00    -0.003 C 
ATOM      5  C   LIG A   1      -2.700   3.050 125.892  0.00  0.00    +0.004 C 
ATOM      6  C   LIG A   1      -1.860   3.275 127.174  0.00  0.00    +0.008 C 
ATOM      7  C   LIG A   1      -2.780   4.310 127.659  0.00  0.00    +0.040 C 
ATOM      8  C   LIG A   1      -4.294   3.540 128.081  0.00  0.00    +0.224 C 
ATOM      9  C   LIG A   1      -4.420   2.657 129.060  0.00  0.00    +0.257 C 
ATOM     10  C   LIG A   1      -3.635   3.507 130.441  0.00  0.00    +0.221 C 
ATOM     11  C   LIG A   1      -2.983   4.929 130.038  0.00  0.00    +0.055 C 
ATOM     12  C   LIG A   1      -4.697   1.552 127.133  0.00  0.00    +0.006 C 
ATOM     13  C   LIG A   1      -5.600   1.071 128.933  0.00  0.00    -0.019 C 
ATOM     14  C   LIG A   1      -4.629   0.282 129.916  0.00  0.00    +0.012 C 
ATOM     15  C   LIG A   1      -6.620  -0.078 128.455  0.00  0.00    +0.061 C 
ATOM     16  C   LIG A   1      -6.049  -0.593 127.080  0.00  0.00    +0.137 C 
ATOM     17  C   LIG A   1      -5.098   0.337 126.260  0.00  0.00    +0.079 C 
ATOM     18  O   LIG A   1      -6.420  -1.662 126.590  0.00  0.00    -0.297 OA
ATOM     19  C   LIG A   1      -6.284   2.800 129.903  0.00  0.00    +0.008 C 
ATOM     20  C   LIG A   1      -5.987   4.645 129.026  0.00  0.00    +0.005 C 
ENDROOT
BRANCH  15  21
ATOM     21  C   LIG A   1      -7.007  -1.145 129.521  0.00  0.00    +0.008 C 
ATOM     22  C   LIG A   1      -8.098  -0.714 130.494  0.00  0.00    +0.004 C 
ENDBRANCH  15  21
BRANCH   9  23
ATOM     23  O   LIG A   1      -6.146   2.603 128.143  0.00  0.00    -0.454 OA
BRANCH  23  24
ATOM     24  C   LIG A   1      -7.529   2.502 127.849  0.00  0.00    +0.304 C 
ATOM     25  C   LIG A   1      -8.391   2.918 129.005  0.00  0.00    +0.136 C 
ATOM     26  O   LIG A   1      -8.074   2.069 126.841  0.00  0.00    -0.251 OA
ENDBRANCH  23  24
ENDBRANCH   9  23
BRANCH  10  27
ATOM     27  O   LIG A   1      -4.325   3.651 131.711  0.00  0.00    -0.458 OA
BRANCH  27  28
ATOM     28  C   LIG A   1      -3.615   3.592 132.880  0.00  0.00    +0.304 C 
ATOM     29  C   LIG A   1      -2.996   2.233 133.087  0.00  0.00    +0.136 C 
ATOM     30  O   LIG A   1      -3.521   4.499 133.696  0.00  0.00    -0.251 OA
ENDBRANCH  27  28
ENDBRANCH  10  27
BRANCH   8  31
ATOM     31  O   LIG A   1      -5.915   3.990 126.966  0.00  0.00    -0.457 OA
BRANCH  31  32
ATOM     32  C   LIG A   1      -6.570   4.556 125.815  0.00  0.00    +0.304 C 
ATOM     33  C   LIG A   1      -6.298   3.936 124.418  0.00  0.00    +0.136 C 
ATOM     34  O   LIG A   1      -7.411   5.457 125.864  0.00  0.00    -0.251 OA
ENDBRANCH  31  32
ENDBRANCH   8  31
TORSDOF 7
ENDMDL
MODEL 4
REMARK VINA RESULT:      -8.0      2.532      4.471
REMARK  Name = NuBBE_1546
REMARK  13 active torsions:
REMARK  status: ('A' for Active; 'I' for Inactive)
REMARK    1  A    between atoms: C_1  and  C_2
REMARK    2  A    between atoms: C_11  and  O_26
REMARK    3  A    between atoms: C_13  and  O_15
REMARK    4  A    between atoms: O_15  and  C_16
REMARK    5  A    between atoms: C_16  and  C_17
REMARK    6  A    between atoms: C_19  and  O_21
REMARK    7  A    between atoms: O_21  and  C_22
REMARK    8  A    between atoms: C_22  and  C_23
REMARK    9  A    between atoms: O_26  and  C_27
REMARK   10  A    between atoms: C_27  and  C_28
REMARK   11  A    between atoms: C_32  and  C_33
REMARK   12  A    between atoms: C_34  and  C_36
REMARK   13  A    between atoms: C_36  and  C_37
REMARK                            x       y       z     vdW  Elec       q    Type
REMARK                         _______ _______ _______ _____ _____    ______ ____
ROOT
ATOM      1  C   LIG A   1      -2.095   3.175 126.689  0.00  0.00    +0.012 C 
ATOM      2  C   LIG A   1      -3.464   3.346 127.332  0.00  0.00    -0.019 C 
ATOM      3  C   LIG A   1      -3.729   2.782 129.076  0.00  0.00    -0.001 C 
ATOM      4  C   LIG A   1      -4.144   4.586 130.262  0.00  0.00    -0.003 C 
ATOM      5  C   LIG A   1      -3.480   5.992 129.716  0.00  0.00    +0.004 C 
ATOM      6  C   LIG A   1      -3.674   6.029 128.179  0.00  0.00    +0.008 C 
ATOM      7  C   LIG A   1      -3.624   4.565 128.085  0.00  0.00    +0.040 C 
ATOM      8  C   LIG A   1      -5.066   3.920 128.839  0.00  0.00    +0.224 C 
ATOM      9  C   LIG A   1      -6.290   4.129 128.379  0.00  0.00    +0.257 C 
ATOM     10  C   LIG A   1      -6.125   3.682 126.642  0.00  0.00    +0.221 C 
ATOM     11  C   LIG A   1      -4.615   3.298 126.215  0.00  0.00    +0.055 C 
ATOM     12  C   LIG A   1      -6.105   5.258 130.305  0.00  0.00    +0.006 C 
ATOM     13  C   LIG A   1      -7.849   4.421 129.566  0.00  0.00    -0.019 C 
ATOM     14  C   LIG A   1      -8.529   5.315 128.437  0.00  0.00    +0.012 C 
ATOM     15  C   LIG A   1      -8.835   4.637 130.820  0.00  0.00    +0.061 C 
ATOM     16  C   LIG A   1      -8.173   5.783 131.674  0.00  0.00    +0.137 C 
ATOM     17  C   LIG A   1      -6.643   6.057 131.517  0.00  0.00    +0.079 C 
ATOM     18  O   LIG A   1      -8.811   6.392 132.537  0.00  0.00    -0.297 OA
ATOM     19  C   LIG A   1      -7.481   2.510 128.785  0.00  0.00    +0.008 C 
ATOM     20  C   LIG A   1      -5.565   1.746 128.825  0.00  0.00    +0.005 C 
ENDROOT
BRANCH  15  21
ATOM     21  C   LIG A   1     -10.351   4.765 130.492  0.00  0.00    +0.008 C 
ATOM     22  C   LIG A   1     -11.111   3.445 130.440  0.00  0.00    +0.004 C 
ENDBRANCH  15  21
BRANCH   9  23
ATOM     23  O   LIG A   1      -6.571   3.265 130.110  0.00  0.00    -0.454 OA
BRANCH  23  24
ATOM     24  C   LIG A   1      -7.075   2.466 131.168  0.00  0.00    +0.304 C 
ATOM     25  C   LIG A   1      -7.793   1.246 130.670  0.00  0.00    +0.136 C 
ATOM     26  O   LIG A   1      -7.057   2.682 132.374  0.00  0.00    -0.251 OA
ENDBRANCH  23  24
ENDBRANCH   9  23
BRANCH  10  27
ATOM     27  O   LIG A   1      -7.040   2.734 126.031  0.00  0.00    -0.458 OA
BRANCH  27  28
ATOM     28  C   LIG A   1      -7.873   3.146 125.026  0.00  0.00    +0.304 C 
ATOM     29  C   LIG A   1      -7.390   2.676 123.677  0.00  0.00    +0.136 C 
ATOM     30  O   LIG A   1      -8.862   3.851 125.171  0.00  0.00    -0.251 OA
ENDBRANCH  27  28
ENDBRANCH  10  27
BRANCH   8  31
ATOM     31  O   LIG A   1      -4.836   2.851 130.535  0.00  0.00    -0.457 OA
BRANCH  31  32
ATOM     32  C   LIG A   1      -4.051   2.244 131.579  0.00  0.00    +0.304 C 
ATOM     33  C   LIG A   1      -3.497   3.142 132.718  0.00  0.00    +0.136 C 
ATOM     34  O   LIG A   1      -3.852   1.031 131.687  0.00  0.00    -0.251 OA
ENDBRANCH  31  32
ENDBRANCH   8  31
TORSDOF 7
ENDMDL
MODEL 5
REMARK VINA RESULT:      -7.9      2.560      5.724
REMARK  Name = NuBBE_1546
REMARK  13 active torsions:
REMARK  status: ('A' for Active; 'I' for Inactive)
REMARK    1  A    between atoms: C_1  and  C_2
REMARK    2  A    between atoms: C_11  and  O_26
REMARK    3  A    between atoms: C_13  and  O_15
REMARK    4  A    between atoms: O_15  and  C_16
REMARK    5  A    between atoms: C_16  and  C_17
REMARK    6  A    between atoms: C_19  and  O_21
REMARK    7  A    between atoms: O_21  and  C_22
REMARK    8  A    between atoms: C_22  and  C_23
REMARK    9  A    between atoms: O_26  and  C_27
REMARK   10  A    between atoms: C_27  and  C_28
REMARK   11  A    between atoms: C_32  and  C_33
REMARK   12  A    between atoms: C_34  and  C_36
REMARK   13  A    between atoms: C_36  and  C_37
REMARK                            x       y       z     vdW  Elec       q    Type
REMARK                         _______ _______ _______ _____ _____    ______ ____
ROOT
ATOM      1  C   LIG A   1      -9.026   6.069 132.017  0.00  0.00    +0.012 C 
ATOM      2  C   LIG A   1      -8.519   4.930 131.144  0.00  0.00    -0.019 C 
ATOM      3  C   LIG A   1      -7.194   3.807 131.788  0.00  0.00    -0.001 C 
ATOM      4  C   LIG A   1      -8.102   1.815 131.984  0.00  0.00    -0.003 C 
ATOM      5  C   LIG A   1      -9.725   1.772 132.264  0.00  0.00    +0.004 C 
ATOM      6  C   LIG A   1     -10.383   2.821 131.333  0.00  0.00    +0.008 C 
ATOM      7  C   LIG A   1      -9.186   3.669 131.357  0.00  0.00    +0.040 C 
ATOM      8  C   LIG A   1      -7.912   2.839 130.490  0.00  0.00    +0.224 C 
ATOM      9  C   LIG A   1      -7.964   2.565 129.195  0.00  0.00    +0.257 C 
ATOM     10  C   LIG A   1      -8.393   4.165 128.486  0.00  0.00    +0.221 C 
ATOM     11  C   LIG A   1      -8.661   5.311 129.592  0.00  0.00    +0.055 C 
ATOM     12  C   LIG A   1      -8.129   0.619 130.290  0.00  0.00    +0.006 C 
ATOM     13  C   LIG A   1      -7.269   0.878 128.424  0.00  0.00    -0.019 C 
ATOM     14  C   LIG A   1      -8.349   0.977 127.258  0.00  0.00    +0.012 C 
ATOM     15  C   LIG A   1      -6.634  -0.581 128.186  0.00  0.00    +0.061 C 
ATOM     16  C   LIG A   1      -7.415  -1.538 129.163  0.00  0.00    +0.137 C 
ATOM     17  C   LIG A   1      -8.132  -0.925 130.409  0.00  0.00    +0.079 C 
ATOM     18  O   LIG A   1      -7.383  -2.763 129.026  0.00  0.00    -0.297 OA
ATOM     19  C   LIG A   1      -6.078   2.604 128.391  0.00  0.00    +0.008 C 
ATOM     20  C   LIG A   1      -5.924   3.767 130.089  0.00  0.00    +0.005 C 
ENDROOT
BRANCH  15  21
ATOM     21  C   LIG A   1      -6.478  -1.033 126.704  0.00  0.00    +0.008 C 
ATOM     22  C   LIG A   1      -5.283  -0.436 125.972  0.00  0.00    +0.004 C 
ENDBRANCH  15  21
BRANCH   9  23
ATOM     23  O   LIG A   1      -6.384   1.601 129.824  0.00  0.00    -0.454 OA
BRANCH  23  24
ATOM     24  C   LIG A   1      -5.091   1.029 129.933  0.00  0.00    +0.304 C 
ATOM     25  C   LIG A   1      -4.058   1.801 129.166  0.00  0.00    +0.136 C 
ATOM     26  O   LIG A   1      -4.750  -0.007 130.492  0.00  0.00    -0.251 OA
ENDBRANCH  23  24
ENDBRANCH   9  23
BRANCH  10  27
ATOM     27  O   LIG A   1      -7.605   4.731 127.405  0.00  0.00    -0.458 OA
BRANCH  27  28
ATOM     28  C   LIG A   1      -8.175   4.917 126.174  0.00  0.00    +0.304 C 
ATOM     29  C   LIG A   1      -7.565   4.008 125.136  0.00  0.00    +0.136 C 
ATOM     30  O   LIG A   1      -9.037   5.745 125.912  0.00  0.00    -0.251 OA
ENDBRANCH  27  28
ENDBRANCH  10  27
BRANCH   8  31
ATOM     31  O   LIG A   1      -6.311   2.220 131.550  0.00  0.00    -0.457 OA
BRANCH  31  32
ATOM     32  C   LIG A   1      -5.557   2.051 132.765  0.00  0.00    +0.304 C 
ATOM     33  C   LIG A   1      -5.925   0.881 133.717  0.00  0.00    +0.136 C 
ATOM     34  O   LIG A   1      -4.569   2.722 133.073  0.00  0.00    -0.251 OA
ENDBRANCH  31  32
ENDBRANCH   8  31
TORSDOF 7
ENDMDL
MODEL 6
REMARK VINA RESULT:      -7.9      3.569      7.137
REMARK  Name = NuBBE_1546
REMARK  13 active torsions:
REMARK  status: ('A' for Active; 'I' for Inactive)
REMARK    1  A    between atoms: C_1  and  C_2
REMARK    2  A    between atoms: C_11  and  O_26
REMARK    3  A    between atoms: C_13  and  O_15
REMARK    4  A    between atoms: O_15  and  C_16
REMARK    5  A    between atoms: C_16  and  C_17
REMARK    6  A    between atoms: C_19  and  O_21
REMARK    7  A    between atoms: O_21  and  C_22
REMARK    8  A    between atoms: C_22  and  C_23
REMARK    9  A    between atoms: O_26  and  C_27
REMARK   10  A    between atoms: C_27  and  C_28
REMARK   11  A    between atoms: C_32  and  C_33
REMARK   12  A    between atoms: C_34  and  C_36
REMARK   13  A    between atoms: C_36  and  C_37
REMARK                            x       y       z     vdW  Elec       q    Type
REMARK                         _______ _______ _______ _____ _____    ______ ____
ROOT
ATOM      1  C   LIG A   1      -4.716   5.787 129.185  0.00  0.00    +0.012 C 
ATOM      2  C   LIG A   1      -5.330   4.418 128.927  0.00  0.00    -0.019 C 
ATOM      3  C   LIG A   1      -6.261   4.118 127.355  0.00  0.00    -0.001 C 
ATOM      4  C   LIG A   1      -5.115   2.619 126.225  0.00  0.00    -0.003 C 
ATOM      5  C   LIG A   1      -3.490   2.584 126.492  0.00  0.00    +0.004 C 
ATOM      6  C   LIG A   1      -3.268   2.720 128.019  0.00  0.00    +0.008 C 
ATOM      7  C   LIG A   1      -4.491   3.516 128.178  0.00  0.00    +0.040 C 
ATOM      8  C   LIG A   1      -5.864   2.473 127.879  0.00  0.00    +0.224 C 
ATOM      9  C   LIG A   1      -6.176   1.434 128.640  0.00  0.00    +0.257 C 
ATOM     10  C   LIG A   1      -6.166   2.157 130.290  0.00  0.00    +0.221 C 
ATOM     11  C   LIG A   1      -5.709   3.706 130.315  0.00  0.00    +0.055 C 
ATOM     12  C   LIG A   1      -5.466   0.626 126.676  0.00  0.00    +0.006 C 
ATOM     13  C   LIG A   1      -6.874  -0.267 127.905  0.00  0.00    -0.019 C 
ATOM     14  C   LIG A   1      -6.217  -1.052 129.123  0.00  0.00    +0.012 C 
ATOM     15  C   LIG A   1      -7.381  -1.462 126.953  0.00  0.00    +0.061 C 
ATOM     16  C   LIG A   1      -6.237  -1.658 125.889  0.00  0.00    +0.137 C 
ATOM     17  C   LIG A   1      -5.251  -0.478 125.612  0.00  0.00    +0.079 C 
ATOM     18  O   LIG A   1      -6.169  -2.677 125.198  0.00  0.00    -0.297 OA
ATOM     19  C   LIG A   1      -8.208   1.163 128.663  0.00  0.00    +0.008 C 
ATOM     20  C   LIG A   1      -7.973   3.148 128.150  0.00  0.00    +0.005 C 
ENDROOT
BRANCH  15  21
ATOM     21  C   LIG A   1      -7.925  -2.732 127.671  0.00  0.00    +0.008 C 
ATOM     22  C   LIG A   1      -9.011  -3.484 126.912  0.00  0.00    +0.004 C 
ENDBRANCH  15  21
BRANCH   9  23
ATOM     23  O   LIG A   1      -7.370   1.274 127.101  0.00  0.00    -0.454 OA
BRANCH  23  24
ATOM     24  C   LIG A   1      -8.501   1.072 126.270  0.00  0.00    +0.304 C 
ATOM     25  C   LIG A   1      -8.119   0.722 124.861  0.00  0.00    +0.136 C 
ATOM     26  O   LIG A   1      -9.689   1.213 126.535  0.00  0.00    -0.251 OA
ENDBRANCH  23  24
ENDBRANCH   9  23
BRANCH  10  27
ATOM     27  O   LIG A   1      -7.304   1.990 131.178  0.00  0.00    -0.458 OA
BRANCH  27  28
ATOM     28  C   LIG A   1      -7.120   1.450 132.423  0.00  0.00    +0.304 C 
ATOM     29  C   LIG A   1      -5.879   0.595 132.480  0.00  0.00    +0.136 C 
ATOM     30  O   LIG A   1      -7.879   1.588 133.372  0.00  0.00    -0.251 OA
ENDBRANCH  27  28
ENDBRANCH  10  27
BRANCH   8  31
ATOM     31  O   LIG A   1      -6.988   2.852 126.247  0.00  0.00    -0.457 OA
BRANCH  31  32
ATOM     32  C   LIG A   1      -7.440   3.678 125.157  0.00  0.00    +0.304 C 
ATOM     33  C   LIG A   1      -6.526   3.840 123.912  0.00  0.00    +0.136 C 
ATOM     34  O   LIG A   1      -8.552   4.207 125.097  0.00  0.00    -0.251 OA
ENDBRANCH  31  32
ENDBRANCH   8  31
TORSDOF 7
ENDMDL
MODEL 7
REMARK VINA RESULT:      -7.8      2.296      4.688
REMARK  Name = NuBBE_1546
REMARK  13 active torsions:
REMARK  status: ('A' for Active; 'I' for Inactive)
REMARK    1  A    between atoms: C_1  and  C_2
REMARK    2  A    between atoms: C_11  and  O_26
REMARK    3  A    between atoms: C_13  and  O_15
REMARK    4  A    between atoms: O_15  and  C_16
REMARK    5  A    between atoms: C_16  and  C_17
REMARK    6  A    between atoms: C_19  and  O_21
REMARK    7  A    between atoms: O_21  and  C_22
REMARK    8  A    between atoms: C_22  and  C_23
REMARK    9  A    between atoms: O_26  and  C_27
REMARK   10  A    between atoms: C_27  and  C_28
REMARK   11  A    between atoms: C_32  and  C_33
REMARK   12  A    between atoms: C_34  and  C_36
REMARK   13  A    between atoms: C_36  and  C_37
REMARK                            x       y       z     vdW  Elec       q    Type
REMARK                         _______ _______ _______ _____ _____    ______ ____
ROOT
ATOM      1  C   LIG A   1      -3.443   7.685 131.207  0.00  0.00    +0.012 C 
ATOM      2  C   LIG A   1      -4.081   6.314 131.042  0.00  0.00    -0.019 C 
ATOM      3  C   LIG A   1      -4.294   5.223 132.523  0.00  0.00    -0.001 C 
ATOM      4  C   LIG A   1      -6.459   4.999 132.830  0.00  0.00    -0.003 C 
ATOM      5  C   LIG A   1      -7.407   6.244 132.314  0.00  0.00    +0.004 C 
ATOM      6  C   LIG A   1      -6.875   6.686 130.928  0.00  0.00    +0.008 C 
ATOM      7  C   LIG A   1      -5.505   6.284 131.267  0.00  0.00    +0.040 C 
ATOM      8  C   LIG A   1      -5.460   4.538 131.378  0.00  0.00    +0.224 C 
ATOM      9  C   LIG A   1      -5.679   3.731 130.351  0.00  0.00    +0.257 C 
ATOM     10  C   LIG A   1      -4.570   4.401 129.100  0.00  0.00    +0.221 C 
ATOM     11  C   LIG A   1      -3.799   5.741 129.570  0.00  0.00    +0.055 C 
ATOM     12  C   LIG A   1      -7.418   3.514 131.745  0.00  0.00    +0.006 C 
ATOM     13  C   LIG A   1      -6.670   2.025 130.516  0.00  0.00    -0.019 C 
ATOM     14  C   LIG A   1      -7.156   2.172 129.007  0.00  0.00    +0.012 C 
ATOM     15  C   LIG A   1      -7.522   0.760 131.033  0.00  0.00    +0.061 C 
ATOM     16  C   LIG A   1      -8.779   1.375 131.756  0.00  0.00    +0.137 C 
ATOM     17  C   LIG A   1      -8.705   2.843 132.284  0.00  0.00    +0.079 C 
ATOM     18  O   LIG A   1      -9.774   0.691 132.007  0.00  0.00    -0.297 OA
ATOM     19  C   LIG A   1      -4.574   2.016 130.555  0.00  0.00    +0.008 C 
ATOM     20  C   LIG A   1      -3.571   3.399 131.712  0.00  0.00    +0.005 C 
ENDROOT
BRANCH  15  21
ATOM     21  C   LIG A   1      -7.768  -0.376 129.998  0.00  0.00    +0.008 C 
ATOM     22  C   LIG A   1      -7.467  -1.782 130.503  0.00  0.00    +0.004 C 
ENDBRANCH  15  21
BRANCH   9  23
ATOM     23  O   LIG A   1      -5.618   2.533 131.895  0.00  0.00    -0.454 OA
BRANCH  23  24
ATOM     24  C   LIG A   1      -5.408   1.420 132.747  0.00  0.00    +0.304 C 
ATOM     25  C   LIG A   1      -4.223   0.598 132.332  0.00  0.00    +0.136 C 
ATOM     26  O   LIG A   1      -6.086   1.031 133.690  0.00  0.00    -0.251 OA
ENDBRANCH  23  24
ENDBRANCH   9  23
BRANCH  10  27
ATOM     27  O   LIG A   1      -3.630   3.538 128.405  0.00  0.00    -0.458 OA
BRANCH  27  28
ATOM     28  C   LIG A   1      -3.363   3.753 127.080  0.00  0.00    +0.304 C 
ATOM     29  C   LIG A   1      -1.994   3.248 126.700  0.00  0.00    +0.136 C 
ATOM     30  O   LIG A   1      -4.104   4.326 126.293  0.00  0.00    -0.251 OA
ENDBRANCH  27  28
ENDBRANCH  10  27
BRANCH   8  31
ATOM     31  O   LIG A   1      -5.113   3.726 133.193  0.00  0.00    -0.457 OA
BRANCH  31  32
ATOM     32  C   LIG A   1      -4.826   3.797 134.603  0.00  0.00    +0.304 C 
ATOM     33  C   LIG A   1      -5.995   4.050 135.593  0.00  0.00    +0.136 C 
ATOM     34  O   LIG A   1      -3.718   3.583 135.101  0.00  0.00    -0.251 OA
ENDBRANCH  31  32
ENDBRANCH   8  31
TORSDOF 7
ENDMDL
MODEL 8
REMARK VINA RESULT:      -7.8      2.313      4.818
REMARK  Name = NuBBE_1546
REMARK  13 active torsions:
REMARK  status: ('A' for Active; 'I' for Inactive)
REMARK    1  A    between atoms: C_1  and  C_2
REMARK    2  A    between atoms: C_11  and  O_26
REMARK    3  A    between atoms: C_13  and  O_15
REMARK    4  A    between atoms: O_15  and  C_16
REMARK    5  A    between atoms: C_16  and  C_17
REMARK    6  A    between atoms: C_19  and  O_21
REMARK    7  A    between atoms: O_21  and  C_22
REMARK    8  A    between atoms: C_22  and  C_23
REMARK    9  A    between atoms: O_26  and  C_27
REMARK   10  A    between atoms: C_27  and  C_28
REMARK   11  A    between atoms: C_32  and  C_33
REMARK   12  A    between atoms: C_34  and  C_36
REMARK   13  A    between atoms: C_36  and  C_37
REMARK                            x       y       z     vdW  Elec       q    Type
REMARK                         _______ _______ _______ _____ _____    ______ ____
ROOT
ATOM      1  C   LIG A   1      -7.794   5.555 134.750  0.00  0.00    +0.012 C 
ATOM      2  C   LIG A   1      -6.866   5.235 133.586  0.00  0.00    -0.019 C 
ATOM      3  C   LIG A   1      -7.038   3.619 132.699  0.00  0.00    -0.001 C 
ATOM      4  C   LIG A   1      -7.677   4.095 130.650  0.00  0.00    -0.003 C 
ATOM      5  C   LIG A   1      -8.542   5.483 130.454  0.00  0.00    +0.004 C 
ATOM      6  C   LIG A   1      -7.861   6.577 131.313  0.00  0.00    +0.008 C 
ATOM      7  C   LIG A   1      -7.387   5.590 132.289  0.00  0.00    +0.040 C 
ATOM      8  C   LIG A   1      -6.161   4.607 131.519  0.00  0.00    +0.224 C 
ATOM      9  C   LIG A   1      -4.997   5.080 131.100  0.00  0.00    +0.257 C 
ATOM     10  C   LIG A   1      -4.403   5.964 132.553  0.00  0.00    +0.221 C 
ATOM     11  C   LIG A   1      -5.458   5.980 133.776  0.00  0.00    +0.055 C 
ATOM     12  C   LIG A   1      -6.190   4.554 129.280  0.00  0.00    +0.006 C 
ATOM     13  C   LIG A   1      -4.126   4.471 129.428  0.00  0.00    -0.019 C 
ATOM     14  C   LIG A   1      -3.442   5.900 129.276  0.00  0.00    +0.012 C 
ATOM     15  C   LIG A   1      -3.758   3.758 128.033  0.00  0.00    +0.061 C 
ATOM     16  C   LIG A   1      -5.012   3.987 127.107  0.00  0.00    +0.137 C 
ATOM     17  C   LIG A   1      -6.395   4.289 127.768  0.00  0.00    +0.079 C 
ATOM     18  O   LIG A   1      -4.947   3.828 125.886  0.00  0.00    -0.297 OA
ATOM     19  C   LIG A   1      -3.549   3.637 131.264  0.00  0.00    +0.008 C 
ATOM     20  C   LIG A   1      -4.995   3.054 132.616  0.00  0.00    +0.005 C 
ENDROOT
BRANCH  15  21
ATOM     21  C   LIG A   1      -2.355   4.082 127.442  0.00  0.00    +0.008 C 
ATOM     22  C   LIG A   1      -1.662   2.913 126.754  0.00  0.00    +0.004 C 
ENDBRANCH  15  21
BRANCH   9  23
ATOM     23  O   LIG A   1      -5.052   3.257 130.396  0.00  0.00    -0.454 OA
BRANCH  23  24
ATOM     24  C   LIG A   1      -4.718   1.931 130.023  0.00  0.00    +0.304 C 
ATOM     25  C   LIG A   1      -5.582   1.415 128.910  0.00  0.00    +0.136 C 
ATOM     26  O   LIG A   1      -3.898   1.171 130.526  0.00  0.00    -0.251 OA
ENDBRANCH  23  24
ENDBRANCH   9  23
BRANCH  10  27
ATOM     27  O   LIG A   1      -3.074   5.710 133.082  0.00  0.00    -0.458 OA
BRANCH  27  28
ATOM     28  C   LIG A   1      -2.095   6.656 132.943  0.00  0.00    +0.304 C 
ATOM     29  C   LIG A   1      -0.938   6.143 132.123  0.00  0.00    +0.136 C 
ATOM     30  O   LIG A   1      -2.109   7.768 133.453  0.00  0.00    -0.251 OA
ENDBRANCH  27  28
ENDBRANCH  10  27
BRANCH   8  31
ATOM     31  O   LIG A   1      -6.585   2.659 131.205  0.00  0.00    -0.457 OA
BRANCH  31  32
ATOM     32  C   LIG A   1      -7.371   1.466 131.388  0.00  0.00    +0.304 C 
ATOM     33  C   LIG A   1      -8.712   1.328 130.618  0.00  0.00    +0.136 C 
ATOM     34  O   LIG A   1      -7.015   0.491 132.054  0.00  0.00    -0.251 OA
ENDBRANCH  31  32
ENDBRANCH   8  31
TORSDOF 7
ENDMDL
MODEL 9
REMARK VINA RESULT:      -7.7      2.412      4.828
REMARK  Name = NuBBE_1546
REMARK  13 active torsions:
REMARK  status: ('A' for Active; 'I' for Inactive)
REMARK    1  A    between atoms: C_1  and  C_2
REMARK    2  A    between atoms: C_11  and  O_26
REMARK    3  A    between atoms: C_13  and  O_15
REMARK    4  A    between atoms: O_15  and  C_16
REMARK    5  A    between atoms: C_16  and  C_17
REMARK    6  A    between atoms: C_19  and  O_21
REMARK    7  A    between atoms: O_21  and  C_22
REMARK    8  A    between atoms: C_22  and  C_23
REMARK    9  A    between atoms: O_26  and  C_27
REMARK   10  A    between atoms: C_27  and  C_28
REMARK   11  A    between atoms: C_32  and  C_33
REMARK   12  A    between atoms: C_34  and  C_36
REMARK   13  A    between atoms: C_36  and  C_37
REMARK                            x       y       z     vdW  Elec       q    Type
REMARK                         _______ _______ _______ _____ _____    ______ ____
ROOT
ATOM      1  C   LIG A   1      -7.536  -0.602 128.869  0.00  0.00    +0.012 C 
ATOM      2  C   LIG A   1      -6.825   0.694 129.234  0.00  0.00    -0.019 C 
ATOM      3  C   LIG A   1      -7.122   1.461 130.893  0.00  0.00    -0.001 C 
ATOM      4  C   LIG A   1      -5.211   1.371 131.976  0.00  0.00    -0.003 C 
ATOM      5  C   LIG A   1      -4.193   0.141 131.569  0.00  0.00    +0.004 C 
ATOM      6  C   LIG A   1      -4.200   0.027 130.024  0.00  0.00    +0.008 C 
ATOM      7  C   LIG A   1      -5.581   0.515 129.942  0.00  0.00    +0.040 C 
ATOM      8  C   LIG A   1      -5.591   2.204 130.402  0.00  0.00    +0.224 C 
ATOM      9  C   LIG A   1      -4.979   3.155 129.713  0.00  0.00    +0.257 C 
ATOM     10  C   LIG A   1      -5.582   2.861 128.041  0.00  0.00    +0.221 C 
ATOM     11  C   LIG A   1      -6.526   1.557 127.915  0.00  0.00    +0.055 C 
ATOM     12  C   LIG A   1      -3.861   2.908 131.637  0.00  0.00    +0.006 C 
ATOM     13  C   LIG A   1      -4.046   4.676 130.574  0.00  0.00    -0.019 C 
ATOM     14  C   LIG A   1      -3.050   4.754 129.335  0.00  0.00    +0.012 C 
ATOM     15  C   LIG A   1      -3.390   5.715 131.613  0.00  0.00    +0.061 C 
ATOM     16  C   LIG A   1      -2.510   4.836 132.579  0.00  0.00    +0.137 C 
ATOM     17  C   LIG A   1      -2.833   3.314 132.722  0.00  0.00    +0.079 C 
ATOM     18  O   LIG A   1      -1.648   5.342 133.301  0.00  0.00    -0.297 OA
ATOM     19  C   LIG A   1      -6.009   4.920 129.880  0.00  0.00    +0.008 C 
ATOM     20  C   LIG A   1      -7.422   3.473 130.291  0.00  0.00    +0.005 C 
ENDROOT
BRANCH  15  21
ATOM     21  C   LIG A   1      -2.736   6.987 130.997  0.00  0.00    +0.008 C 
ATOM     22  C   LIG A   1      -3.711   8.098 130.631  0.00  0.00    +0.004 C 
ENDBRANCH  15  21
BRANCH   9  23
ATOM     23  O   LIG A   1      -5.549   4.047 131.356  0.00  0.00    -0.454 OA
BRANCH  23  24
ATOM     24  C   LIG A   1      -5.998   5.004 132.301  0.00  0.00    +0.304 C 
ATOM     25  C   LIG A   1      -6.841   6.075 131.674  0.00  0.00    +0.136 C 
ATOM     26  O   LIG A   1      -5.732   5.095 133.494  0.00  0.00    -0.251 OA
ENDBRANCH  23  24
ENDBRANCH   9  23
BRANCH  10  27
ATOM     27  O   LIG A   1      -6.166   3.940 127.264  0.00  0.00    -0.458 OA
BRANCH  27  28
ATOM     28  C   LIG A   1      -5.424   4.557 126.293  0.00  0.00    +0.304 C 
ATOM     29  C   LIG A   1      -4.237   3.722 125.887  0.00  0.00    +0.136 C 
ATOM     30  O   LIG A   1      -5.647   5.668 125.832  0.00  0.00    -0.251 OA
ENDBRANCH  27  28
ENDBRANCH  10  27
BRANCH   8  31
ATOM     31  O   LIG A   1      -6.542   2.702 132.110  0.00  0.00    -0.457 OA
BRANCH  31  32
ATOM     32  C   LIG A   1      -7.266   2.398 133.318  0.00  0.00    +0.304 C 
ATOM     33  C   LIG A   1      -8.694   2.978 133.500  0.00  0.00    +0.136 C 
ATOM     34  O   LIG A   1      -6.866   1.630 134.196  0.00  0.00    -0.251 OA
ENDBRANCH  31  32
ENDBRANCH   8  31
TORSDOF 7
ENDMDL
