MODEL 1
REMARK VINA RESULT:      -7.7      0.000      0.000
REMARK  Name = NuBBE_2377
REMARK  9 active torsions:
REMARK  status: ('A' for Active; 'I' for Inactive)
REMARK    1  A    between atoms: C_1  and  C_24
REMARK    2  A    between atoms: C_1  and  C_25
REMARK    3  A    between atoms: C_12  and  C_13
REMARK    4  A    between atoms: C_13  and  C_14
REMARK    5  A    between atoms: C_13  and  C_15
REMARK    6  A    between atoms: C_16  and  O_20
REMARK    7  A    between atoms: C_17  and  O_18
REMARK    8  A    between atoms: O_18  and  C_19
REMARK    9  A    between atoms: O_20  and  C_21
REMARK                            x       y       z     vdW  Elec       q    Type
REMARK                         _______ _______ _______ _____ _____    ______ ____
ROOT
ATOM      1  C   LIG A   1      -8.726  -2.843 124.473  0.00  0.00    -0.028 C 
ATOM      2  C   LIG A   1      -9.247  -1.344 124.477  0.00  0.00    +0.021 C 
ATOM      3  C   LIG A   1      -8.575  -0.491 125.555  0.00  0.00    -0.065 C 
ATOM      4  C   LIG A   1      -7.769  -1.011 126.513  0.00  0.00    -0.027 C 
ATOM      5  C   LIG A   1      -7.488  -2.463 126.676  0.00  0.00    +0.028 C 
ATOM      6  C   LIG A   1      -8.500  -3.323 125.928  0.00  0.00    +0.011 C 
ATOM      7  C   LIG A   1      -8.924   0.974 125.631  0.00  0.00    +0.070 C 
ATOM      8  C   LIG A   1      -8.202   1.790 124.584  0.00  0.00    +0.005 A 
ATOM      9  C   LIG A   1      -8.629   1.690 123.253  0.00  0.00    -0.040 A 
ATOM     10  C   LIG A   1      -7.987   2.456 122.277  0.00  0.00    +0.011 A 
ATOM     11  C   LIG A   1      -6.922   3.334 122.587  0.00  0.00    +0.001 A 
ATOM     12  C   LIG A   1      -6.478   3.403 123.929  0.00  0.00    +0.165 A 
ATOM     13  C   LIG A   1      -7.111   2.624 124.925  0.00  0.00    +0.166 A 
ATOM     14  C   LIG A   1      -9.706   0.702 122.868  0.00  0.00    +0.036 C 
ATOM     15  C   LIG A   1      -9.210  -0.740 123.036  0.00  0.00    +0.013 C 
ATOM     16  C   LIG A   1      -9.779  -3.775 123.837  0.00  0.00    +0.011 C 
ATOM     17  C   LIG A   1      -7.407  -3.007 123.682  0.00  0.00    +0.011 C 
ENDROOT
BRANCH  11  18
ATOM     18  C   LIG A   1      -6.337   4.091 121.397  0.00  0.00    +0.017 C 
ATOM     19  C   LIG A   1      -7.283   4.042 120.190  0.00  0.00    +0.012 C 
ATOM     20  C   LIG A   1      -4.912   3.728 120.984  0.00  0.00    +0.012 C 
ENDBRANCH  11  18
BRANCH  13  21
ATOM     21  O   LIG A   1      -6.713   2.487 126.230  0.00  0.00    -0.491 OA
ATOM     22  C   LIG A   1      -5.472   1.875 126.527  0.00  0.00    +0.277 C 
ENDBRANCH  13  21
BRANCH  12  23
ATOM     23  O   LIG A   1      -5.530   4.331 124.273  0.00  0.00    -0.491 OA
ATOM     24  C   LIG A   1      -6.031   5.403 125.070  0.00  0.00    +0.277 C 
ENDBRANCH  12  23
TORSDOF 3
ENDMDL
MODEL 2
REMARK VINA RESULT:      -7.4      2.134      4.325
REMARK  Name = NuBBE_2377
REMARK  9 active torsions:
REMARK  status: ('A' for Active; 'I' for Inactive)
REMARK    1  A    between atoms: C_1  and  C_24
REMARK    2  A    between atoms: C_1  and  C_25
REMARK    3  A    between atoms: C_12  and  C_13
REMARK    4  A    between atoms: C_13  and  C_14
REMARK    5  A    between atoms: C_13  and  C_15
REMARK    6  A    between atoms: C_16  and  O_20
REMARK    7  A    between atoms: C_17  and  O_18
REMARK    8  A    between atoms: O_18  and  C_19
REMARK    9  A    between atoms: O_20  and  C_21
REMARK                            x       y       z     vdW  Elec       q    Type
REMARK                         _______ _______ _______ _____ _____    ______ ____
ROOT
ATOM      1  C   LIG A   1      -6.999  -2.830 128.836  0.00  0.00    -0.028 C 
ATOM      2  C   LIG A   1      -6.499  -2.349 127.409  0.00  0.00    +0.021 C 
ATOM      3  C   LIG A   1      -7.603  -2.399 126.352  0.00  0.00    -0.065 C 
ATOM      4  C   LIG A   1      -8.813  -2.969 126.573  0.00  0.00    -0.027 C 
ATOM      5  C   LIG A   1      -9.196  -3.663 127.831  0.00  0.00    +0.028 C 
ATOM      6  C   LIG A   1      -7.978  -4.020 128.675  0.00  0.00    +0.011 C 
ATOM      7  C   LIG A   1      -7.289  -1.905 124.961  0.00  0.00    +0.070 C 
ATOM      8  C   LIG A   1      -7.316  -0.398 124.869  0.00  0.00    +0.005 A 
ATOM      9  C   LIG A   1      -6.256   0.322 125.437  0.00  0.00    -0.040 A 
ATOM     10  C   LIG A   1      -6.255   1.716 125.340  0.00  0.00    +0.011 A 
ATOM     11  C   LIG A   1      -7.287   2.426 124.682  0.00  0.00    +0.001 A 
ATOM     12  C   LIG A   1      -8.369   1.691 124.142  0.00  0.00    +0.165 A 
ATOM     13  C   LIG A   1      -8.388   0.282 124.244  0.00  0.00    +0.166 A 
ATOM     14  C   LIG A   1      -5.178  -0.394 126.219  0.00  0.00    +0.036 C 
ATOM     15  C   LIG A   1      -5.746  -0.984 127.516  0.00  0.00    +0.013 C 
ATOM     16  C   LIG A   1      -5.808  -3.324 129.684  0.00  0.00    +0.011 C 
ATOM     17  C   LIG A   1      -7.708  -1.703 129.624  0.00  0.00    +0.011 C 
ENDROOT
BRANCH  11  18
ATOM     18  C   LIG A   1      -7.125   3.945 124.673  0.00  0.00    +0.017 C 
ATOM     19  C   LIG A   1      -5.648   4.343 124.565  0.00  0.00    +0.012 C 
ATOM     20  C   LIG A   1      -7.815   4.718 125.796  0.00  0.00    +0.012 C 
ENDBRANCH  11  18
BRANCH  13  21
ATOM     21  O   LIG A   1      -9.420  -0.549 123.888  0.00  0.00    -0.491 OA
ATOM     22  C   LIG A   1      -9.619  -0.879 122.526  0.00  0.00    +0.277 C 
ENDBRANCH  13  21
BRANCH  12  23
ATOM     23  O   LIG A   1      -9.318   2.346 123.400  0.00  0.00    -0.491 OA
ATOM     24  C   LIG A   1      -8.865   2.751 122.109  0.00  0.00    +0.277 C 
ENDBRANCH  12  23
TORSDOF 3
ENDMDL
MODEL 3
REMARK VINA RESULT:      -7.4      3.173      5.959
REMARK  Name = NuBBE_2377
REMARK  9 active torsions:
REMARK  status: ('A' for Active; 'I' for Inactive)
REMARK    1  A    between atoms: C_1  and  C_24
REMARK    2  A    between atoms: C_1  and  C_25
REMARK    3  A    between atoms: C_12  and  C_13
REMARK    4  A    between atoms: C_13  and  C_14
REMARK    5  A    between atoms: C_13  and  C_15
REMARK    6  A    between atoms: C_16  and  O_20
REMARK    7  A    between atoms: C_17  and  O_18
REMARK    8  A    between atoms: O_18  and  C_19
REMARK    9  A    between atoms: O_20  and  C_21
REMARK                            x       y       z     vdW  Elec       q    Type
REMARK                         _______ _______ _______ _____ _____    ______ ____
ROOT
ATOM      1  C   LIG A   1      -5.036  -3.512 130.805  0.00  0.00    -0.028 C 
ATOM      2  C   LIG A   1      -6.438  -2.938 130.332  0.00  0.00    +0.021 C 
ATOM      3  C   LIG A   1      -6.386  -1.441 130.024  0.00  0.00    -0.065 C 
ATOM      4  C   LIG A   1      -5.312  -0.665 130.307  0.00  0.00    -0.027 C 
ATOM      5  C   LIG A   1      -4.087  -1.147 131.000  0.00  0.00    +0.028 C 
ATOM      6  C   LIG A   1      -4.324  -2.475 131.709  0.00  0.00    +0.011 C 
ATOM      7  C   LIG A   1      -7.632  -0.773 129.497  0.00  0.00    +0.070 C 
ATOM      8  C   LIG A   1      -7.843  -1.034 128.024  0.00  0.00    +0.005 A 
ATOM      9  C   LIG A   1      -8.278  -2.307 127.630  0.00  0.00    -0.040 A 
ATOM     10  C   LIG A   1      -8.500  -2.556 126.273  0.00  0.00    +0.011 A 
ATOM     11  C   LIG A   1      -8.305  -1.566 125.283  0.00  0.00    +0.001 A 
ATOM     12  C   LIG A   1      -7.833  -0.294 125.689  0.00  0.00    +0.165 A 
ATOM     13  C   LIG A   1      -7.593  -0.032 127.057  0.00  0.00    +0.166 A 
ATOM     14  C   LIG A   1      -8.418  -3.416 128.648  0.00  0.00    +0.036 C 
ATOM     15  C   LIG A   1      -7.047  -3.826 129.199  0.00  0.00    +0.013 C 
ATOM     16  C   LIG A   1      -5.235  -4.794 131.641  0.00  0.00    +0.011 C 
ATOM     17  C   LIG A   1      -4.109  -3.859 129.616  0.00  0.00    +0.011 C 
ENDROOT
BRANCH  11  18
ATOM     18  C   LIG A   1      -8.593  -2.013 123.851  0.00  0.00    +0.017 C 
ATOM     19  C   LIG A   1      -9.414  -3.308 123.832  0.00  0.00    +0.012 C 
ATOM     20  C   LIG A   1      -7.395  -2.116 122.908  0.00  0.00    +0.012 C 
ENDBRANCH  11  18
BRANCH  13  21
ATOM     21  O   LIG A   1      -7.019   1.097 127.583  0.00  0.00    -0.491 OA
ATOM     22  C   LIG A   1      -5.673   1.411 127.275  0.00  0.00    +0.277 C 
ENDBRANCH  13  21
BRANCH  12  23
ATOM     23  O   LIG A   1      -7.750   0.715 124.764  0.00  0.00    -0.491 OA
ATOM     24  C   LIG A   1      -8.898   1.559 124.724  0.00  0.00    +0.277 C 
ENDBRANCH  12  23
TORSDOF 3
ENDMDL
MODEL 4
REMARK VINA RESULT:      -7.2      2.795      4.361
REMARK  Name = NuBBE_2377
REMARK  9 active torsions:
REMARK  status: ('A' for Active; 'I' for Inactive)
REMARK    1  A    between atoms: C_1  and  C_24
REMARK    2  A    between atoms: C_1  and  C_25
REMARK    3  A    between atoms: C_12  and  C_13
REMARK    4  A    between atoms: C_13  and  C_14
REMARK    5  A    between atoms: C_13  and  C_15
REMARK    6  A    between atoms: C_16  and  O_20
REMARK    7  A    between atoms: C_17  and  O_18
REMARK    8  A    between atoms: O_18  and  C_19
REMARK    9  A    between atoms: O_20  and  C_21
REMARK                            x       y       z     vdW  Elec       q    Type
REMARK                         _______ _______ _______ _____ _____    ______ ____
ROOT
ATOM      1  C   LIG A   1      -7.707  -2.100 124.087  0.00  0.00    -0.028 C 
ATOM      2  C   LIG A   1      -7.824  -0.679 124.784  0.00  0.00    +0.021 C 
ATOM      3  C   LIG A   1      -7.921  -0.778 126.307  0.00  0.00    -0.065 C 
ATOM      4  C   LIG A   1      -8.077  -1.954 126.963  0.00  0.00    -0.027 C 
ATOM      5  C   LIG A   1      -8.236  -3.273 126.295  0.00  0.00    +0.028 C 
ATOM      6  C   LIG A   1      -8.607  -3.122 124.824  0.00  0.00    +0.011 C 
ATOM      7  C   LIG A   1      -7.970   0.500 127.107  0.00  0.00    +0.070 C 
ATOM      8  C   LIG A   1      -6.605   1.127 127.269  0.00  0.00    +0.005 A 
ATOM      9  C   LIG A   1      -6.032   1.766 126.160  0.00  0.00    -0.040 A 
ATOM     10  C   LIG A   1      -4.780   2.371 126.299  0.00  0.00    +0.011 A 
ATOM     11  C   LIG A   1      -4.073   2.367 127.524  0.00  0.00    +0.001 A 
ATOM     12  C   LIG A   1      -4.646   1.691 128.628  0.00  0.00    +0.165 A 
ATOM     13  C   LIG A   1      -5.907   1.064 128.497  0.00  0.00    +0.166 A 
ATOM     14  C   LIG A   1      -6.718   1.720 124.813  0.00  0.00    +0.036 C 
ATOM     15  C   LIG A   1      -6.723   0.293 124.252  0.00  0.00    +0.013 C 
ATOM     16  C   LIG A   1      -8.195  -2.023 122.625  0.00  0.00    +0.011 C 
ATOM     17  C   LIG A   1      -6.254  -2.632 124.074  0.00  0.00    +0.011 C 
ENDROOT
BRANCH  11  18
ATOM     18  C   LIG A   1      -2.720   3.074 127.496  0.00  0.00    +0.017 C 
ATOM     19  C   LIG A   1      -2.856   4.546 127.905  0.00  0.00    +0.012 C 
ATOM     20  C   LIG A   1      -1.901   2.942 126.212  0.00  0.00    +0.012 C 
ENDBRANCH  11  18
BRANCH  13  21
ATOM     21  O   LIG A   1      -6.524   0.269 129.429  0.00  0.00    -0.491 OA
ATOM     22  C   LIG A   1      -5.934  -0.961 129.806  0.00  0.00    +0.277 C 
ENDBRANCH  13  21
BRANCH  12  23
ATOM     23  O   LIG A   1      -4.037   1.774 129.853  0.00  0.00    -0.491 OA
ATOM     24  C   LIG A   1      -4.583   2.780 130.705  0.00  0.00    +0.277 C 
ENDBRANCH  12  23
TORSDOF 3
ENDMDL
MODEL 5
REMARK VINA RESULT:      -6.9      7.114      9.081
REMARK  Name = NuBBE_2377
REMARK  9 active torsions:
REMARK  status: ('A' for Active; 'I' for Inactive)
REMARK    1  A    between atoms: C_1  and  C_24
REMARK    2  A    between atoms: C_1  and  C_25
REMARK    3  A    between atoms: C_12  and  C_13
REMARK    4  A    between atoms: C_13  and  C_14
REMARK    5  A    between atoms: C_13  and  C_15
REMARK    6  A    between atoms: C_16  and  O_20
REMARK    7  A    between atoms: C_17  and  O_18
REMARK    8  A    between atoms: O_18  and  C_19
REMARK    9  A    between atoms: O_20  and  C_21
REMARK                            x       y       z     vdW  Elec       q    Type
REMARK                         _______ _______ _______ _____ _____    ______ ____
ROOT
ATOM      1  C   LIG A   1      -9.860   3.154 130.904  0.00  0.00    -0.028 C 
ATOM      2  C   LIG A   1      -9.267   4.434 131.632  0.00  0.00    +0.021 C 
ATOM      3  C   LIG A   1      -8.226   4.076 132.694  0.00  0.00    -0.065 C 
ATOM      4  C   LIG A   1      -7.982   2.803 133.091  0.00  0.00    -0.027 C 
ATOM      5  C   LIG A   1      -8.728   1.614 132.600  0.00  0.00    +0.028 C 
ATOM      6  C   LIG A   1     -10.038   2.004 131.927  0.00  0.00    +0.011 C 
ATOM      7  C   LIG A   1      -7.528   5.199 133.421  0.00  0.00    +0.070 C 
ATOM      8  C   LIG A   1      -6.424   5.817 132.595  0.00  0.00    +0.005 A 
ATOM      9  C   LIG A   1      -6.781   6.645 131.522  0.00  0.00    -0.040 A 
ATOM     10  C   LIG A   1      -5.771   7.242 130.763  0.00  0.00    +0.011 A 
ATOM     11  C   LIG A   1      -4.399   7.044 131.044  0.00  0.00    +0.001 A 
ATOM     12  C   LIG A   1      -4.050   6.180 132.110  0.00  0.00    +0.165 A 
ATOM     13  C   LIG A   1      -5.062   5.559 132.878  0.00  0.00    +0.166 A 
ATOM     14  C   LIG A   1      -8.233   6.815 131.138  0.00  0.00    +0.036 C 
ATOM     15  C   LIG A   1      -8.810   5.504 130.589  0.00  0.00    +0.013 C 
ATOM     16  C   LIG A   1     -11.251   3.468 130.314  0.00  0.00    +0.011 C 
ATOM     17  C   LIG A   1      -8.955   2.660 129.750  0.00  0.00    +0.011 C 
ENDROOT
BRANCH  11  18
ATOM     18  C   LIG A   1      -3.433   7.772 130.112  0.00  0.00    +0.017 C 
ATOM     19  C   LIG A   1      -3.990   9.141 129.699  0.00  0.00    +0.012 C 
ATOM     20  C   LIG A   1      -2.938   6.997 128.892  0.00  0.00    +0.012 C 
ENDBRANCH  11  18
BRANCH  13  21
ATOM     21  O   LIG A   1      -4.882   4.606 133.847  0.00  0.00    -0.491 OA
ATOM     22  C   LIG A   1      -4.350   3.341 133.500  0.00  0.00    +0.277 C 
ENDBRANCH  13  21
BRANCH  12  23
ATOM     23  O   LIG A   1      -2.733   6.066 132.474  0.00  0.00    -0.491 OA
ATOM     24  C   LIG A   1      -2.347   6.944 133.530  0.00  0.00    +0.277 C 
ENDBRANCH  12  23
TORSDOF 3
ENDMDL
MODEL 6
REMARK VINA RESULT:      -6.9      3.097      5.969
REMARK  Name = NuBBE_2377
REMARK  9 active torsions:
REMARK  status: ('A' for Active; 'I' for Inactive)
REMARK    1  A    between atoms: C_1  and  C_24
REMARK    2  A    between atoms: C_1  and  C_25
REMARK    3  A    between atoms: C_12  and  C_13
REMARK    4  A    between atoms: C_13  and  C_14
REMARK    5  A    between atoms: C_13  and  C_15
REMARK    6  A    between atoms: C_16  and  O_20
REMARK    7  A    between atoms: C_17  and  O_18
REMARK    8  A    between atoms: O_18  and  C_19
REMARK    9  A    between atoms: O_20  and  C_21
REMARK                            x       y       z     vdW  Elec       q    Type
REMARK                         _______ _______ _______ _____ _____    ______ ____
ROOT
ATOM      1  C   LIG A   1      -6.239  -2.527 124.301  0.00  0.00    -0.028 C 
ATOM      2  C   LIG A   1      -5.721  -1.373 125.258  0.00  0.00    +0.021 C 
ATOM      3  C   LIG A   1      -6.409  -0.034 124.989  0.00  0.00    -0.065 C 
ATOM      4  C   LIG A   1      -7.226   0.178 123.928  0.00  0.00    -0.027 C 
ATOM      5  C   LIG A   1      -7.507  -0.830 122.871  0.00  0.00    +0.028 C 
ATOM      6  C   LIG A   1      -6.484  -1.960 122.880  0.00  0.00    +0.011 C 
ATOM      7  C   LIG A   1      -6.063   1.141 125.871  0.00  0.00    +0.070 C 
ATOM      8  C   LIG A   1      -6.773   1.084 127.204  0.00  0.00    +0.005 A 
ATOM      9  C   LIG A   1      -6.328   0.154 128.154  0.00  0.00    -0.040 A 
ATOM     10  C   LIG A   1      -6.959   0.105 129.400  0.00  0.00    +0.011 A 
ATOM     11  C   LIG A   1      -8.029   0.967 129.737  0.00  0.00    +0.001 A 
ATOM     12  C   LIG A   1      -8.491   1.879 128.759  0.00  0.00    +0.165 A 
ATOM     13  C   LIG A   1      -7.869   1.930 127.490  0.00  0.00    +0.166 A 
ATOM     14  C   LIG A   1      -5.244  -0.840 127.802  0.00  0.00    +0.036 C 
ATOM     15  C   LIG A   1      -5.740  -1.839 126.750  0.00  0.00    +0.013 C 
ATOM     16  C   LIG A   1      -5.177  -3.640 124.177  0.00  0.00    +0.011 C 
ATOM     17  C   LIG A   1      -7.548  -3.175 124.812  0.00  0.00    +0.011 C 
ENDROOT
BRANCH  11  18
ATOM     18  C   LIG A   1      -8.600   0.774 131.141  0.00  0.00    +0.017 C 
ATOM     19  C   LIG A   1      -7.947   1.736 132.141  0.00  0.00    +0.012 C 
ATOM     20  C   LIG A   1      -8.612  -0.652 131.689  0.00  0.00    +0.012 C 
ENDBRANCH  11  18
BRANCH  13  21
ATOM     21  O   LIG A   1      -8.285   2.662 126.407  0.00  0.00    -0.491 OA
ATOM     22  C   LIG A   1      -7.816   3.986 126.231  0.00  0.00    +0.277 C 
ENDBRANCH  13  21
BRANCH  12  23
ATOM     23  O   LIG A   1      -9.445   2.802 129.102  0.00  0.00    -0.491 OA
ATOM     24  C   LIG A   1      -8.912   4.028 129.599  0.00  0.00    +0.277 C 
ENDBRANCH  12  23
TORSDOF 3
ENDMDL
MODEL 7
REMARK VINA RESULT:      -6.7      3.467      5.937
REMARK  Name = NuBBE_2377
REMARK  9 active torsions:
REMARK  status: ('A' for Active; 'I' for Inactive)
REMARK    1  A    between atoms: C_1  and  C_24
REMARK    2  A    between atoms: C_1  and  C_25
REMARK    3  A    between atoms: C_12  and  C_13
REMARK    4  A    between atoms: C_13  and  C_14
REMARK    5  A    between atoms: C_13  and  C_15
REMARK    6  A    between atoms: C_16  and  O_20
REMARK    7  A    between atoms: C_17  and  O_18
REMARK    8  A    between atoms: O_18  and  C_19
REMARK    9  A    between atoms: O_20  and  C_21
REMARK                            x       y       z     vdW  Elec       q    Type
REMARK                         _______ _______ _______ _____ _____    ______ ____
ROOT
ATOM      1  C   LIG A   1      -7.722  -2.849 124.956  0.00  0.00    -0.028 C 
ATOM      2  C   LIG A   1      -7.103  -2.656 126.405  0.00  0.00    +0.021 C 
ATOM      3  C   LIG A   1      -5.999  -1.598 126.436  0.00  0.00    -0.065 C 
ATOM      4  C   LIG A   1      -5.485  -1.033 125.316  0.00  0.00    -0.027 C 
ATOM      5  C   LIG A   1      -5.878  -1.407 123.931  0.00  0.00    +0.028 C 
ATOM      6  C   LIG A   1      -6.603  -2.747 123.890  0.00  0.00    +0.011 C 
ATOM      7  C   LIG A   1      -5.366  -1.260 127.763  0.00  0.00    +0.070 C 
ATOM      8  C   LIG A   1      -6.227  -0.335 128.589  0.00  0.00    +0.005 A 
ATOM      9  C   LIG A   1      -7.376  -0.862 129.196  0.00  0.00    -0.040 A 
ATOM     10  C   LIG A   1      -8.170  -0.025 129.984  0.00  0.00    +0.011 A 
ATOM     11  C   LIG A   1      -7.852   1.337 130.193  0.00  0.00    +0.001 A 
ATOM     12  C   LIG A   1      -6.709   1.867 129.549  0.00  0.00    +0.165 A 
ATOM     13  C   LIG A   1      -5.903   1.033 128.740  0.00  0.00    +0.166 A 
ATOM     14  C   LIG A   1      -7.795  -2.290 128.929  0.00  0.00    +0.036 C 
ATOM     15  C   LIG A   1      -8.232  -2.466 127.469  0.00  0.00    +0.013 C 
ATOM     16  C   LIG A   1      -8.358  -4.249 124.826  0.00  0.00    +0.011 C 
ATOM     17  C   LIG A   1      -8.814  -1.800 124.637  0.00  0.00    +0.011 C 
ENDROOT
BRANCH  11  18
ATOM     18  C   LIG A   1      -8.832   2.104 131.079  0.00  0.00    +0.017 C 
ATOM     19  C   LIG A   1      -9.629   1.149 131.977  0.00  0.00    +0.012 C 
ATOM     20  C   LIG A   1      -9.762   3.095 130.381  0.00  0.00    +0.012 C 
ENDBRANCH  11  18
BRANCH  13  21
ATOM     21  O   LIG A   1      -4.849   1.429 127.956  0.00  0.00    -0.491 OA
ATOM     22  C   LIG A   1      -5.076   2.286 126.853  0.00  0.00    +0.277 C 
ENDBRANCH  13  21
BRANCH  12  23
ATOM     23  O   LIG A   1      -6.316   3.150 129.831  0.00  0.00    -0.491 OA
ATOM     24  C   LIG A   1      -5.338   3.241 130.865  0.00  0.00    +0.277 C 
ENDBRANCH  12  23
TORSDOF 3
ENDMDL
MODEL 8
REMARK VINA RESULT:      -6.7      2.221      7.125
REMARK  Name = NuBBE_2377
REMARK  9 active torsions:
REMARK  status: ('A' for Active; 'I' for Inactive)
REMARK    1  A    between atoms: C_1  and  C_24
REMARK    2  A    between atoms: C_1  and  C_25
REMARK    3  A    between atoms: C_12  and  C_13
REMARK    4  A    between atoms: C_13  and  C_14
REMARK    5  A    between atoms: C_13  and  C_15
REMARK    6  A    between atoms: C_16  and  O_20
REMARK    7  A    between atoms: C_17  and  O_18
REMARK    8  A    between atoms: O_18  and  C_19
REMARK    9  A    between atoms: O_20  and  C_21
REMARK                            x       y       z     vdW  Elec       q    Type
REMARK                         _______ _______ _______ _____ _____    ______ ____
ROOT
ATOM      1  C   LIG A   1      -5.435   3.775 126.025  0.00  0.00    -0.028 C 
ATOM      2  C   LIG A   1      -6.801   3.142 126.527  0.00  0.00    +0.021 C 
ATOM      3  C   LIG A   1      -7.610   2.514 125.392  0.00  0.00    -0.065 C 
ATOM      4  C   LIG A   1      -7.280   2.653 124.084  0.00  0.00    -0.027 C 
ATOM      5  C   LIG A   1      -6.143   3.474 123.588  0.00  0.00    +0.028 C 
ATOM      6  C   LIG A   1      -5.645   4.450 124.647  0.00  0.00    +0.011 C 
ATOM      7  C   LIG A   1      -8.902   1.814 125.733  0.00  0.00    +0.070 C 
ATOM      8  C   LIG A   1      -8.673   0.428 126.290  0.00  0.00    +0.005 A 
ATOM      9  C   LIG A   1      -8.186   0.311 127.599  0.00  0.00    -0.040 A 
ATOM     10  C   LIG A   1      -7.991  -0.964 128.137  0.00  0.00    +0.011 A 
ATOM     11  C   LIG A   1      -8.273  -2.142 127.406  0.00  0.00    +0.001 A 
ATOM     12  C   LIG A   1      -8.733  -2.011 126.074  0.00  0.00    +0.165 A 
ATOM     13  C   LIG A   1      -8.923  -0.727 125.514  0.00  0.00    +0.166 A 
ATOM     14  C   LIG A   1      -7.793   1.543 128.382  0.00  0.00    +0.036 C 
ATOM     15  C   LIG A   1      -6.562   2.214 127.762  0.00  0.00    +0.013 C 
ATOM     16  C   LIG A   1      -4.955   4.865 127.006  0.00  0.00    +0.011 C 
ATOM     17  C   LIG A   1      -4.308   2.722 125.898  0.00  0.00    +0.011 C 
ENDROOT
BRANCH  11  18
ATOM     18  C   LIG A   1      -7.999  -3.448 128.149  0.00  0.00    +0.017 C 
ATOM     19  C   LIG A   1      -9.301  -4.213 128.421  0.00  0.00    +0.012 C 
ATOM     20  C   LIG A   1      -7.150  -3.355 129.415  0.00  0.00    +0.012 C 
ENDBRANCH  11  18
BRANCH  13  21
ATOM     21  O   LIG A   1      -9.236  -0.445 124.208  0.00  0.00    -0.491 OA
ATOM     22  C   LIG A   1      -8.278  -0.670 123.191  0.00  0.00    +0.277 C 
ENDBRANCH  13  21
BRANCH  12  23
ATOM     23  O   LIG A   1      -9.124  -3.133 125.389  0.00  0.00    -0.491 OA
ATOM     24  C   LIG A   1      -8.057  -3.809 124.727  0.00  0.00    +0.277 C 
ENDBRANCH  12  23
TORSDOF 3
ENDMDL
MODEL 9
REMARK VINA RESULT:      -6.6      2.257      6.750
REMARK  Name = NuBBE_2377
REMARK  9 active torsions:
REMARK  status: ('A' for Active; 'I' for Inactive)
REMARK    1  A    between atoms: C_1  and  C_24
REMARK    2  A    between atoms: C_1  and  C_25
REMARK    3  A    between atoms: C_12  and  C_13
REMARK    4  A    between atoms: C_13  and  C_14
REMARK    5  A    between atoms: C_13  and  C_15
REMARK    6  A    between atoms: C_16  and  O_20
REMARK    7  A    between atoms: C_17  and  O_18
REMARK    8  A    between atoms: O_18  and  C_19
REMARK    9  A    between atoms: O_20  and  C_21
REMARK                            x       y       z     vdW  Elec       q    Type
REMARK                         _______ _______ _______ _____ _____    ______ ____
ROOT
ATOM      1  C   LIG A   1      -4.163   3.536 127.801  0.00  0.00    -0.028 C 
ATOM      2  C   LIG A   1      -5.585   2.954 128.196  0.00  0.00    +0.021 C 
ATOM      3  C   LIG A   1      -6.687   3.389 127.229  0.00  0.00    -0.065 C 
ATOM      4  C   LIG A   1      -6.496   4.316 126.259  0.00  0.00    -0.027 C 
ATOM      5  C   LIG A   1      -5.228   5.067 126.054  0.00  0.00    +0.028 C 
ATOM      6  C   LIG A   1      -4.317   4.984 127.273  0.00  0.00    +0.011 C 
ATOM      7  C   LIG A   1      -8.082   2.854 127.442  0.00  0.00    +0.070 C 
ATOM      8  C   LIG A   1      -8.238   1.441 126.931  0.00  0.00    +0.005 A 
ATOM      9  C   LIG A   1      -7.654   0.400 127.666  0.00  0.00    -0.040 A 
ATOM     10  C   LIG A   1      -7.810  -0.915 127.220  0.00  0.00    +0.011 A 
ATOM     11  C   LIG A   1      -8.541  -1.232 126.051  0.00  0.00    +0.001 A 
ATOM     12  C   LIG A   1      -9.098  -0.170 125.298  0.00  0.00    +0.165 A 
ATOM     13  C   LIG A   1      -8.938   1.165 125.733  0.00  0.00    +0.166 A 
ATOM     14  C   LIG A   1      -6.796   0.705 128.873  0.00  0.00    +0.036 C 
ATOM     15  C   LIG A   1      -5.502   1.415 128.457  0.00  0.00    +0.013 C 
ATOM     16  C   LIG A   1      -3.243   3.592 129.039  0.00  0.00    +0.011 C 
ATOM     17  C   LIG A   1      -3.455   2.683 126.722  0.00  0.00    +0.011 C 
ENDROOT
BRANCH  11  18
ATOM     18  C   LIG A   1      -8.607  -2.719 125.710  0.00  0.00    +0.017 C 
ATOM     19  C   LIG A   1      -8.831  -3.566 126.969  0.00  0.00    +0.012 C 
ATOM     20  C   LIG A   1      -7.461  -3.285 124.873  0.00  0.00    +0.012 C 
ENDBRANCH  11  18
BRANCH  13  21
ATOM     21  O   LIG A   1      -9.304   2.296 125.048  0.00  0.00    -0.491 OA
ATOM     22  C   LIG A   1      -8.592   2.677 123.886  0.00  0.00    +0.277 C 
ENDBRANCH  13  21
BRANCH  12  23
ATOM     23  O   LIG A   1      -9.908  -0.460 124.231  0.00  0.00    -0.491 OA
ATOM     24  C   LIG A   1      -9.205  -0.630 123.001  0.00  0.00    +0.277 C 
ENDBRANCH  12  23
TORSDOF 3
ENDMDL
