MODEL 1
REMARK VINA RESULT:      -5.7      0.000      0.000
REMARK  Name = NuBBE_1749
REMARK  4 active torsions:
REMARK  status: ('A' for Active; 'I' for Inactive)
REMARK    1  A    between atoms: C_1  and  C_2
REMARK    2  A    between atoms: C_2  and  C_3
REMARK    3  A    between atoms: C_2  and  C_10
REMARK    4  A    between atoms: C_6  and  C_7
REMARK                            x       y       z     vdW  Elec       q    Type
REMARK                         _______ _______ _______ _____ _____    ______ ____
ROOT
ATOM      1  C   LIG A   1     -11.779   7.835 129.663  0.00  0.00    -0.045 A 
ATOM      2  C   LIG A   1     -12.408   7.269 130.781  0.00  0.00    +0.004 A 
ATOM      3  C   LIG A   1     -11.671   6.564 131.736  0.00  0.00    +0.003 A 
ATOM      4  C   LIG A   1     -10.291   6.401 131.590  0.00  0.00    -0.050 A 
ATOM      5  C   LIG A   1      -9.492   5.676 132.631  0.00  0.00    +0.044 C 
ATOM      6  C   LIG A   1      -9.655   6.979 130.486  0.00  0.00    +0.003 A 
ATOM      7  C   LIG A   1     -10.392   7.684 129.531  0.00  0.00    +0.004 A 
ENDROOT
BRANCH   1   9
ATOM      8  C   LIG A   1     -13.186   9.874 129.204  0.00  0.00    +0.012 C 
ATOM      9  C   LIG A   1     -12.559   8.608 128.614  0.00  0.00    +0.013 C 
ATOM     10  C   LIG A   1     -13.621   7.736 127.940  0.00  0.00    +0.012 C 
ENDBRANCH   1   9
TORSDOF 1
ENDMDL
MODEL 2
REMARK VINA RESULT:      -5.7      0.038      1.523
REMARK  Name = NuBBE_1749
REMARK  4 active torsions:
REMARK  status: ('A' for Active; 'I' for Inactive)
REMARK    1  A    between atoms: C_1  and  C_2
REMARK    2  A    between atoms: C_2  and  C_3
REMARK    3  A    between atoms: C_2  and  C_10
REMARK    4  A    between atoms: C_6  and  C_7
REMARK                            x       y       z     vdW  Elec       q    Type
REMARK                         _______ _______ _______ _____ _____    ______ ____
ROOT
ATOM      1  C   LIG A   1     -11.752   7.846 129.662  0.00  0.00    -0.045 A 
ATOM      2  C   LIG A   1     -10.366   7.671 129.545  0.00  0.00    +0.004 A 
ATOM      3  C   LIG A   1      -9.652   6.955 130.509  0.00  0.00    +0.003 A 
ATOM      4  C   LIG A   1     -10.306   6.405 131.616  0.00  0.00    -0.050 A 
ATOM      5  C   LIG A   1      -9.547   5.605 132.633  0.00  0.00    +0.044 C 
ATOM      6  C   LIG A   1     -11.691   6.562 131.728  0.00  0.00    +0.003 A 
ATOM      7  C   LIG A   1     -12.405   7.278 130.765  0.00  0.00    +0.004 A 
ENDROOT
BRANCH   1   9
ATOM      8  C   LIG A   1     -13.183   9.874 129.231  0.00  0.00    +0.012 C 
ATOM      9  C   LIG A   1     -12.550   8.618 128.626  0.00  0.00    +0.013 C 
ATOM     10  C   LIG A   1     -13.611   7.740 127.957  0.00  0.00    +0.012 C 
ENDBRANCH   1   9
TORSDOF 1
ENDMDL
MODEL 3
REMARK VINA RESULT:      -5.4      0.965      4.519
REMARK  Name = NuBBE_1749
REMARK  4 active torsions:
REMARK  status: ('A' for Active; 'I' for Inactive)
REMARK    1  A    between atoms: C_1  and  C_2
REMARK    2  A    between atoms: C_2  and  C_3
REMARK    3  A    between atoms: C_2  and  C_10
REMARK    4  A    between atoms: C_6  and  C_7
REMARK                            x       y       z     vdW  Elec       q    Type
REMARK                         _______ _______ _______ _____ _____    ______ ____
ROOT
ATOM      1  C   LIG A   1     -10.423   7.042 130.428  0.00  0.00    -0.045 A 
ATOM      2  C   LIG A   1     -10.145   7.753 129.252  0.00  0.00    +0.004 A 
ATOM      3  C   LIG A   1     -11.134   8.517 128.627  0.00  0.00    +0.003 A 
ATOM      4  C   LIG A   1     -12.425   8.579 129.159  0.00  0.00    -0.050 A 
ATOM      5  C   LIG A   1     -13.479   9.427 128.511  0.00  0.00    +0.044 C 
ATOM      6  C   LIG A   1     -12.703   7.887 130.342  0.00  0.00    +0.003 A 
ATOM      7  C   LIG A   1     -11.714   7.122 130.966  0.00  0.00    +0.004 A 
ENDROOT
BRANCH   1   9
ATOM      8  C   LIG A   1      -9.738   5.934 132.584  0.00  0.00    +0.012 C 
ATOM      9  C   LIG A   1      -9.363   6.208 131.126  0.00  0.00    +0.013 C 
ATOM     10  C   LIG A   1      -7.978   6.855 131.031  0.00  0.00    +0.012 C 
ENDBRANCH   1   9
TORSDOF 1
ENDMDL
MODEL 4
REMARK VINA RESULT:      -5.4      0.970      4.272
REMARK  Name = NuBBE_1749
REMARK  4 active torsions:
REMARK  status: ('A' for Active; 'I' for Inactive)
REMARK    1  A    between atoms: C_1  and  C_2
REMARK    2  A    between atoms: C_2  and  C_3
REMARK    3  A    between atoms: C_2  and  C_10
REMARK    4  A    between atoms: C_6  and  C_7
REMARK                            x       y       z     vdW  Elec       q    Type
REMARK                         _______ _______ _______ _____ _____    ______ ____
ROOT
ATOM      1  C   LIG A   1     -10.395   6.987 130.502  0.00  0.00    -0.045 A 
ATOM      2  C   LIG A   1     -11.696   7.057 131.021  0.00  0.00    +0.004 A 
ATOM      3  C   LIG A   1     -12.680   7.817 130.384  0.00  0.00    +0.003 A 
ATOM      4  C   LIG A   1     -12.384   8.531 129.219  0.00  0.00    -0.050 A 
ATOM      5  C   LIG A   1     -13.448   9.318 128.513  0.00  0.00    +0.044 C 
ATOM      6  C   LIG A   1     -11.093   8.450 128.687  0.00  0.00    +0.003 A 
ATOM      7  C   LIG A   1     -10.108   7.691 129.324  0.00  0.00    +0.004 A 
ENDROOT
BRANCH   1   9
ATOM      8  C   LIG A   1      -9.648   5.888 132.642  0.00  0.00    +0.012 C 
ATOM      9  C   LIG A   1      -9.310   6.166 131.175  0.00  0.00    +0.013 C 
ATOM     10  C   LIG A   1      -7.936   6.829 131.049  0.00  0.00    +0.012 C 
ENDBRANCH   1   9
TORSDOF 1
ENDMDL
MODEL 5
REMARK VINA RESULT:      -5.1      9.647     10.986
REMARK  Name = NuBBE_1749
REMARK  4 active torsions:
REMARK  status: ('A' for Active; 'I' for Inactive)
REMARK    1  A    between atoms: C_1  and  C_2
REMARK    2  A    between atoms: C_2  and  C_3
REMARK    3  A    between atoms: C_2  and  C_10
REMARK    4  A    between atoms: C_6  and  C_7
REMARK                            x       y       z     vdW  Elec       q    Type
REMARK                         _______ _______ _______ _____ _____    ______ ____
ROOT
ATOM      1  C   LIG A   1      -7.630   2.984 122.489  0.00  0.00    -0.045 A 
ATOM      2  C   LIG A   1      -8.711   3.306 121.656  0.00  0.00    +0.004 A 
ATOM      3  C   LIG A   1      -8.499   3.876 120.398  0.00  0.00    +0.003 A 
ATOM      4  C   LIG A   1      -7.203   4.146 119.949  0.00  0.00    -0.050 A 
ATOM      5  C   LIG A   1      -6.971   4.724 118.585  0.00  0.00    +0.044 C 
ATOM      6  C   LIG A   1      -6.121   3.810 120.769  0.00  0.00    +0.003 A 
ATOM      7  C   LIG A   1      -6.332   3.241 122.027  0.00  0.00    +0.004 A 
ENDROOT
BRANCH   1   9
ATOM      8  C   LIG A   1      -6.942   1.134 124.054  0.00  0.00    +0.012 C 
ATOM      9  C   LIG A   1      -7.836   2.361 123.858  0.00  0.00    +0.013 C 
ATOM     10  C   LIG A   1      -9.305   2.011 124.108  0.00  0.00    +0.012 C 
ENDBRANCH   1   9
TORSDOF 1
ENDMDL
MODEL 6
REMARK VINA RESULT:      -5.1     11.573     12.579
REMARK  Name = NuBBE_1749
REMARK  4 active torsions:
REMARK  status: ('A' for Active; 'I' for Inactive)
REMARK    1  A    between atoms: C_1  and  C_2
REMARK    2  A    between atoms: C_2  and  C_3
REMARK    3  A    between atoms: C_2  and  C_10
REMARK    4  A    between atoms: C_6  and  C_7
REMARK                            x       y       z     vdW  Elec       q    Type
REMARK                         _______ _______ _______ _____ _____    ______ ____
ROOT
ATOM      1  C   LIG A   1      -6.496  -2.620 124.931  0.00  0.00    -0.045 A 
ATOM      2  C   LIG A   1      -7.665  -3.375 124.758  0.00  0.00    +0.004 A 
ATOM      3  C   LIG A   1      -8.468  -3.709 125.852  0.00  0.00    +0.003 A 
ATOM      4  C   LIG A   1      -8.116  -3.303 127.142  0.00  0.00    -0.050 A 
ATOM      5  C   LIG A   1      -8.995  -3.629 128.313  0.00  0.00    +0.044 C 
ATOM      6  C   LIG A   1      -6.961  -2.534 127.318  0.00  0.00    +0.003 A 
ATOM      7  C   LIG A   1      -6.157  -2.201 126.224  0.00  0.00    +0.004 A 
ENDROOT
BRANCH   1   9
ATOM      8  C   LIG A   1      -6.440  -1.845 122.534  0.00  0.00    +0.012 C 
ATOM      9  C   LIG A   1      -5.609  -2.243 123.757  0.00  0.00    +0.013 C 
ATOM     10  C   LIG A   1      -4.625  -3.362 123.407  0.00  0.00    +0.012 C 
ENDBRANCH   1   9
TORSDOF 1
ENDMDL
MODEL 7
REMARK VINA RESULT:      -5.0     10.671     11.779
REMARK  Name = NuBBE_1749
REMARK  4 active torsions:
REMARK  status: ('A' for Active; 'I' for Inactive)
REMARK    1  A    between atoms: C_1  and  C_2
REMARK    2  A    between atoms: C_2  and  C_3
REMARK    3  A    between atoms: C_2  and  C_10
REMARK    4  A    between atoms: C_6  and  C_7
REMARK                            x       y       z     vdW  Elec       q    Type
REMARK                         _______ _______ _______ _____ _____    ______ ____
ROOT
ATOM      1  C   LIG A   1      -7.976  -3.247 126.174  0.00  0.00    -0.045 A 
ATOM      2  C   LIG A   1      -7.108  -2.248 126.637  0.00  0.00    +0.004 A 
ATOM      3  C   LIG A   1      -7.069  -1.905 127.991  0.00  0.00    +0.003 A 
ATOM      4  C   LIG A   1      -7.903  -2.548 128.911  0.00  0.00    -0.050 A 
ATOM      5  C   LIG A   1      -7.837  -2.207 130.370  0.00  0.00    +0.044 C 
ATOM      6  C   LIG A   1      -8.757  -3.558 128.458  0.00  0.00    +0.003 A 
ATOM      7  C   LIG A   1      -8.797  -3.900 127.104  0.00  0.00    +0.004 A 
ENDROOT
BRANCH   1   9
ATOM      8  C   LIG A   1      -6.887  -3.006 123.915  0.00  0.00    +0.012 C 
ATOM      9  C   LIG A   1      -8.034  -3.639 124.708  0.00  0.00    +0.013 C 
ATOM     10  C   LIG A   1      -9.387  -3.292 124.081  0.00  0.00    +0.012 C 
ENDBRANCH   1   9
TORSDOF 1
ENDMDL
MODEL 8
REMARK VINA RESULT:      -4.8     10.722     12.064
REMARK  Name = NuBBE_1749
REMARK  4 active torsions:
REMARK  status: ('A' for Active; 'I' for Inactive)
REMARK    1  A    between atoms: C_1  and  C_2
REMARK    2  A    between atoms: C_2  and  C_3
REMARK    3  A    between atoms: C_2  and  C_10
REMARK    4  A    between atoms: C_6  and  C_7
REMARK                            x       y       z     vdW  Elec       q    Type
REMARK                         _______ _______ _______ _____ _____    ______ ____
ROOT
ATOM      1  C   LIG A   1      -7.663  -3.207 128.851  0.00  0.00    -0.045 A 
ATOM      2  C   LIG A   1      -8.820  -3.817 128.346  0.00  0.00    +0.004 A 
ATOM      3  C   LIG A   1      -9.188  -3.655 127.007  0.00  0.00    +0.003 A 
ATOM      4  C   LIG A   1      -8.412  -2.874 126.147  0.00  0.00    -0.050 A 
ATOM      5  C   LIG A   1      -8.784  -2.728 124.701  0.00  0.00    +0.044 C 
ATOM      6  C   LIG A   1      -7.247  -2.278 126.641  0.00  0.00    +0.003 A 
ATOM      7  C   LIG A   1      -6.879  -2.439 127.979  0.00  0.00    +0.004 A 
ENDROOT
BRANCH   1   9
ATOM      8  C   LIG A   1      -7.052  -2.014 130.984  0.00  0.00    +0.012 C 
ATOM      9  C   LIG A   1      -7.242  -3.371 130.300  0.00  0.00    +0.013 C 
ATOM     10  C   LIG A   1      -5.981  -4.229 130.432  0.00  0.00    +0.012 C 
ENDBRANCH   1   9
TORSDOF 1
ENDMDL
MODEL 9
REMARK VINA RESULT:      -4.7      8.915      9.700
REMARK  Name = NuBBE_1749
REMARK  4 active torsions:
REMARK  status: ('A' for Active; 'I' for Inactive)
REMARK    1  A    between atoms: C_1  and  C_2
REMARK    2  A    between atoms: C_2  and  C_3
REMARK    3  A    between atoms: C_2  and  C_10
REMARK    4  A    between atoms: C_6  and  C_7
REMARK                            x       y       z     vdW  Elec       q    Type
REMARK                         _______ _______ _______ _____ _____    ______ ____
ROOT
ATOM      1  C   LIG A   1      -2.892   4.312 128.277  0.00  0.00    -0.045 A 
ATOM      2  C   LIG A   1      -2.383   5.601 128.065  0.00  0.00    +0.004 A 
ATOM      3  C   LIG A   1      -2.288   6.515 129.118  0.00  0.00    +0.003 A 
ATOM      4  C   LIG A   1      -2.707   6.163 130.404  0.00  0.00    -0.050 A 
ATOM      5  C   LIG A   1      -2.572   7.130 131.543  0.00  0.00    +0.044 C 
ATOM      6  C   LIG A   1      -3.200   4.873 130.625  0.00  0.00    +0.003 A 
ATOM      7  C   LIG A   1      -3.296   3.959 129.572  0.00  0.00    +0.004 A 
ENDROOT
BRANCH   1   9
ATOM      8  C   LIG A   1      -1.635   2.998 126.534  0.00  0.00    +0.012 C 
ATOM      9  C   LIG A   1      -3.003   3.301 127.149  0.00  0.00    +0.013 C 
ATOM     10  C   LIG A   1      -3.995   3.756 126.076  0.00  0.00    +0.012 C 
ENDBRANCH   1   9
TORSDOF 1
ENDMDL
