MODEL 1
REMARK VINA RESULT:      -6.4      0.000      0.000
REMARK  Name = NuBBE_219
REMARK  7 active torsions:
REMARK  status: ('A' for Active; 'I' for Inactive)
REMARK    1  A    between atoms: O_1  and  C_2
REMARK    2  A    between atoms: C_6  and  C_8
REMARK    3  A    between atoms: C_8  and  C_10
REMARK    4  A    between atoms: C_8  and  C_12
REMARK    5  A    between atoms: C_10  and  O_11
REMARK    6  A    between atoms: C_15  and  C_17
REMARK    7  A    between atoms: C_19  and  C_20
REMARK                            x       y       z     vdW  Elec       q    Type
REMARK                         _______ _______ _______ _____ _____    ______ ____
ROOT
ATOM      1  C   LIG A   1      -8.768  -3.610 127.645  0.00  0.00    +0.120 A 
ATOM      2  C   LIG A   1      -8.725  -3.680 126.251  0.00  0.00    +0.049 A 
ATOM      3  C   LIG A   1      -7.782  -2.933 125.521  0.00  0.00    -0.038 A 
ATOM      4  C   LIG A   1      -6.890  -2.105 126.225  0.00  0.00    -0.040 A 
ATOM      5  C   LIG A   1      -5.861  -1.252 125.497  0.00  0.00    +0.024 C 
ATOM      6  C   LIG A   1      -5.363  -2.076 124.294  0.00  0.00    +0.009 C 
ATOM      7  C   LIG A   1      -6.504  -2.397 123.336  0.00  0.00    +0.008 C 
ATOM      8  C   LIG A   1      -7.687  -3.121 124.014  0.00  0.00    +0.016 C 
ATOM      9  C   LIG A   1      -8.990  -2.735 123.303  0.00  0.00    +0.012 C 
ATOM     10  C   LIG A   1      -6.932  -2.070 127.634  0.00  0.00    +0.011 A 
ATOM     11  C   LIG A   1      -7.866  -2.823 128.354  0.00  0.00    -0.009 A 
ATOM     12  C   LIG A   1      -7.888  -2.772 129.853  0.00  0.00    +0.048 C 
ENDROOT
BRANCH   1  13
ATOM     13  O   LIG A   1      -9.698  -4.332 128.342  0.00  0.00    -0.506 OA
ATOM     14  H   LIG A   1      -9.587  -5.270 128.125  0.00  0.00    +0.292 HD
ENDBRANCH   1  13
BRANCH   5  15
ATOM     15  C   LIG A   1      -6.426   0.156 125.116  0.00  0.00    +0.019 C 
ATOM     16  C   LIG A   1      -7.925   0.288 125.438  0.00  0.00    +0.010 C 
BRANCH  15  17
ATOM     17  C   LIG A   1      -5.672   1.300 125.813  0.00  0.00    +0.159 C 
BRANCH  17  18
ATOM     18  O   LIG A   1      -4.583   0.792 126.570  0.00  0.00    -0.395 OA
ATOM     19  H   LIG A   1      -3.963   1.528 126.712  0.00  0.00    +0.209 HD
ENDBRANCH  17  18
ENDBRANCH  15  17
ENDBRANCH   5  15
TORSDOF 4
ENDMDL
MODEL 2
REMARK VINA RESULT:      -6.3      1.792      1.946
REMARK  Name = NuBBE_219
REMARK  7 active torsions:
REMARK  status: ('A' for Active; 'I' for Inactive)
REMARK    1  A    between atoms: O_1  and  C_2
REMARK    2  A    between atoms: C_6  and  C_8
REMARK    3  A    between atoms: C_8  and  C_10
REMARK    4  A    between atoms: C_8  and  C_12
REMARK    5  A    between atoms: C_10  and  O_11
REMARK    6  A    between atoms: C_15  and  C_17
REMARK    7  A    between atoms: C_19  and  C_20
REMARK                            x       y       z     vdW  Elec       q    Type
REMARK                         _______ _______ _______ _____ _____    ______ ____
ROOT
ATOM      1  C   LIG A   1      -8.500  -3.395 127.543  0.00  0.00    +0.120 A 
ATOM      2  C   LIG A   1      -8.603  -3.579 126.162  0.00  0.00    +0.049 A 
ATOM      3  C   LIG A   1      -8.230  -2.557 125.269  0.00  0.00    -0.038 A 
ATOM      4  C   LIG A   1      -7.760  -1.342 125.796  0.00  0.00    -0.040 A 
ATOM      5  C   LIG A   1      -7.361  -0.188 124.889  0.00  0.00    +0.024 C 
ATOM      6  C   LIG A   1      -6.686  -0.803 123.647  0.00  0.00    +0.009 C 
ATOM      7  C   LIG A   1      -7.647  -1.715 122.893  0.00  0.00    +0.008 C 
ATOM      8  C   LIG A   1      -8.247  -2.833 123.773  0.00  0.00    +0.016 C 
ATOM      9  C   LIG A   1      -9.654  -3.174 123.266  0.00  0.00    +0.012 C 
ATOM     10  C   LIG A   1      -7.636  -1.187 127.192  0.00  0.00    +0.011 A 
ATOM     11  C   LIG A   1      -8.000  -2.210 128.074  0.00  0.00    -0.009 A 
ATOM     12  C   LIG A   1      -7.855  -2.022 129.555  0.00  0.00    +0.048 C 
ENDROOT
BRANCH   1  13
ATOM     13  O   LIG A   1      -8.879  -4.391 128.400  0.00  0.00    -0.506 OA
ATOM     14  H   LIG A   1      -8.838  -5.237 127.928  0.00  0.00    +0.292 HD
ENDBRANCH   1  13
BRANCH   5  15
ATOM     15  C   LIG A   1      -8.572   0.747 124.559  0.00  0.00    +0.019 C 
ATOM     16  C   LIG A   1      -9.715   0.600 125.576  0.00  0.00    +0.010 C 
BRANCH  15  17
ATOM     17  C   LIG A   1      -8.166   2.228 124.487  0.00  0.00    +0.159 C 
BRANCH  17  18
ATOM     18  O   LIG A   1      -9.297   3.066 124.678  0.00  0.00    -0.395 OA
ATOM     19  H   LIG A   1      -9.936   2.569 125.217  0.00  0.00    +0.209 HD
ENDBRANCH  17  18
ENDBRANCH  15  17
ENDBRANCH   5  15
TORSDOF 4
ENDMDL
MODEL 3
REMARK VINA RESULT:      -6.3      2.733      4.717
REMARK  Name = NuBBE_219
REMARK  7 active torsions:
REMARK  status: ('A' for Active; 'I' for Inactive)
REMARK    1  A    between atoms: O_1  and  C_2
REMARK    2  A    between atoms: C_6  and  C_8
REMARK    3  A    between atoms: C_8  and  C_10
REMARK    4  A    between atoms: C_8  and  C_12
REMARK    5  A    between atoms: C_10  and  O_11
REMARK    6  A    between atoms: C_15  and  C_17
REMARK    7  A    between atoms: C_19  and  C_20
REMARK                            x       y       z     vdW  Elec       q    Type
REMARK                         _______ _______ _______ _____ _____    ______ ____
ROOT
ATOM      1  C   LIG A   1      -9.372   1.168 124.466  0.00  0.00    +0.120 A 
ATOM      2  C   LIG A   1      -9.369   0.065 125.322  0.00  0.00    +0.049 A 
ATOM      3  C   LIG A   1      -8.232  -0.759 125.433  0.00  0.00    -0.038 A 
ATOM      4  C   LIG A   1      -7.103  -0.452 124.654  0.00  0.00    -0.040 A 
ATOM      5  C   LIG A   1      -5.849  -1.313 124.708  0.00  0.00    +0.024 C 
ATOM      6  C   LIG A   1      -5.679  -1.771 126.169  0.00  0.00    +0.009 C 
ATOM      7  C   LIG A   1      -6.870  -2.604 126.628  0.00  0.00    +0.008 C 
ATOM      8  C   LIG A   1      -8.223  -1.882 126.458  0.00  0.00    +0.016 C 
ATOM      9  C   LIG A   1      -9.319  -2.920 126.185  0.00  0.00    +0.012 C 
ATOM     10  C   LIG A   1      -7.116   0.682 123.818  0.00  0.00    +0.011 A 
ATOM     11  C   LIG A   1      -8.246   1.502 123.720  0.00  0.00    -0.009 A 
ATOM     12  C   LIG A   1      -8.234   2.706 122.825  0.00  0.00    +0.048 C 
ENDROOT
BRANCH   1  13
ATOM     13  O   LIG A   1     -10.488   1.952 124.358  0.00  0.00    -0.506 OA
ATOM     14  H   LIG A   1     -11.158   1.622 124.976  0.00  0.00    +0.292 HD
ENDBRANCH   1  13
BRANCH   5  15
ATOM     15  C   LIG A   1      -5.896  -2.486 123.674  0.00  0.00    +0.019 C 
ATOM     16  C   LIG A   1      -6.334  -2.014 122.277  0.00  0.00    +0.010 C 
BRANCH  15  17
ATOM     17  C   LIG A   1      -4.545  -3.210 123.545  0.00  0.00    +0.159 C 
BRANCH  17  18
ATOM     18  O   LIG A   1      -4.674  -4.578 123.904  0.00  0.00    -0.395 OA
ATOM     19  H   LIG A   1      -4.104  -5.088 123.303  0.00  0.00    +0.209 HD
ENDBRANCH  17  18
ENDBRANCH  15  17
ENDBRANCH   5  15
TORSDOF 4
ENDMDL
MODEL 4
REMARK VINA RESULT:      -6.1      8.186     10.328
REMARK  Name = NuBBE_219
REMARK  7 active torsions:
REMARK  status: ('A' for Active; 'I' for Inactive)
REMARK    1  A    between atoms: O_1  and  C_2
REMARK    2  A    between atoms: C_6  and  C_8
REMARK    3  A    between atoms: C_8  and  C_10
REMARK    4  A    between atoms: C_8  and  C_12
REMARK    5  A    between atoms: C_10  and  O_11
REMARK    6  A    between atoms: C_15  and  C_17
REMARK    7  A    between atoms: C_19  and  C_20
REMARK                            x       y       z     vdW  Elec       q    Type
REMARK                         _______ _______ _______ _____ _____    ______ ____
ROOT
ATOM      1  C   LIG A   1     -11.680   6.882 131.367  0.00  0.00    +0.120 A 
ATOM      2  C   LIG A   1     -10.929   6.241 132.355  0.00  0.00    +0.049 A 
ATOM      3  C   LIG A   1      -9.550   6.017 132.180  0.00  0.00    -0.038 A 
ATOM      4  C   LIG A   1      -8.947   6.443 130.984  0.00  0.00    -0.040 A 
ATOM      5  C   LIG A   1      -7.466   6.213 130.720  0.00  0.00    +0.024 C 
ATOM      6  C   LIG A   1      -6.735   6.399 132.064  0.00  0.00    +0.009 C 
ATOM      7  C   LIG A   1      -7.215   5.387 133.098  0.00  0.00    +0.008 C 
ATOM      8  C   LIG A   1      -8.742   5.421 133.322  0.00  0.00    +0.016 C 
ATOM      9  C   LIG A   1      -9.228   4.016 133.699  0.00  0.00    +0.012 C 
ATOM     10  C   LIG A   1      -9.717   7.114 130.012  0.00  0.00    +0.011 A 
ATOM     11  C   LIG A   1     -11.085   7.342 130.197  0.00  0.00    -0.009 A 
ATOM     12  C   LIG A   1     -11.882   8.061 129.149  0.00  0.00    +0.048 C 
ENDROOT
BRANCH   1  13
ATOM     13  O   LIG A   1     -13.022   7.082 131.544  0.00  0.00    -0.506 OA
ATOM     14  H   LIG A   1     -13.229   6.973 132.485  0.00  0.00    +0.292 HD
ENDBRANCH   1  13
BRANCH   5  15
ATOM     15  C   LIG A   1      -7.199   4.832 130.035  0.00  0.00    +0.019 C 
ATOM     16  C   LIG A   1      -8.223   4.522 128.930  0.00  0.00    +0.010 C 
BRANCH  15  17
ATOM     17  C   LIG A   1      -5.786   4.739 129.434  0.00  0.00    +0.159 C 
BRANCH  17  18
ATOM     18  O   LIG A   1      -5.835   4.861 128.020  0.00  0.00    -0.395 OA
ATOM     19  H   LIG A   1      -6.647   5.351 127.801  0.00  0.00    +0.209 HD
ENDBRANCH  17  18
ENDBRANCH  15  17
ENDBRANCH   5  15
TORSDOF 4
ENDMDL
MODEL 5
REMARK VINA RESULT:      -6.1      2.427      4.131
REMARK  Name = NuBBE_219
REMARK  7 active torsions:
REMARK  status: ('A' for Active; 'I' for Inactive)
REMARK    1  A    between atoms: O_1  and  C_2
REMARK    2  A    between atoms: C_6  and  C_8
REMARK    3  A    between atoms: C_8  and  C_10
REMARK    4  A    between atoms: C_8  and  C_12
REMARK    5  A    between atoms: C_10  and  O_11
REMARK    6  A    between atoms: C_15  and  C_17
REMARK    7  A    between atoms: C_19  and  C_20
REMARK                            x       y       z     vdW  Elec       q    Type
REMARK                         _______ _______ _______ _____ _____    ______ ____
ROOT
ATOM      1  C   LIG A   1      -5.570  -0.744 127.027  0.00  0.00    +0.120 A 
ATOM      2  C   LIG A   1      -6.418  -1.809 126.715  0.00  0.00    +0.049 A 
ATOM      3  C   LIG A   1      -7.204  -1.787 125.548  0.00  0.00    -0.038 A 
ATOM      4  C   LIG A   1      -7.124  -0.665 124.706  0.00  0.00    -0.040 A 
ATOM      5  C   LIG A   1      -7.963  -0.566 123.439  0.00  0.00    +0.024 C 
ATOM      6  C   LIG A   1      -8.035  -1.981 122.835  0.00  0.00    +0.009 C 
ATOM      7  C   LIG A   1      -8.705  -2.957 123.795  0.00  0.00    +0.008 C 
ATOM      8  C   LIG A   1      -8.028  -3.012 125.181  0.00  0.00    +0.016 C 
ATOM      9  C   LIG A   1      -9.083  -3.335 126.246  0.00  0.00    +0.012 C 
ATOM     10  C   LIG A   1      -6.241   0.387 125.023  0.00  0.00    +0.011 A 
ATOM     11  C   LIG A   1      -5.455   0.355 126.181  0.00  0.00    -0.009 A 
ATOM     12  C   LIG A   1      -4.520   1.484 126.494  0.00  0.00    +0.048 C 
ENDROOT
BRANCH   1  13
ATOM     13  O   LIG A   1      -4.821  -0.772 128.172  0.00  0.00    -0.506 OA
ATOM     14  H   LIG A   1      -4.398  -1.641 128.242  0.00  0.00    +0.292 HD
ENDBRANCH   1  13
BRANCH   5  15
ATOM     15  C   LIG A   1      -9.360   0.085 123.708  0.00  0.00    +0.019 C 
ATOM     16  C   LIG A   1      -9.242   1.453 124.402  0.00  0.00    +0.010 C 
BRANCH  15  17
ATOM     17  C   LIG A   1     -10.184   0.257 122.422  0.00  0.00    +0.159 C 
BRANCH  17  18
ATOM     18  O   LIG A   1     -11.527   0.603 122.731  0.00  0.00    -0.395 OA
ATOM     19  H   LIG A   1     -11.667   0.403 123.672  0.00  0.00    +0.209 HD
ENDBRANCH  17  18
ENDBRANCH  15  17
ENDBRANCH   5  15
TORSDOF 4
ENDMDL
MODEL 6
REMARK VINA RESULT:      -6.1      1.903      4.839
REMARK  Name = NuBBE_219
REMARK  7 active torsions:
REMARK  status: ('A' for Active; 'I' for Inactive)
REMARK    1  A    between atoms: O_1  and  C_2
REMARK    2  A    between atoms: C_6  and  C_8
REMARK    3  A    between atoms: C_8  and  C_10
REMARK    4  A    between atoms: C_8  and  C_12
REMARK    5  A    between atoms: C_10  and  O_11
REMARK    6  A    between atoms: C_15  and  C_17
REMARK    7  A    between atoms: C_19  and  C_20
REMARK                            x       y       z     vdW  Elec       q    Type
REMARK                         _______ _______ _______ _____ _____    ______ ____
ROOT
ATOM      1  C   LIG A   1      -7.352   1.037 123.499  0.00  0.00    +0.120 A 
ATOM      2  C   LIG A   1      -6.905  -0.265 123.264  0.00  0.00    +0.049 A 
ATOM      3  C   LIG A   1      -7.383  -1.341 124.036  0.00  0.00    -0.038 A 
ATOM      4  C   LIG A   1      -8.313  -1.076 125.055  0.00  0.00    -0.040 A 
ATOM      5  C   LIG A   1      -8.854  -2.189 125.941  0.00  0.00    +0.024 C 
ATOM      6  C   LIG A   1      -9.020  -3.435 125.050  0.00  0.00    +0.009 C 
ATOM      7  C   LIG A   1      -7.683  -3.875 124.464  0.00  0.00    +0.008 C 
ATOM      8  C   LIG A   1      -6.962  -2.759 123.678  0.00  0.00    +0.016 C 
ATOM      9  C   LIG A   1      -5.446  -2.956 123.796  0.00  0.00    +0.012 C 
ATOM     10  C   LIG A   1      -8.774   0.241 125.257  0.00  0.00    +0.011 A 
ATOM     11  C   LIG A   1      -8.302   1.305 124.480  0.00  0.00    -0.009 A 
ATOM     12  C   LIG A   1      -8.810   2.697 124.712  0.00  0.00    +0.048 C 
ENDROOT
BRANCH   1  13
ATOM     13  O   LIG A   1      -6.870   2.076 122.751  0.00  0.00    -0.506 OA
ATOM     14  H   LIG A   1      -7.542   2.775 122.724  0.00  0.00    +0.292 HD
ENDBRANCH   1  13
BRANCH   5  15
ATOM     15  C   LIG A   1      -7.960  -2.423 127.204  0.00  0.00    +0.019 C 
ATOM     16  C   LIG A   1      -7.674  -1.117 127.965  0.00  0.00    +0.010 C 
BRANCH  15  17
ATOM     17  C   LIG A   1      -8.579  -3.435 128.182  0.00  0.00    +0.159 C 
BRANCH  17  18
ATOM     18  O   LIG A   1      -8.256  -3.097 129.523  0.00  0.00    -0.395 OA
ATOM     19  H   LIG A   1      -9.087  -3.098 130.028  0.00  0.00    +0.209 HD
ENDBRANCH  17  18
ENDBRANCH  15  17
ENDBRANCH   5  15
TORSDOF 4
ENDMDL
MODEL 7
REMARK VINA RESULT:      -5.9      2.153      5.282
REMARK  Name = NuBBE_219
REMARK  7 active torsions:
REMARK  status: ('A' for Active; 'I' for Inactive)
REMARK    1  A    between atoms: O_1  and  C_2
REMARK    2  A    between atoms: C_6  and  C_8
REMARK    3  A    between atoms: C_8  and  C_10
REMARK    4  A    between atoms: C_8  and  C_12
REMARK    5  A    between atoms: C_10  and  O_11
REMARK    6  A    between atoms: C_15  and  C_17
REMARK    7  A    between atoms: C_19  and  C_20
REMARK                            x       y       z     vdW  Elec       q    Type
REMARK                         _______ _______ _______ _____ _____    ______ ____
ROOT
ATOM      1  C   LIG A   1      -5.840   2.059 125.762  0.00  0.00    +0.120 A 
ATOM      2  C   LIG A   1      -5.614   0.728 126.121  0.00  0.00    +0.049 A 
ATOM      3  C   LIG A   1      -6.025  -0.324 125.280  0.00  0.00    -0.038 A 
ATOM      4  C   LIG A   1      -6.676  -0.006 124.076  0.00  0.00    -0.040 A 
ATOM      5  C   LIG A   1      -7.166  -1.094 123.132  0.00  0.00    +0.024 C 
ATOM      6  C   LIG A   1      -6.122  -2.228 123.170  0.00  0.00    +0.009 C 
ATOM      7  C   LIG A   1      -5.994  -2.812 124.572  0.00  0.00    +0.008 C 
ATOM      8  C   LIG A   1      -5.661  -1.755 125.647  0.00  0.00    +0.016 C 
ATOM      9  C   LIG A   1      -6.280  -2.181 126.984  0.00  0.00    +0.012 C 
ATOM     10  C   LIG A   1      -6.868   1.344 123.719  0.00  0.00    +0.011 A 
ATOM     11  C   LIG A   1      -6.449   2.385 124.555  0.00  0.00    -0.009 A 
ATOM     12  C   LIG A   1      -6.661   3.814 124.151  0.00  0.00    +0.048 C 
ENDROOT
BRANCH   1  13
ATOM     13  O   LIG A   1      -5.448   3.072 126.594  0.00  0.00    -0.506 OA
ATOM     14  H   LIG A   1      -5.098   2.683 127.411  0.00  0.00    +0.292 HD
ENDBRANCH   1  13
BRANCH   5  15
ATOM     15  C   LIG A   1      -8.622  -1.556 123.471  0.00  0.00    +0.019 C 
ATOM     16  C   LIG A   1      -9.685  -0.695 122.768  0.00  0.00    +0.010 C 
BRANCH  15  17
ATOM     17  C   LIG A   1      -8.868  -3.030 123.111  0.00  0.00    +0.159 C 
BRANCH  17  18
ATOM     18  O   LIG A   1     -10.203  -3.405 123.421  0.00  0.00    -0.395 OA
ATOM     19  H   LIG A   1     -10.787  -2.714 123.063  0.00  0.00    +0.209 HD
ENDBRANCH  17  18
ENDBRANCH  15  17
ENDBRANCH   5  15
TORSDOF 4
ENDMDL
MODEL 8
REMARK VINA RESULT:      -5.7      8.376     10.132
REMARK  Name = NuBBE_219
REMARK  7 active torsions:
REMARK  status: ('A' for Active; 'I' for Inactive)
REMARK    1  A    between atoms: O_1  and  C_2
REMARK    2  A    between atoms: C_6  and  C_8
REMARK    3  A    between atoms: C_8  and  C_10
REMARK    4  A    between atoms: C_8  and  C_12
REMARK    5  A    between atoms: C_10  and  O_11
REMARK    6  A    between atoms: C_15  and  C_17
REMARK    7  A    between atoms: C_19  and  C_20
REMARK                            x       y       z     vdW  Elec       q    Type
REMARK                         _______ _______ _______ _____ _____    ______ ____
ROOT
ATOM      1  C   LIG A   1     -10.920   5.762 130.153  0.00  0.00    +0.120 A 
ATOM      2  C   LIG A   1     -10.690   4.804 131.143  0.00  0.00    +0.049 A 
ATOM      3  C   LIG A   1      -9.571   4.899 131.992  0.00  0.00    -0.038 A 
ATOM      4  C   LIG A   1      -8.684   5.974 131.815  0.00  0.00    -0.040 A 
ATOM      5  C   LIG A   1      -7.443   6.126 132.684  0.00  0.00    +0.024 C 
ATOM      6  C   LIG A   1      -7.828   5.666 134.103  0.00  0.00    +0.009 C 
ATOM      7  C   LIG A   1      -8.260   4.204 134.111  0.00  0.00    +0.008 C 
ATOM      8  C   LIG A   1      -9.414   3.903 133.131  0.00  0.00    +0.016 C 
ATOM      9  C   LIG A   1      -9.282   2.462 132.622  0.00  0.00    +0.012 C 
ATOM     10  C   LIG A   1      -8.950   6.947 130.830  0.00  0.00    +0.011 A 
ATOM     11  C   LIG A   1     -10.069   6.851 129.995  0.00  0.00    -0.009 A 
ATOM     12  C   LIG A   1     -10.332   7.901 128.956  0.00  0.00    +0.048 C 
ENDROOT
BRANCH   1  13
ATOM     13  O   LIG A   1     -12.004   5.651 129.326  0.00  0.00    -0.506 OA
ATOM     14  H   LIG A   1     -12.805   5.836 129.840  0.00  0.00    +0.292 HD
ENDBRANCH   1  13
BRANCH   5  15
ATOM     15  C   LIG A   1      -6.209   5.374 132.082  0.00  0.00    +0.019 C 
ATOM     16  C   LIG A   1      -6.600   4.461 130.908  0.00  0.00    +0.010 C 
BRANCH  15  17
ATOM     17  C   LIG A   1      -5.109   6.338 131.609  0.00  0.00    +0.159 C 
BRANCH  17  18
ATOM     18  O   LIG A   1      -5.362   6.773 130.280  0.00  0.00    -0.395 OA
ATOM     19  H   LIG A   1      -6.203   7.262 130.292  0.00  0.00    +0.209 HD
ENDBRANCH  17  18
ENDBRANCH  15  17
ENDBRANCH   5  15
TORSDOF 4
ENDMDL
MODEL 9
REMARK VINA RESULT:      -5.7      2.362      4.899
REMARK  Name = NuBBE_219
REMARK  7 active torsions:
REMARK  status: ('A' for Active; 'I' for Inactive)
REMARK    1  A    between atoms: O_1  and  C_2
REMARK    2  A    between atoms: C_6  and  C_8
REMARK    3  A    between atoms: C_8  and  C_10
REMARK    4  A    between atoms: C_8  and  C_12
REMARK    5  A    between atoms: C_10  and  O_11
REMARK    6  A    between atoms: C_15  and  C_17
REMARK    7  A    between atoms: C_19  and  C_20
REMARK                            x       y       z     vdW  Elec       q    Type
REMARK                         _______ _______ _______ _____ _____    ______ ____
ROOT
ATOM      1  C   LIG A   1      -9.108  -0.855 124.332  0.00  0.00    +0.120 A 
ATOM      2  C   LIG A   1      -8.634   0.000 125.330  0.00  0.00    +0.049 A 
ATOM      3  C   LIG A   1      -7.910  -0.504 126.427  0.00  0.00    -0.038 A 
ATOM      4  C   LIG A   1      -7.683  -1.889 126.502  0.00  0.00    -0.040 A 
ATOM      5  C   LIG A   1      -6.928  -2.504 127.672  0.00  0.00    +0.024 C 
ATOM      6  C   LIG A   1      -5.809  -1.516 128.055  0.00  0.00    +0.009 C 
ATOM      7  C   LIG A   1      -6.384  -0.173 128.489  0.00  0.00    +0.008 C 
ATOM      8  C   LIG A   1      -7.310   0.466 127.433  0.00  0.00    +0.016 C 
ATOM      9  C   LIG A   1      -8.386   1.299 128.141  0.00  0.00    +0.012 C 
ATOM     10  C   LIG A   1      -8.146  -2.731 125.471  0.00  0.00    +0.011 A 
ATOM     11  C   LIG A   1      -8.857  -2.222 124.378  0.00  0.00    -0.009 A 
ATOM     12  C   LIG A   1      -9.335  -3.139 123.291  0.00  0.00    +0.048 C 
ENDROOT
BRANCH   1  13
ATOM     13  O   LIG A   1      -9.822  -0.353 123.278  0.00  0.00    -0.506 OA
ATOM     14  H   LIG A   1     -10.560  -0.954 123.092  0.00  0.00    +0.292 HD
ENDBRANCH   1  13
BRANCH   5  15
ATOM     15  C   LIG A   1      -7.880  -2.878 128.856  0.00  0.00    +0.019 C 
ATOM     16  C   LIG A   1      -8.967  -3.882 128.434  0.00  0.00    +0.010 C 
BRANCH  15  17
ATOM     17  C   LIG A   1      -7.119  -3.457 130.060  0.00  0.00    +0.159 C 
BRANCH  17  18
ATOM     18  O   LIG A   1      -7.477  -2.774 131.253  0.00  0.00    -0.395 OA
ATOM     19  H   LIG A   1      -8.348  -3.109 131.527  0.00  0.00    +0.209 HD
ENDBRANCH  17  18
ENDBRANCH  15  17
ENDBRANCH   5  15
TORSDOF 4
ENDMDL
