MODEL 1
REMARK VINA RESULT:      -6.6      0.000      0.000
REMARK  Name = NuBBE_1505
REMARK  18 active torsions:
REMARK  status: ('A' for Active; 'I' for Inactive)
REMARK    1  A    between atoms: C_1  and  C_2
REMARK    2  A    between atoms: C_1  and  C_18
REMARK    3  A    between atoms: C_2  and  C_3
REMARK    4  A    between atoms: C_3  and  C_5
REMARK    5  A    between atoms: C_5  and  C_6
REMARK    6  A    between atoms: C_6  and  C_8
REMARK    7  A    between atoms: C_6  and  O_17
REMARK    8  A    between atoms: C_8  and  C_9
REMARK    9  A    between atoms: C_9  and  C_10
REMARK   10  A    between atoms: C_10  and  C_11
REMARK   11  A    between atoms: C_11  and  C_12
REMARK   12  A    between atoms: C_12  and  C_13
REMARK   13  A    between atoms: C_13  and  C_14
REMARK   14  A    between atoms: C_14  and  C_15
REMARK   15  A    between atoms: C_15  and  C_16
REMARK   16  A    between atoms: C_20  and  O_21
REMARK   17  A    between atoms: O_21  and  C_22
REMARK   18  A    between atoms: C_23  and  O_26
REMARK                            x       y       z     vdW  Elec       q    Type
REMARK                         _______ _______ _______ _____ _____    ______ ____
ROOT
ATOM      1  C   LIG A   1      -8.986   1.660 123.487  0.00  0.00    +0.136 C 
ATOM      2  O   LIG A   1     -10.198   1.612 123.663  0.00  0.00    -0.297 OA
ENDROOT
BRANCH   1   3
ATOM      3  C   LIG A   1      -8.196   0.422 123.066  0.00  0.00    +0.105 C 
BRANCH   3   4
ATOM      4  C   LIG A   1      -8.962  -0.879 123.322  0.00  0.00    +0.122 C 
BRANCH   4   5
ATOM      5  O   LIG A   1     -10.110  -0.908 122.478  0.00  0.00    -0.391 OA
ATOM      6  H   LIG A   1      -9.839  -0.549 121.614  0.00  0.00    +0.210 HD
ENDBRANCH   4   5
BRANCH   4   7
ATOM      7  C   LIG A   1      -8.076  -2.108 123.028  0.00  0.00    +0.032 C 
BRANCH   7   8
ATOM      8  C   LIG A   1      -6.568  -1.803 122.987  0.00  0.00    +0.002 C 
BRANCH   8   9
ATOM      9  C   LIG A   1      -5.691  -3.010 123.368  0.00  0.00    +0.000 C 
BRANCH   9  10
ATOM     10  C   LIG A   1      -5.261  -3.027 124.839  0.00  0.00    -0.000 C 
BRANCH  10  11
ATOM     11  C   LIG A   1      -5.770  -1.825 125.643  0.00  0.00    -0.000 C 
BRANCH  11  12
ATOM     12  C   LIG A   1      -6.563  -2.192 126.904  0.00  0.00    -0.000 C 
BRANCH  12  13
ATOM     13  C   LIG A   1      -8.057  -2.406 126.628  0.00  0.00    -0.000 C 
BRANCH  13  14
ATOM     14  C   LIG A   1      -8.677  -3.450 127.560  0.00  0.00    -0.003 C 
ATOM     15  C   LIG A   1      -8.097  -3.393 128.963  0.00  0.00    +0.004 C 
ENDBRANCH  13  14
ENDBRANCH  12  13
ENDBRANCH  11  12
ENDBRANCH  10  11
ENDBRANCH   9  10
ENDBRANCH   8   9
ENDBRANCH   7   8
ENDBRANCH   4   7
ENDBRANCH   3   4
ENDBRANCH   1   3
BRANCH   1  16
ATOM     16  C   LIG A   1      -8.199   2.947 123.705  0.00  0.00    +0.079 C 
BRANCH  16  17
ATOM     17  C   LIG A   1      -6.754   2.793 123.240  0.00  0.00    +0.042 C 
BRANCH  17  18
ATOM     18  C   LIG A   1      -6.430   3.596 121.997  0.00  0.00    -0.043 A 
ATOM     19  C   LIG A   1      -7.345   3.636 120.929  0.00  0.00    +0.053 A 
ATOM     20  C   LIG A   1      -7.048   4.339 119.758  0.00  0.00    +0.162 A 
ATOM     21  C   LIG A   1      -5.821   5.003 119.665  0.00  0.00    +0.159 A 
ATOM     22  C   LIG A   1      -4.901   4.976 120.703  0.00  0.00    +0.049 A 
ATOM     23  C   LIG A   1      -5.204   4.270 121.870  0.00  0.00    +0.007 A 
BRANCH  21  24
ATOM     24  O   LIG A   1      -5.497   5.697 118.529  0.00  0.00    -0.503 OA
ATOM     25  H   LIG A   1      -4.531   5.582 118.433  0.00  0.00    +0.292 HD
ENDBRANCH  21  24
BRANCH  20  26
ATOM     26  O   LIG A   1      -7.852   4.447 118.652  0.00  0.00    -0.491 OA
ATOM     27  C   LIG A   1      -9.254   4.357 118.879  0.00  0.00    +0.277 C 
ENDBRANCH  20  26
ENDBRANCH  17  18
ENDBRANCH  16  17
ENDBRANCH   1  16
TORSDOF 16
ENDMDL
MODEL 2
REMARK VINA RESULT:      -6.3      1.705      3.334
REMARK  Name = NuBBE_1505
REMARK  18 active torsions:
REMARK  status: ('A' for Active; 'I' for Inactive)
REMARK    1  A    between atoms: C_1  and  C_2
REMARK    2  A    between atoms: C_1  and  C_18
REMARK    3  A    between atoms: C_2  and  C_3
REMARK    4  A    between atoms: C_3  and  C_5
REMARK    5  A    between atoms: C_5  and  C_6
REMARK    6  A    between atoms: C_6  and  C_8
REMARK    7  A    between atoms: C_6  and  O_17
REMARK    8  A    between atoms: C_8  and  C_9
REMARK    9  A    between atoms: C_9  and  C_10
REMARK   10  A    between atoms: C_10  and  C_11
REMARK   11  A    between atoms: C_11  and  C_12
REMARK   12  A    between atoms: C_12  and  C_13
REMARK   13  A    between atoms: C_13  and  C_14
REMARK   14  A    between atoms: C_14  and  C_15
REMARK   15  A    between atoms: C_15  and  C_16
REMARK   16  A    between atoms: C_20  and  O_21
REMARK   17  A    between atoms: O_21  and  C_22
REMARK   18  A    between atoms: C_23  and  O_26
REMARK                            x       y       z     vdW  Elec       q    Type
REMARK                         _______ _______ _______ _____ _____    ______ ____
ROOT
ATOM      1  C   LIG A   1      -9.427   0.075 123.346  0.00  0.00    +0.136 C 
ATOM      2  O   LIG A   1     -10.373   0.061 122.567  0.00  0.00    -0.297 OA
ENDROOT
BRANCH   1   3
ATOM      3  C   LIG A   1      -9.245  -1.024 124.392  0.00  0.00    +0.105 C 
BRANCH   3   4
ATOM      4  C   LIG A   1      -8.844  -2.366 123.771  0.00  0.00    +0.122 C 
BRANCH   4   5
ATOM      5  O   LIG A   1     -10.023  -3.041 123.341  0.00  0.00    -0.391 OA
ATOM      6  H   LIG A   1     -10.218  -2.730 122.439  0.00  0.00    +0.210 HD
ENDBRANCH   4   5
BRANCH   4   7
ATOM      7  C   LIG A   1      -7.902  -2.156 122.567  0.00  0.00    +0.032 C 
BRANCH   7   8
ATOM      8  C   LIG A   1      -6.420  -1.983 122.948  0.00  0.00    +0.002 C 
BRANCH   8   9
ATOM      9  C   LIG A   1      -5.996  -2.839 124.153  0.00  0.00    +0.000 C 
BRANCH   9  10
ATOM     10  C   LIG A   1      -5.526  -2.022 125.362  0.00  0.00    -0.000 C 
BRANCH  10  11
ATOM     11  C   LIG A   1      -5.931  -0.546 125.303  0.00  0.00    -0.000 C 
BRANCH  11  12
ATOM     12  C   LIG A   1      -5.043   0.392 126.131  0.00  0.00    -0.000 C 
BRANCH  12  13
ATOM     13  C   LIG A   1      -5.707   1.747 126.414  0.00  0.00    -0.000 C 
BRANCH  13  14
ATOM     14  C   LIG A   1      -5.665   2.679 125.200  0.00  0.00    -0.003 C 
ATOM     15  C   LIG A   1      -4.945   3.983 125.494  0.00  0.00    +0.004 C 
ENDBRANCH  13  14
ENDBRANCH  12  13
ENDBRANCH  11  12
ENDBRANCH  10  11
ENDBRANCH   9  10
ENDBRANCH   8   9
ENDBRANCH   7   8
ENDBRANCH   4   7
ENDBRANCH   3   4
ENDBRANCH   1   3
BRANCH   1  16
ATOM     16  C   LIG A   1      -8.398   1.200 123.332  0.00  0.00    +0.079 C 
BRANCH  16  17
ATOM     17  C   LIG A   1      -9.032   2.517 122.894  0.00  0.00    +0.042 C 
BRANCH  17  18
ATOM     18  C   LIG A   1      -8.323   3.169 121.724  0.00  0.00    -0.043 A 
ATOM     19  C   LIG A   1      -6.929   3.356 121.763  0.00  0.00    +0.053 A 
ATOM     20  C   LIG A   1      -6.262   3.988 120.711  0.00  0.00    +0.162 A 
ATOM     21  C   LIG A   1      -7.007   4.438 119.615  0.00  0.00    +0.159 A 
ATOM     22  C   LIG A   1      -8.382   4.268 119.555  0.00  0.00    +0.049 A 
ATOM     23  C   LIG A   1      -9.042   3.635 120.611  0.00  0.00    +0.007 A 
BRANCH  21  24
ATOM     24  O   LIG A   1      -6.384   5.067 118.570  0.00  0.00    -0.503 OA
ATOM     25  H   LIG A   1      -5.902   4.356 118.103  0.00  0.00    +0.292 HD
ENDBRANCH  21  24
BRANCH  20  26
ATOM     26  O   LIG A   1      -4.914   4.231 120.636  0.00  0.00    -0.491 OA
ATOM     27  C   LIG A   1      -4.346   4.977 121.706  0.00  0.00    +0.277 C 
ENDBRANCH  20  26
ENDBRANCH  17  18
ENDBRANCH  16  17
ENDBRANCH   1  16
TORSDOF 16
ENDMDL
MODEL 3
REMARK VINA RESULT:      -6.3      3.282      4.816
REMARK  Name = NuBBE_1505
REMARK  18 active torsions:
REMARK  status: ('A' for Active; 'I' for Inactive)
REMARK    1  A    between atoms: C_1  and  C_2
REMARK    2  A    between atoms: C_1  and  C_18
REMARK    3  A    between atoms: C_2  and  C_3
REMARK    4  A    between atoms: C_3  and  C_5
REMARK    5  A    between atoms: C_5  and  C_6
REMARK    6  A    between atoms: C_6  and  C_8
REMARK    7  A    between atoms: C_6  and  O_17
REMARK    8  A    between atoms: C_8  and  C_9
REMARK    9  A    between atoms: C_9  and  C_10
REMARK   10  A    between atoms: C_10  and  C_11
REMARK   11  A    between atoms: C_11  and  C_12
REMARK   12  A    between atoms: C_12  and  C_13
REMARK   13  A    between atoms: C_13  and  C_14
REMARK   14  A    between atoms: C_14  and  C_15
REMARK   15  A    between atoms: C_15  and  C_16
REMARK   16  A    between atoms: C_20  and  O_21
REMARK   17  A    between atoms: O_21  and  C_22
REMARK   18  A    between atoms: C_23  and  O_26
REMARK                            x       y       z     vdW  Elec       q    Type
REMARK                         _______ _______ _______ _____ _____    ______ ____
ROOT
ATOM      1  C   LIG A   1      -6.851  -2.297 123.439  0.00  0.00    +0.136 C 
ATOM      2  O   LIG A   1      -7.084  -1.920 122.295  0.00  0.00    -0.297 OA
ENDROOT
BRANCH   1   3
ATOM      3  C   LIG A   1      -7.753  -3.313 124.137  0.00  0.00    +0.105 C 
BRANCH   3   4
ATOM      4  C   LIG A   1      -9.164  -2.772 124.387  0.00  0.00    +0.122 C 
BRANCH   4   5
ATOM      5  O   LIG A   1     -10.063  -3.403 123.481  0.00  0.00    -0.391 OA
ATOM      6  H   LIG A   1     -10.697  -3.915 124.015  0.00  0.00    +0.210 HD
ENDBRANCH   4   5
BRANCH   4   7
ATOM      7  C   LIG A   1      -9.613  -3.053 125.837  0.00  0.00    +0.032 C 
BRANCH   7   8
ATOM      8  C   LIG A   1      -8.481  -3.521 126.769  0.00  0.00    +0.002 C 
BRANCH   8   9
ATOM      9  C   LIG A   1      -8.951  -3.806 128.206  0.00  0.00    +0.000 C 
BRANCH   9  10
ATOM     10  C   LIG A   1      -7.953  -3.372 129.285  0.00  0.00    -0.000 C 
BRANCH  10  11
ATOM     11  C   LIG A   1      -7.045  -2.216 128.854  0.00  0.00    -0.000 C 
BRANCH  11  12
ATOM     12  C   LIG A   1      -7.624  -0.819 129.117  0.00  0.00    -0.000 C 
BRANCH  12  13
ATOM     13  C   LIG A   1      -6.582   0.297 128.966  0.00  0.00    -0.000 C 
BRANCH  13  14
ATOM     14  C   LIG A   1      -7.221   1.689 128.943  0.00  0.00    -0.003 C 
ATOM     15  C   LIG A   1      -8.588   1.689 128.281  0.00  0.00    +0.004 C 
ENDBRANCH  13  14
ENDBRANCH  12  13
ENDBRANCH  11  12
ENDBRANCH  10  11
ENDBRANCH   9  10
ENDBRANCH   8   9
ENDBRANCH   7   8
ENDBRANCH   4   7
ENDBRANCH   3   4
ENDBRANCH   1   3
BRANCH   1  16
ATOM     16  C   LIG A   1      -5.669  -1.753 124.232  0.00  0.00    +0.079 C 
BRANCH  16  17
ATOM     17  C   LIG A   1      -6.137  -1.051 125.504  0.00  0.00    +0.042 C 
BRANCH  17  18
ATOM     18  C   LIG A   1      -6.702   0.333 125.258  0.00  0.00    -0.043 A 
ATOM     19  C   LIG A   1      -8.025   0.480 124.801  0.00  0.00    +0.053 A 
ATOM     20  C   LIG A   1      -8.552   1.746 124.532  0.00  0.00    +0.162 A 
ATOM     21  C   LIG A   1      -7.739   2.868 124.722  0.00  0.00    +0.159 A 
ATOM     22  C   LIG A   1      -6.431   2.748 125.169  0.00  0.00    +0.049 A 
ATOM     23  C   LIG A   1      -5.911   1.480 125.435  0.00  0.00    +0.007 A 
BRANCH  21  24
ATOM     24  O   LIG A   1      -8.224   4.122 124.463  0.00  0.00    -0.503 OA
ATOM     25  H   LIG A   1      -7.795   4.698 125.126  0.00  0.00    +0.292 HD
ENDBRANCH  21  24
BRANCH  20  26
ATOM     26  O   LIG A   1      -9.819   2.016 124.081  0.00  0.00    -0.491 OA
ATOM     27  C   LIG A   1     -10.309   1.184 123.036  0.00  0.00    +0.277 C 
ENDBRANCH  20  26
ENDBRANCH  17  18
ENDBRANCH  16  17
ENDBRANCH   1  16
TORSDOF 16
ENDMDL
MODEL 4
REMARK VINA RESULT:      -6.2      2.704      8.560
REMARK  Name = NuBBE_1505
REMARK  18 active torsions:
REMARK  status: ('A' for Active; 'I' for Inactive)
REMARK    1  A    between atoms: C_1  and  C_2
REMARK    2  A    between atoms: C_1  and  C_18
REMARK    3  A    between atoms: C_2  and  C_3
REMARK    4  A    between atoms: C_3  and  C_5
REMARK    5  A    between atoms: C_5  and  C_6
REMARK    6  A    between atoms: C_6  and  C_8
REMARK    7  A    between atoms: C_6  and  O_17
REMARK    8  A    between atoms: C_8  and  C_9
REMARK    9  A    between atoms: C_9  and  C_10
REMARK   10  A    between atoms: C_10  and  C_11
REMARK   11  A    between atoms: C_11  and  C_12
REMARK   12  A    between atoms: C_12  and  C_13
REMARK   13  A    between atoms: C_13  and  C_14
REMARK   14  A    between atoms: C_14  and  C_15
REMARK   15  A    between atoms: C_15  and  C_16
REMARK   16  A    between atoms: C_20  and  O_21
REMARK   17  A    between atoms: O_21  and  C_22
REMARK   18  A    between atoms: C_23  and  O_26
REMARK                            x       y       z     vdW  Elec       q    Type
REMARK                         _______ _______ _______ _____ _____    ______ ____
ROOT
ATOM      1  C   LIG A   1      -9.018  -2.943 123.624  0.00  0.00    +0.136 C 
ATOM      2  O   LIG A   1     -10.109  -3.356 123.246  0.00  0.00    -0.297 OA
ENDROOT
BRANCH   1   3
ATOM      3  C   LIG A   1      -8.263  -1.870 122.842  0.00  0.00    +0.105 C 
BRANCH   3   4
ATOM      4  C   LIG A   1      -8.908  -0.487 122.968  0.00  0.00    +0.122 C 
BRANCH   4   5
ATOM      5  O   LIG A   1     -10.290  -0.596 122.638  0.00  0.00    -0.391 OA
ATOM      6  H   LIG A   1     -10.455   0.009 121.893  0.00  0.00    +0.210 HD
ENDBRANCH   4   5
BRANCH   4   7
ATOM      7  C   LIG A   1      -8.764   0.060 124.404  0.00  0.00    +0.032 C 
BRANCH   7   8
ATOM      8  C   LIG A   1      -8.112   1.452 124.486  0.00  0.00    +0.002 C 
BRANCH   8   9
ATOM      9  C   LIG A   1      -7.002   1.668 123.442  0.00  0.00    +0.000 C 
BRANCH   9  10
ATOM     10  C   LIG A   1      -7.115   2.992 122.678  0.00  0.00    -0.000 C 
BRANCH  10  11
ATOM     11  C   LIG A   1      -6.069   4.033 123.091  0.00  0.00    -0.000 C 
BRANCH  11  12
ATOM     12  C   LIG A   1      -4.961   4.267 122.057  0.00  0.00    -0.000 C 
BRANCH  12  13
ATOM     13  C   LIG A   1      -5.359   3.819 120.644  0.00  0.00    -0.000 C 
BRANCH  13  14
ATOM     14  C   LIG A   1      -5.751   4.998 119.749  0.00  0.00    -0.003 C 
ATOM     15  C   LIG A   1      -6.942   4.682 118.862  0.00  0.00    +0.004 C 
ENDBRANCH  13  14
ENDBRANCH  12  13
ENDBRANCH  11  12
ENDBRANCH  10  11
ENDBRANCH   9  10
ENDBRANCH   8   9
ENDBRANCH   7   8
ENDBRANCH   4   7
ENDBRANCH   3   4
ENDBRANCH   1   3
BRANCH   1  16
ATOM     16  C   LIG A   1      -8.346  -3.496 124.875  0.00  0.00    +0.079 C 
BRANCH  16  17
ATOM     17  C   LIG A   1      -9.233  -3.308 126.103  0.00  0.00    +0.042 C 
BRANCH  17  18
ATOM     18  C   LIG A   1      -8.473  -2.860 127.335  0.00  0.00    -0.043 A 
ATOM     19  C   LIG A   1      -7.722  -1.670 127.302  0.00  0.00    +0.053 A 
ATOM     20  C   LIG A   1      -6.984  -1.259 128.415  0.00  0.00    +0.162 A 
ATOM     21  C   LIG A   1      -7.002  -2.054 129.565  0.00  0.00    +0.159 A 
ATOM     22  C   LIG A   1      -7.732  -3.233 129.621  0.00  0.00    +0.049 A 
ATOM     23  C   LIG A   1      -8.466  -3.638 128.504  0.00  0.00    +0.007 A 
BRANCH  21  24
ATOM     24  O   LIG A   1      -6.285  -1.682 130.672  0.00  0.00    -0.503 OA
ATOM     25  H   LIG A   1      -6.191  -0.712 130.594  0.00  0.00    +0.292 HD
ENDBRANCH  21  24
BRANCH  20  26
ATOM     26  O   LIG A   1      -6.214  -0.128 128.503  0.00  0.00    -0.491 OA
ATOM     27  C   LIG A   1      -5.562   0.288 127.309  0.00  0.00    +0.277 C 
ENDBRANCH  20  26
ENDBRANCH  17  18
ENDBRANCH  16  17
ENDBRANCH   1  16
TORSDOF 16
ENDMDL
MODEL 5
REMARK VINA RESULT:      -6.2      1.806      2.687
REMARK  Name = NuBBE_1505
REMARK  18 active torsions:
REMARK  status: ('A' for Active; 'I' for Inactive)
REMARK    1  A    between atoms: C_1  and  C_2
REMARK    2  A    between atoms: C_1  and  C_18
REMARK    3  A    between atoms: C_2  and  C_3
REMARK    4  A    between atoms: C_3  and  C_5
REMARK    5  A    between atoms: C_5  and  C_6
REMARK    6  A    between atoms: C_6  and  C_8
REMARK    7  A    between atoms: C_6  and  O_17
REMARK    8  A    between atoms: C_8  and  C_9
REMARK    9  A    between atoms: C_9  and  C_10
REMARK   10  A    between atoms: C_10  and  C_11
REMARK   11  A    between atoms: C_11  and  C_12
REMARK   12  A    between atoms: C_12  and  C_13
REMARK   13  A    between atoms: C_13  and  C_14
REMARK   14  A    between atoms: C_14  and  C_15
REMARK   15  A    between atoms: C_15  and  C_16
REMARK   16  A    between atoms: C_20  and  O_21
REMARK   17  A    between atoms: O_21  and  C_22
REMARK   18  A    between atoms: C_23  and  O_26
REMARK                            x       y       z     vdW  Elec       q    Type
REMARK                         _______ _______ _______ _____ _____    ______ ____
ROOT
ATOM      1  C   LIG A   1      -9.727   0.527 122.859  0.00  0.00    +0.136 C 
ATOM      2  O   LIG A   1     -10.894   0.222 122.641  0.00  0.00    -0.297 OA
ENDROOT
BRANCH   1   3
ATOM      3  C   LIG A   1      -8.622  -0.528 122.878  0.00  0.00    +0.105 C 
BRANCH   3   4
ATOM      4  C   LIG A   1      -8.586  -1.319 124.189  0.00  0.00    +0.122 C 
BRANCH   4   5
ATOM      5  O   LIG A   1      -9.737  -0.981 124.958  0.00  0.00    -0.391 OA
ATOM      6  H   LIG A   1     -10.440  -1.609 124.713  0.00  0.00    +0.210 HD
ENDBRANCH   4   5
BRANCH   4   7
ATOM      7  C   LIG A   1      -8.577  -2.838 123.917  0.00  0.00    +0.032 C 
BRANCH   7   8
ATOM      8  C   LIG A   1      -7.389  -3.585 124.550  0.00  0.00    +0.002 C 
BRANCH   8   9
ATOM      9  C   LIG A   1      -6.142  -2.702 124.734  0.00  0.00    +0.000 C 
BRANCH   9  10
ATOM     10  C   LIG A   1      -5.689  -2.562 126.191  0.00  0.00    -0.000 C 
BRANCH  10  11
ATOM     11  C   LIG A   1      -5.877  -1.152 126.761  0.00  0.00    -0.000 C 
BRANCH  11  12
ATOM     12  C   LIG A   1      -5.216  -0.039 125.937  0.00  0.00    -0.000 C 
BRANCH  12  13
ATOM     13  C   LIG A   1      -6.217   1.015 125.446  0.00  0.00    -0.000 C 
BRANCH  13  14
ATOM     14  C   LIG A   1      -6.808   1.835 126.596  0.00  0.00    -0.003 C 
ATOM     15  C   LIG A   1      -8.312   1.664 126.718  0.00  0.00    +0.004 C 
ENDBRANCH  13  14
ENDBRANCH  12  13
ENDBRANCH  11  12
ENDBRANCH  10  11
ENDBRANCH   9  10
ENDBRANCH   8   9
ENDBRANCH   7   8
ENDBRANCH   4   7
ENDBRANCH   3   4
ENDBRANCH   1   3
BRANCH   1  16
ATOM     16  C   LIG A   1      -9.320   1.967 123.151  0.00  0.00    +0.079 C 
BRANCH  16  17
ATOM     17  C   LIG A   1      -9.004   2.720 121.862  0.00  0.00    +0.042 C 
BRANCH  17  18
ATOM     18  C   LIG A   1      -7.637   3.374 121.864  0.00  0.00    -0.043 A 
ATOM     19  C   LIG A   1      -7.093   3.864 120.663  0.00  0.00    +0.053 A 
ATOM     20  C   LIG A   1      -5.818   4.437 120.636  0.00  0.00    +0.162 A 
ATOM     21  C   LIG A   1      -5.089   4.512 121.827  0.00  0.00    +0.159 A 
ATOM     22  C   LIG A   1      -5.604   4.033 123.023  0.00  0.00    +0.049 A 
ATOM     23  C   LIG A   1      -6.878   3.461 123.042  0.00  0.00    +0.007 A 
BRANCH  21  24
ATOM     24  O   LIG A   1      -3.835   5.062 121.835  0.00  0.00    -0.503 OA
ATOM     25  H   LIG A   1      -3.374   4.624 122.577  0.00  0.00    +0.292 HD
ENDBRANCH  21  24
BRANCH  20  26
ATOM     26  O   LIG A   1      -5.180   4.943 119.532  0.00  0.00    -0.491 OA
ATOM     27  C   LIG A   1      -5.972   5.733 118.653  0.00  0.00    +0.277 C 
ENDBRANCH  20  26
ENDBRANCH  17  18
ENDBRANCH  16  17
ENDBRANCH   1  16
TORSDOF 16
ENDMDL
MODEL 6
REMARK VINA RESULT:      -6.1      3.899      8.883
REMARK  Name = NuBBE_1505
REMARK  18 active torsions:
REMARK  status: ('A' for Active; 'I' for Inactive)
REMARK    1  A    between atoms: C_1  and  C_2
REMARK    2  A    between atoms: C_1  and  C_18
REMARK    3  A    between atoms: C_2  and  C_3
REMARK    4  A    between atoms: C_3  and  C_5
REMARK    5  A    between atoms: C_5  and  C_6
REMARK    6  A    between atoms: C_6  and  C_8
REMARK    7  A    between atoms: C_6  and  O_17
REMARK    8  A    between atoms: C_8  and  C_9
REMARK    9  A    between atoms: C_9  and  C_10
REMARK   10  A    between atoms: C_10  and  C_11
REMARK   11  A    between atoms: C_11  and  C_12
REMARK   12  A    between atoms: C_12  and  C_13
REMARK   13  A    between atoms: C_13  and  C_14
REMARK   14  A    between atoms: C_14  and  C_15
REMARK   15  A    between atoms: C_15  and  C_16
REMARK   16  A    between atoms: C_20  and  O_21
REMARK   17  A    between atoms: O_21  and  C_22
REMARK   18  A    between atoms: C_23  and  O_26
REMARK                            x       y       z     vdW  Elec       q    Type
REMARK                         _______ _______ _______ _____ _____    ______ ____
ROOT
ATOM      1  C   LIG A   1      -9.078  -3.121 126.010  0.00  0.00    +0.136 C 
ATOM      2  O   LIG A   1      -9.818  -2.164 125.807  0.00  0.00    -0.297 OA
ENDROOT
BRANCH   1   3
ATOM      3  C   LIG A   1      -8.473  -3.914 124.853  0.00  0.00    +0.105 C 
BRANCH   3   4
ATOM      4  C   LIG A   1      -8.645  -3.210 123.504  0.00  0.00    +0.122 C 
BRANCH   4   5
ATOM      5  O   LIG A   1     -10.029  -2.945 123.299  0.00  0.00    -0.391 OA
ATOM      6  H   LIG A   1     -10.527  -3.624 123.789  0.00  0.00    +0.210 HD
ENDBRANCH   4   5
BRANCH   4   7
ATOM      7  C   LIG A   1      -7.856  -1.884 123.470  0.00  0.00    +0.032 C 
BRANCH   7   8
ATOM      8  C   LIG A   1      -6.338  -2.047 123.665  0.00  0.00    +0.002 C 
BRANCH   8   9
ATOM      9  C   LIG A   1      -5.795  -1.291 124.890  0.00  0.00    +0.000 C 
BRANCH   9  10
ATOM     10  C   LIG A   1      -6.763  -0.245 125.454  0.00  0.00    -0.000 C 
BRANCH  10  11
ATOM     11  C   LIG A   1      -6.262   1.197 125.314  0.00  0.00    -0.000 C 
BRANCH  11  12
ATOM     12  C   LIG A   1      -7.068   2.059 124.334  0.00  0.00    -0.000 C 
BRANCH  12  13
ATOM     13  C   LIG A   1      -8.560   1.702 124.315  0.00  0.00    -0.000 C 
BRANCH  13  14
ATOM     14  C   LIG A   1      -9.173   1.841 122.918  0.00  0.00    -0.003 C 
ATOM     15  C   LIG A   1     -10.234   0.790 122.642  0.00  0.00    +0.004 C 
ENDBRANCH  13  14
ENDBRANCH  12  13
ENDBRANCH  11  12
ENDBRANCH  10  11
ENDBRANCH   9  10
ENDBRANCH   8   9
ENDBRANCH   7   8
ENDBRANCH   4   7
ENDBRANCH   3   4
ENDBRANCH   1   3
BRANCH   1  16
ATOM     16  C   LIG A   1      -8.747  -3.587 127.423  0.00  0.00    +0.079 C 
BRANCH  16  17
ATOM     17  C   LIG A   1      -8.102  -2.466 128.233  0.00  0.00    +0.042 C 
BRANCH  17  18
ATOM     18  C   LIG A   1      -6.767  -2.849 128.839  0.00  0.00    -0.043 A 
ATOM     19  C   LIG A   1      -6.717  -3.773 129.899  0.00  0.00    +0.053 A 
ATOM     20  C   LIG A   1      -5.499  -4.111 130.496  0.00  0.00    +0.162 A 
ATOM     21  C   LIG A   1      -4.328  -3.511 130.023  0.00  0.00    +0.159 A 
ATOM     22  C   LIG A   1      -4.353  -2.594 128.982  0.00  0.00    +0.049 A 
ATOM     23  C   LIG A   1      -5.573  -2.261 128.390  0.00  0.00    +0.007 A 
BRANCH  21  24
ATOM     24  O   LIG A   1      -3.120  -3.816 130.590  0.00  0.00    -0.503 OA
ATOM     25  H   LIG A   1      -2.540  -4.044 129.837  0.00  0.00    +0.292 HD
ENDBRANCH  21  24
BRANCH  20  26
ATOM     26  O   LIG A   1      -5.323  -4.991 131.534  0.00  0.00    -0.491 OA
ATOM     27  C   LIG A   1      -5.746  -4.546 132.818  0.00  0.00    +0.277 C 
ENDBRANCH  20  26
ENDBRANCH  17  18
ENDBRANCH  16  17
ENDBRANCH   1  16
TORSDOF 16
ENDMDL
MODEL 7
REMARK VINA RESULT:      -6.1      2.770      4.958
REMARK  Name = NuBBE_1505
REMARK  18 active torsions:
REMARK  status: ('A' for Active; 'I' for Inactive)
REMARK    1  A    between atoms: C_1  and  C_2
REMARK    2  A    between atoms: C_1  and  C_18
REMARK    3  A    between atoms: C_2  and  C_3
REMARK    4  A    between atoms: C_3  and  C_5
REMARK    5  A    between atoms: C_5  and  C_6
REMARK    6  A    between atoms: C_6  and  C_8
REMARK    7  A    between atoms: C_6  and  O_17
REMARK    8  A    between atoms: C_8  and  C_9
REMARK    9  A    between atoms: C_9  and  C_10
REMARK   10  A    between atoms: C_10  and  C_11
REMARK   11  A    between atoms: C_11  and  C_12
REMARK   12  A    between atoms: C_12  and  C_13
REMARK   13  A    between atoms: C_13  and  C_14
REMARK   14  A    between atoms: C_14  and  C_15
REMARK   15  A    between atoms: C_15  and  C_16
REMARK   16  A    between atoms: C_20  and  O_21
REMARK   17  A    between atoms: O_21  and  C_22
REMARK   18  A    between atoms: C_23  and  O_26
REMARK                            x       y       z     vdW  Elec       q    Type
REMARK                         _______ _______ _______ _____ _____    ______ ____
ROOT
ATOM      1  C   LIG A   1      -6.889  -1.639 127.926  0.00  0.00    +0.136 C 
ATOM      2  O   LIG A   1      -6.170  -2.586 128.223  0.00  0.00    -0.297 OA
ENDROOT
BRANCH   1   3
ATOM      3  C   LIG A   1      -8.293  -1.855 127.362  0.00  0.00    +0.105 C 
BRANCH   3   4
ATOM      4  C   LIG A   1      -8.482  -3.258 126.779  0.00  0.00    +0.122 C 
BRANCH   4   5
ATOM      5  O   LIG A   1      -8.781  -4.159 127.842  0.00  0.00    -0.391 OA
ATOM      6  H   LIG A   1      -9.540  -3.788 128.327  0.00  0.00    +0.210 HD
ENDBRANCH   4   5
BRANCH   4   7
ATOM      7  C   LIG A   1      -9.631  -3.277 125.749  0.00  0.00    +0.032 C 
BRANCH   7   8
ATOM      8  C   LIG A   1      -9.164  -3.352 124.284  0.00  0.00    +0.002 C 
BRANCH   8   9
ATOM      9  C   LIG A   1      -8.936  -1.971 123.645  0.00  0.00    +0.000 C 
BRANCH   9  10
ATOM     10  C   LIG A   1      -7.994  -1.993 122.436  0.00  0.00    -0.000 C 
BRANCH  10  11
ATOM     11  C   LIG A   1      -6.595  -1.442 122.735  0.00  0.00    -0.000 C 
BRANCH  11  12
ATOM     12  C   LIG A   1      -6.217  -1.439 124.222  0.00  0.00    -0.000 C 
BRANCH  12  13
ATOM     13  C   LIG A   1      -5.310  -2.615 124.608  0.00  0.00    -0.000 C 
BRANCH  13  14
ATOM     14  C   LIG A   1      -4.694  -3.301 123.385  0.00  0.00    -0.003 C 
ATOM     15  C   LIG A   1      -4.384  -4.766 123.636  0.00  0.00    +0.004 C 
ENDBRANCH  13  14
ENDBRANCH  12  13
ENDBRANCH  11  12
ENDBRANCH  10  11
ENDBRANCH   9  10
ENDBRANCH   8   9
ENDBRANCH   7   8
ENDBRANCH   4   7
ENDBRANCH   3   4
ENDBRANCH   1   3
BRANCH   1  16
ATOM     16  C   LIG A   1      -6.413  -0.199 128.076  0.00  0.00    +0.079 C 
BRANCH  16  17
ATOM     17  C   LIG A   1      -7.517   0.787 127.702  0.00  0.00    +0.042 C 
BRANCH  17  18
ATOM     18  C   LIG A   1      -7.335   1.407 126.332  0.00  0.00    -0.043 A 
ATOM     19  C   LIG A   1      -8.346   1.275 125.362  0.00  0.00    +0.053 A 
ATOM     20  C   LIG A   1      -8.182   1.807 124.080  0.00  0.00    +0.162 A 
ATOM     21  C   LIG A   1      -6.991   2.473 123.776  0.00  0.00    +0.159 A 
ATOM     22  C   LIG A   1      -5.978   2.614 124.714  0.00  0.00    +0.049 A 
ATOM     23  C   LIG A   1      -6.149   2.079 125.993  0.00  0.00    +0.007 A 
BRANCH  21  24
ATOM     24  O   LIG A   1      -6.796   3.002 122.528  0.00  0.00    -0.503 OA
ATOM     25  H   LIG A   1      -7.687   3.024 122.124  0.00  0.00    +0.292 HD
ENDBRANCH  21  24
BRANCH  20  26
ATOM     26  O   LIG A   1      -9.088   1.739 123.053  0.00  0.00    -0.491 OA
ATOM     27  C   LIG A   1     -10.401   1.311 123.396  0.00  0.00    +0.277 C 
ENDBRANCH  20  26
ENDBRANCH  17  18
ENDBRANCH  16  17
ENDBRANCH   1  16
TORSDOF 16
ENDMDL
MODEL 8
REMARK VINA RESULT:      -6.0      2.805      5.286
REMARK  Name = NuBBE_1505
REMARK  18 active torsions:
REMARK  status: ('A' for Active; 'I' for Inactive)
REMARK    1  A    between atoms: C_1  and  C_2
REMARK    2  A    between atoms: C_1  and  C_18
REMARK    3  A    between atoms: C_2  and  C_3
REMARK    4  A    between atoms: C_3  and  C_5
REMARK    5  A    between atoms: C_5  and  C_6
REMARK    6  A    between atoms: C_6  and  C_8
REMARK    7  A    between atoms: C_6  and  O_17
REMARK    8  A    between atoms: C_8  and  C_9
REMARK    9  A    between atoms: C_9  and  C_10
REMARK   10  A    between atoms: C_10  and  C_11
REMARK   11  A    between atoms: C_11  and  C_12
REMARK   12  A    between atoms: C_12  and  C_13
REMARK   13  A    between atoms: C_13  and  C_14
REMARK   14  A    between atoms: C_14  and  C_15
REMARK   15  A    between atoms: C_15  and  C_16
REMARK   16  A    between atoms: C_20  and  O_21
REMARK   17  A    between atoms: O_21  and  C_22
REMARK   18  A    between atoms: C_23  and  O_26
REMARK                            x       y       z     vdW  Elec       q    Type
REMARK                         _______ _______ _______ _____ _____    ______ ____
ROOT
ATOM      1  C   LIG A   1      -5.587  -0.827 127.898  0.00  0.00    +0.136 C 
ATOM      2  O   LIG A   1      -5.036  -0.172 128.776  0.00  0.00    -0.297 OA
ENDROOT
BRANCH   1   3
ATOM      3  C   LIG A   1      -5.845  -2.323 128.068  0.00  0.00    +0.105 C 
BRANCH   3   4
ATOM      4  C   LIG A   1      -6.920  -2.617 129.118  0.00  0.00    +0.122 C 
BRANCH   4   5
ATOM      5  O   LIG A   1      -7.105  -1.456 129.922  0.00  0.00    -0.391 OA
ATOM      6  H   LIG A   1      -6.414  -1.470 130.609  0.00  0.00    +0.210 HD
ENDBRANCH   4   5
BRANCH   4   7
ATOM      7  C   LIG A   1      -8.257  -2.996 128.447  0.00  0.00    +0.032 C 
BRANCH   7   8
ATOM      8  C   LIG A   1      -8.159  -3.223 126.928  0.00  0.00    +0.002 C 
BRANCH   8   9
ATOM      9  C   LIG A   1      -8.996  -2.225 126.107  0.00  0.00    +0.000 C 
BRANCH   9  10
ATOM     10  C   LIG A   1      -8.986  -2.499 124.599  0.00  0.00    -0.000 C 
BRANCH  10  11
ATOM     11  C   LIG A   1      -7.804  -3.357 124.136  0.00  0.00    -0.000 C 
BRANCH  11  12
ATOM     12  C   LIG A   1      -6.636  -2.563 123.537  0.00  0.00    -0.000 C 
BRANCH  12  13
ATOM     13  C   LIG A   1      -5.319  -2.775 124.294  0.00  0.00    -0.000 C 
BRANCH  13  14
ATOM     14  C   LIG A   1      -4.256  -3.461 123.430  0.00  0.00    -0.003 C 
ATOM     15  C   LIG A   1      -4.366  -4.975 123.469  0.00  0.00    +0.004 C 
ENDBRANCH  13  14
ENDBRANCH  12  13
ENDBRANCH  11  12
ENDBRANCH  10  11
ENDBRANCH   9  10
ENDBRANCH   8   9
ENDBRANCH   7   8
ENDBRANCH   4   7
ENDBRANCH   3   4
ENDBRANCH   1   3
BRANCH   1  16
ATOM     16  C   LIG A   1      -6.018  -0.191 126.581  0.00  0.00    +0.079 C 
BRANCH  16  17
ATOM     17  C   LIG A   1      -7.125   0.835 126.802  0.00  0.00    +0.042 C 
BRANCH  17  18
ATOM     18  C   LIG A   1      -7.525   1.575 125.542  0.00  0.00    -0.043 A 
ATOM     19  C   LIG A   1      -6.711   2.613 125.050  0.00  0.00    +0.053 A 
ATOM     20  C   LIG A   1      -7.081   3.333 123.911  0.00  0.00    +0.162 A 
ATOM     21  C   LIG A   1      -8.279   3.006 123.268  0.00  0.00    +0.159 A 
ATOM     22  C   LIG A   1      -9.099   1.990 123.736  0.00  0.00    +0.049 A 
ATOM     23  C   LIG A   1      -8.723   1.275 124.875  0.00  0.00    +0.007 A 
BRANCH  21  24
ATOM     24  O   LIG A   1      -8.672   3.696 122.152  0.00  0.00    -0.503 OA
ATOM     25  H   LIG A   1      -9.199   3.055 121.635  0.00  0.00    +0.292 HD
ENDBRANCH  21  24
BRANCH  20  26
ATOM     26  O   LIG A   1      -6.377   4.363 123.340  0.00  0.00    -0.491 OA
ATOM     27  C   LIG A   1      -5.402   4.001 122.369  0.00  0.00    +0.277 C 
ENDBRANCH  20  26
ENDBRANCH  17  18
ENDBRANCH  16  17
ENDBRANCH   1  16
TORSDOF 16
ENDMDL
MODEL 9
REMARK VINA RESULT:      -6.0      3.337      5.952
REMARK  Name = NuBBE_1505
REMARK  18 active torsions:
REMARK  status: ('A' for Active; 'I' for Inactive)
REMARK    1  A    between atoms: C_1  and  C_2
REMARK    2  A    between atoms: C_1  and  C_18
REMARK    3  A    between atoms: C_2  and  C_3
REMARK    4  A    between atoms: C_3  and  C_5
REMARK    5  A    between atoms: C_5  and  C_6
REMARK    6  A    between atoms: C_6  and  C_8
REMARK    7  A    between atoms: C_6  and  O_17
REMARK    8  A    between atoms: C_8  and  C_9
REMARK    9  A    between atoms: C_9  and  C_10
REMARK   10  A    between atoms: C_10  and  C_11
REMARK   11  A    between atoms: C_11  and  C_12
REMARK   12  A    between atoms: C_12  and  C_13
REMARK   13  A    between atoms: C_13  and  C_14
REMARK   14  A    between atoms: C_14  and  C_15
REMARK   15  A    between atoms: C_15  and  C_16
REMARK   16  A    between atoms: C_20  and  O_21
REMARK   17  A    between atoms: O_21  and  C_22
REMARK   18  A    between atoms: C_23  and  O_26
REMARK                            x       y       z     vdW  Elec       q    Type
REMARK                         _______ _______ _______ _____ _____    ______ ____
ROOT
ATOM      1  C   LIG A   1      -5.589  -1.078 128.277  0.00  0.00    +0.136 C 
ATOM      2  O   LIG A   1      -4.896  -1.967 127.795  0.00  0.00    -0.297 OA
ENDROOT
BRANCH   1   3
ATOM      3  C   LIG A   1      -6.481  -1.339 129.490  0.00  0.00    +0.105 C 
BRANCH   3   4
ATOM      4  C   LIG A   1      -6.213  -2.702 130.135  0.00  0.00    +0.122 C 
BRANCH   4   5
ATOM      5  O   LIG A   1      -6.330  -2.570 131.548  0.00  0.00    -0.391 OA
ATOM      6  H   LIG A   1      -6.097  -1.651 131.771  0.00  0.00    +0.210 HD
ENDBRANCH   4   5
BRANCH   4   7
ATOM      7  C   LIG A   1      -7.220  -3.758 129.631  0.00  0.00    +0.032 C 
BRANCH   7   8
ATOM      8  C   LIG A   1      -8.476  -3.165 128.966  0.00  0.00    +0.002 C 
BRANCH   8   9
ATOM      9  C   LIG A   1      -8.681  -3.642 127.517  0.00  0.00    +0.000 C 
BRANCH   9  10
ATOM     10  C   LIG A   1      -8.480  -2.544 126.467  0.00  0.00    -0.000 C 
BRANCH  10  11
ATOM     11  C   LIG A   1      -8.694  -3.024 125.027  0.00  0.00    -0.000 C 
BRANCH  11  12
ATOM     12  C   LIG A   1      -7.509  -3.795 124.431  0.00  0.00    -0.000 C 
BRANCH  12  13
ATOM     13  C   LIG A   1      -6.154  -3.158 124.764  0.00  0.00    -0.000 C 
BRANCH  13  14
ATOM     14  C   LIG A   1      -5.172  -3.233 123.592  0.00  0.00    -0.003 C 
ATOM     15  C   LIG A   1      -4.295  -4.472 123.646  0.00  0.00    +0.004 C 
ENDBRANCH  13  14
ENDBRANCH  12  13
ENDBRANCH  11  12
ENDBRANCH  10  11
ENDBRANCH   9  10
ENDBRANCH   8   9
ENDBRANCH   7   8
ENDBRANCH   4   7
ENDBRANCH   3   4
ENDBRANCH   1   3
BRANCH   1  16
ATOM     16  C   LIG A   1      -5.621   0.323 127.678  0.00  0.00    +0.079 C 
BRANCH  16  17
ATOM     17  C   LIG A   1      -5.288   0.290 126.189  0.00  0.00    +0.042 C 
BRANCH  17  18
ATOM     18  C   LIG A   1      -6.397   0.830 125.309  0.00  0.00    -0.043 A 
ATOM     19  C   LIG A   1      -7.034   2.039 125.645  0.00  0.00    +0.053 A 
ATOM     20  C   LIG A   1      -8.085   2.533 124.867  0.00  0.00    +0.162 A 
ATOM     21  C   LIG A   1      -8.496   1.803 123.748  0.00  0.00    +0.159 A 
ATOM     22  C   LIG A   1      -7.886   0.607 123.399  0.00  0.00    +0.049 A 
ATOM     23  C   LIG A   1      -6.837   0.118 124.181  0.00  0.00    +0.007 A 
BRANCH  21  24
ATOM     24  O   LIG A   1      -9.526   2.258 122.968  0.00  0.00    -0.503 OA
ATOM     25  H   LIG A   1      -9.714   1.524 122.350  0.00  0.00    +0.292 HD
ENDBRANCH  21  24
BRANCH  20  26
ATOM     26  O   LIG A   1      -8.784   3.692 125.093  0.00  0.00    -0.491 OA
ATOM     27  C   LIG A   1      -8.069   4.749 125.721  0.00  0.00    +0.277 C 
ENDBRANCH  20  26
ENDBRANCH  17  18
ENDBRANCH  16  17
ENDBRANCH   1  16
TORSDOF 16
ENDMDL
