MODEL 1
REMARK VINA RESULT:      -7.5      0.000      0.000
REMARK  Name = NuBBE_2479
REMARK  9 active torsions:
REMARK  status: ('A' for Active; 'I' for Inactive)
REMARK    1  A    between atoms: C_1  and  C_2
REMARK    2  A    between atoms: C_4  and  C_19
REMARK    3  A    between atoms: C_10  and  O_17
REMARK    4  A    between atoms: C_11  and  O_13
REMARK    5  A    between atoms: O_13  and  C_14
REMARK    6  A    between atoms: C_14  and  C_15
REMARK    7  A    between atoms: O_17  and  C_18
REMARK    8  A    between atoms: C_23  and  O_25
REMARK    9  A    between atoms: O_25  and  C_26
REMARK                            x       y       z     vdW  Elec       q    Type
REMARK                         _______ _______ _______ _____ _____    ______ ____
ROOT
ATOM      1  C   LIG A   1      -9.833   0.404 122.638  0.00  0.00    +0.016 C 
ATOM      2  C   LIG A   1      -9.882   0.894 124.082  0.00  0.00    +0.065 C 
ATOM      3  C   LIG A   1      -9.301   2.278 124.494  0.00  0.00    +0.211 C 
ATOM      4  O   LIG A   1      -8.834   2.162 125.882  0.00  0.00    -0.483 OA
ATOM      5  C   LIG A   1      -8.655   0.814 126.082  0.00  0.00    +0.129 A 
ATOM      6  C   LIG A   1      -9.159   0.035 125.056  0.00  0.00    +0.005 A 
ATOM      7  C   LIG A   1      -9.013  -1.336 125.075  0.00  0.00    +0.057 A 
ATOM      8  C   LIG A   1      -8.382  -1.934 126.168  0.00  0.00    +0.162 A 
ATOM      9  C   LIG A   1      -7.882  -1.138 127.237  0.00  0.00    +0.166 A 
ATOM     10  C   LIG A   1      -8.027   0.257 127.184  0.00  0.00    +0.095 A 
ENDROOT
BRANCH   3  11
ATOM     11  C   LIG A   1      -8.179   2.903 123.680  0.00  0.00    +0.000 A 
ATOM     12  C   LIG A   1      -8.319   3.065 122.288  0.00  0.00    +0.057 A 
ATOM     13  C   LIG A   1      -7.269   3.626 121.582  0.00  0.00    +0.170 A 
ATOM     14  C   LIG A   1      -6.102   4.027 122.197  0.00  0.00    +0.207 A 
ATOM     15  C   LIG A   1      -5.939   3.913 123.560  0.00  0.00    +0.166 A 
ATOM     16  C   LIG A   1      -7.001   3.379 124.294  0.00  0.00    +0.057 A 
ATOM     17  O   LIG A   1      -5.200   4.512 121.302  0.00  0.00    -0.449 OA
ATOM     18  C   LIG A   1      -5.934   4.417 120.074  0.00  0.00    +0.467 C 
ATOM     19  O   LIG A   1      -7.244   3.838 120.236  0.00  0.00    -0.453 OA
BRANCH  15  20
ATOM     20  O   LIG A   1      -4.829   4.213 124.292  0.00  0.00    -0.491 OA
ATOM     21  C   LIG A   1      -4.830   3.731 125.628  0.00  0.00    +0.277 C 
ENDBRANCH  15  20
ENDBRANCH   3  11
BRANCH   8  22
ATOM     22  O   LIG A   1      -8.340  -3.300 126.031  0.00  0.00    -0.491 OA
ATOM     23  C   LIG A   1      -8.254  -3.843 124.724  0.00  0.00    +0.277 C 
ENDBRANCH   8  22
BRANCH   9  24
ATOM     24  O   LIG A   1      -7.226  -1.809 128.219  0.00  0.00    -0.484 OA
BRANCH  24  25
ATOM     25  C   LIG A   1      -7.886  -2.290 129.400  0.00  0.00    +0.256 C 
BRANCH  25  26
ATOM     26  C   LIG A   1      -7.366  -3.664 129.679  0.00  0.00    +0.006 C 
ATOM     27  C   LIG A   1      -6.118  -3.899 130.073  0.00  0.00    +0.007 C 
ENDBRANCH  25  26
ENDBRANCH  24  25
ENDBRANCH   9  24
TORSDOF 6
ENDMDL
MODEL 2
REMARK VINA RESULT:      -7.3      1.227      1.581
REMARK  Name = NuBBE_2479
REMARK  9 active torsions:
REMARK  status: ('A' for Active; 'I' for Inactive)
REMARK    1  A    between atoms: C_1  and  C_2
REMARK    2  A    between atoms: C_4  and  C_19
REMARK    3  A    between atoms: C_10  and  O_17
REMARK    4  A    between atoms: C_11  and  O_13
REMARK    5  A    between atoms: O_13  and  C_14
REMARK    6  A    between atoms: C_14  and  C_15
REMARK    7  A    between atoms: O_17  and  C_18
REMARK    8  A    between atoms: C_23  and  O_25
REMARK    9  A    between atoms: O_25  and  C_26
REMARK                            x       y       z     vdW  Elec       q    Type
REMARK                         _______ _______ _______ _____ _____    ______ ____
ROOT
ATOM      1  C   LIG A   1      -9.306  -0.098 123.033  0.00  0.00    +0.016 C 
ATOM      2  C   LIG A   1      -9.622   0.616 124.344  0.00  0.00    +0.065 C 
ATOM      3  C   LIG A   1      -9.301   2.126 124.548  0.00  0.00    +0.211 C 
ATOM      4  O   LIG A   1      -9.019   2.325 125.975  0.00  0.00    -0.483 OA
ATOM      5  C   LIG A   1      -8.683   1.078 126.446  0.00  0.00    +0.129 A 
ATOM      6  C   LIG A   1      -8.928   0.064 125.536  0.00  0.00    +0.005 A 
ATOM      7  C   LIG A   1      -8.596  -1.241 125.831  0.00  0.00    +0.057 A 
ATOM      8  C   LIG A   1      -8.045  -1.535 127.080  0.00  0.00    +0.162 A 
ATOM      9  C   LIG A   1      -7.813  -0.497 128.028  0.00  0.00    +0.166 A 
ATOM     10  C   LIG A   1      -8.142   0.826 127.696  0.00  0.00    +0.095 A 
ENDROOT
BRANCH   3  11
ATOM     11  C   LIG A   1      -8.176   2.776 123.759  0.00  0.00    +0.000 A 
ATOM     12  C   LIG A   1      -8.303   2.967 122.370  0.00  0.00    +0.057 A 
ATOM     13  C   LIG A   1      -7.250   3.550 121.687  0.00  0.00    +0.170 A 
ATOM     14  C   LIG A   1      -6.092   3.946 122.322  0.00  0.00    +0.207 A 
ATOM     15  C   LIG A   1      -5.942   3.804 123.684  0.00  0.00    +0.166 A 
ATOM     16  C   LIG A   1      -7.008   3.246 124.395  0.00  0.00    +0.057 A 
ATOM     17  O   LIG A   1      -5.185   4.457 121.448  0.00  0.00    -0.449 OA
ATOM     18  C   LIG A   1      -5.906   4.383 120.210  0.00  0.00    +0.467 C 
ATOM     19  O   LIG A   1      -7.213   3.792 120.346  0.00  0.00    -0.453 OA
BRANCH  15  20
ATOM     20  O   LIG A   1      -4.842   4.095 124.434  0.00  0.00    -0.491 OA
ATOM     21  C   LIG A   1      -4.853   3.585 125.759  0.00  0.00    +0.277 C 
ENDBRANCH  15  20
ENDBRANCH   3  11
BRANCH   8  22
ATOM     22  O   LIG A   1      -7.795  -2.879 127.210  0.00  0.00    -0.491 OA
ATOM     23  C   LIG A   1      -8.815  -3.705 127.745  0.00  0.00    +0.277 C 
ENDBRANCH   8  22
BRANCH   9  24
ATOM     24  O   LIG A   1      -7.212  -0.876 129.185  0.00  0.00    -0.484 OA
BRANCH  24  25
ATOM     25  C   LIG A   1      -7.026   0.024 130.289  0.00  0.00    +0.256 C 
BRANCH  25  26
ATOM     26  C   LIG A   1      -7.955  -0.402 131.380  0.00  0.00    +0.006 C 
ATOM     27  C   LIG A   1      -9.101   0.220 131.640  0.00  0.00    +0.007 C 
ENDBRANCH  25  26
ENDBRANCH  24  25
ENDBRANCH   9  24
TORSDOF 6
ENDMDL
MODEL 3
REMARK VINA RESULT:      -7.1      5.125      9.666
REMARK  Name = NuBBE_2479
REMARK  9 active torsions:
REMARK  status: ('A' for Active; 'I' for Inactive)
REMARK    1  A    between atoms: C_1  and  C_2
REMARK    2  A    between atoms: C_4  and  C_19
REMARK    3  A    between atoms: C_10  and  O_17
REMARK    4  A    between atoms: C_11  and  O_13
REMARK    5  A    between atoms: O_13  and  C_14
REMARK    6  A    between atoms: C_14  and  C_15
REMARK    7  A    between atoms: O_17  and  C_18
REMARK    8  A    between atoms: C_23  and  O_25
REMARK    9  A    between atoms: O_25  and  C_26
REMARK                            x       y       z     vdW  Elec       q    Type
REMARK                         _______ _______ _______ _____ _____    ______ ____
ROOT
ATOM      1  C   LIG A   1      -7.008   2.667 133.460  0.00  0.00    +0.016 C 
ATOM      2  C   LIG A   1      -8.430   2.963 132.992  0.00  0.00    +0.065 C 
ATOM      3  C   LIG A   1      -9.306   1.872 132.309  0.00  0.00    +0.211 C 
ATOM      4  O   LIG A   1     -10.211   2.557 131.376  0.00  0.00    -0.483 OA
ATOM      5  C   LIG A   1      -9.611   3.769 131.130  0.00  0.00    +0.129 A 
ATOM      6  C   LIG A   1      -8.539   4.030 131.964  0.00  0.00    +0.005 A 
ATOM      7  C   LIG A   1      -7.793   5.180 131.813  0.00  0.00    +0.057 A 
ATOM      8  C   LIG A   1      -8.160   6.102 130.830  0.00  0.00    +0.162 A 
ATOM      9  C   LIG A   1      -9.278   5.848 129.986  0.00  0.00    +0.166 A 
ATOM     10  C   LIG A   1     -10.009   4.660 130.147  0.00  0.00    +0.095 A 
ENDROOT
BRANCH   3  11
ATOM     11  C   LIG A   1      -8.645   0.728 131.556  0.00  0.00    +0.000 A 
ATOM     12  C   LIG A   1      -8.369  -0.486 132.212  0.00  0.00    +0.057 A 
ATOM     13  C   LIG A   1      -7.754  -1.497 131.494  0.00  0.00    +0.170 A 
ATOM     14  C   LIG A   1      -7.406  -1.349 130.168  0.00  0.00    +0.207 A 
ATOM     15  C   LIG A   1      -7.687  -0.187 129.483  0.00  0.00    +0.166 A 
ATOM     16  C   LIG A   1      -8.337   0.833 130.183  0.00  0.00    +0.057 A 
ATOM     17  O   LIG A   1      -6.782  -2.455 129.682  0.00  0.00    -0.449 OA
ATOM     18  C   LIG A   1      -6.812  -3.326 130.822  0.00  0.00    +0.467 C 
ATOM     19  O   LIG A   1      -7.411  -2.722 131.985  0.00  0.00    -0.453 OA
BRANCH  15  20
ATOM     20  O   LIG A   1      -7.355   0.120 128.198  0.00  0.00    -0.491 OA
ATOM     21  C   LIG A   1      -8.219   1.042 127.548  0.00  0.00    +0.277 C 
ENDBRANCH  15  20
ENDBRANCH   3  11
BRANCH   8  22
ATOM     22  O   LIG A   1      -7.324   7.191 130.833  0.00  0.00    -0.491 OA
ATOM     23  C   LIG A   1      -5.948   6.983 131.102  0.00  0.00    +0.277 C 
ENDBRANCH   8  22
BRANCH   9  24
ATOM     24  O   LIG A   1      -9.512   6.772 129.018  0.00  0.00    -0.484 OA
BRANCH  24  25
ATOM     25  C   LIG A   1     -10.480   7.821 129.170  0.00  0.00    +0.256 C 
BRANCH  25  26
ATOM     26  C   LIG A   1     -10.748   8.388 127.813  0.00  0.00    +0.006 C 
ATOM     27  C   LIG A   1     -10.975   7.630 126.744  0.00  0.00    +0.007 C 
ENDBRANCH  25  26
ENDBRANCH  24  25
ENDBRANCH   9  24
TORSDOF 6
ENDMDL
MODEL 4
REMARK VINA RESULT:      -7.1      3.577      9.122
REMARK  Name = NuBBE_2479
REMARK  9 active torsions:
REMARK  status: ('A' for Active; 'I' for Inactive)
REMARK    1  A    between atoms: C_1  and  C_2
REMARK    2  A    between atoms: C_4  and  C_19
REMARK    3  A    between atoms: C_10  and  O_17
REMARK    4  A    between atoms: C_11  and  O_13
REMARK    5  A    between atoms: O_13  and  C_14
REMARK    6  A    between atoms: C_14  and  C_15
REMARK    7  A    between atoms: O_17  and  C_18
REMARK    8  A    between atoms: C_23  and  O_25
REMARK    9  A    between atoms: O_25  and  C_26
REMARK                            x       y       z     vdW  Elec       q    Type
REMARK                         _______ _______ _______ _____ _____    ______ ____
ROOT
ATOM      1  C   LIG A   1      -7.258  -0.257 131.054  0.00  0.00    +0.016 C 
ATOM      2  C   LIG A   1      -7.949  -1.353 130.250  0.00  0.00    +0.065 C 
ATOM      3  C   LIG A   1      -7.679  -2.862 130.528  0.00  0.00    +0.211 C 
ATOM      4  O   LIG A   1      -7.847  -3.579 129.258  0.00  0.00    -0.483 OA
ATOM      5  C   LIG A   1      -7.696  -2.617 128.287  0.00  0.00    +0.129 A 
ATOM      6  C   LIG A   1      -7.667  -1.329 128.791  0.00  0.00    +0.005 A 
ATOM      7  C   LIG A   1      -7.467  -0.251 127.955  0.00  0.00    +0.057 A 
ATOM      8  C   LIG A   1      -7.333  -0.472 126.583  0.00  0.00    +0.162 A 
ATOM      9  C   LIG A   1      -7.386  -1.795 126.058  0.00  0.00    +0.166 A 
ATOM     10  C   LIG A   1      -7.571  -2.877 126.932  0.00  0.00    +0.095 A 
ENDROOT
BRANCH   3  11
ATOM     11  C   LIG A   1      -6.354  -3.296 131.133  0.00  0.00    +0.000 A 
ATOM     12  C   LIG A   1      -6.305  -3.801 132.446  0.00  0.00    +0.057 A 
ATOM     13  C   LIG A   1      -5.076  -4.172 132.964  0.00  0.00    +0.170 A 
ATOM     14  C   LIG A   1      -3.910  -4.063 132.237  0.00  0.00    +0.207 A 
ATOM     15  C   LIG A   1      -3.921  -3.602 130.939  0.00  0.00    +0.166 A 
ATOM     16  C   LIG A   1      -5.156  -3.253 130.388  0.00  0.00    +0.057 A 
ATOM     17  O   LIG A   1      -2.826  -4.450 132.960  0.00  0.00    -0.449 OA
ATOM     18  C   LIG A   1      -3.433  -4.854 134.195  0.00  0.00    +0.467 C 
ATOM     19  O   LIG A   1      -4.861  -4.665 134.216  0.00  0.00    -0.453 OA
BRANCH  15  20
ATOM     20  O   LIG A   1      -2.848  -3.389 130.124  0.00  0.00    -0.491 OA
ATOM     21  C   LIG A   1      -2.989  -3.862 128.793  0.00  0.00    +0.277 C 
ENDBRANCH  15  20
ENDBRANCH   3  11
BRANCH   8  22
ATOM     22  O   LIG A   1      -7.160   0.708 125.904  0.00  0.00    -0.491 OA
ATOM     23  C   LIG A   1      -5.870   1.297 125.894  0.00  0.00    +0.277 C 
ENDBRANCH   8  22
BRANCH   9  24
ATOM     24  O   LIG A   1      -7.178  -1.910 124.721  0.00  0.00    -0.484 OA
BRANCH  24  25
ATOM     25  C   LIG A   1      -6.734  -3.131 124.111  0.00  0.00    +0.256 C 
BRANCH  25  26
ATOM     26  C   LIG A   1      -5.277  -2.982 123.810  0.00  0.00    +0.006 C 
ATOM     27  C   LIG A   1      -4.469  -4.019 123.611  0.00  0.00    +0.007 C 
ENDBRANCH  25  26
ENDBRANCH  24  25
ENDBRANCH   9  24
TORSDOF 6
ENDMDL
MODEL 5
REMARK VINA RESULT:      -7.1      6.640      8.947
REMARK  Name = NuBBE_2479
REMARK  9 active torsions:
REMARK  status: ('A' for Active; 'I' for Inactive)
REMARK    1  A    between atoms: C_1  and  C_2
REMARK    2  A    between atoms: C_4  and  C_19
REMARK    3  A    between atoms: C_10  and  O_17
REMARK    4  A    between atoms: C_11  and  O_13
REMARK    5  A    between atoms: O_13  and  C_14
REMARK    6  A    between atoms: C_14  and  C_15
REMARK    7  A    between atoms: O_17  and  C_18
REMARK    8  A    between atoms: C_23  and  O_25
REMARK    9  A    between atoms: O_25  and  C_26
REMARK                            x       y       z     vdW  Elec       q    Type
REMARK                         _______ _______ _______ _____ _____    ______ ____
ROOT
ATOM      1  C   LIG A   1      -9.671   3.369 130.922  0.00  0.00    +0.016 C 
ATOM      2  C   LIG A   1      -8.990   4.406 131.808  0.00  0.00    +0.065 C 
ATOM      3  C   LIG A   1      -9.483   5.883 131.862  0.00  0.00    +0.211 C 
ATOM      4  O   LIG A   1      -8.315   6.725 132.148  0.00  0.00    -0.483 OA
ATOM      5  C   LIG A   1      -7.232   5.963 131.780  0.00  0.00    +0.129 A 
ATOM      6  C   LIG A   1      -7.557   4.648 131.496  0.00  0.00    +0.005 A 
ATOM      7  C   LIG A   1      -6.594   3.763 131.058  0.00  0.00    +0.057 A 
ATOM      8  C   LIG A   1      -5.273   4.201 130.944  0.00  0.00    +0.162 A 
ATOM      9  C   LIG A   1      -4.930   5.547 131.259  0.00  0.00    +0.166 A 
ATOM     10  C   LIG A   1      -5.932   6.433 131.683  0.00  0.00    +0.095 A 
ENDROOT
BRANCH   3  11
ATOM     11  C   LIG A   1     -10.207   6.485 130.669  0.00  0.00    +0.000 A 
ATOM     12  C   LIG A   1      -9.712   6.288 129.366  0.00  0.00    +0.057 A 
ATOM     13  C   LIG A   1     -10.394   6.866 128.309  0.00  0.00    +0.170 A 
ATOM     14  C   LIG A   1     -11.533   7.620 128.494  0.00  0.00    +0.207 A 
ATOM     15  C   LIG A   1     -12.066   7.809 129.750  0.00  0.00    +0.166 A 
ATOM     16  C   LIG A   1     -11.409   7.208 130.826  0.00  0.00    +0.057 A 
ATOM     17  O   LIG A   1     -12.008   8.115 127.320  0.00  0.00    -0.449 OA
ATOM     18  C   LIG A   1     -11.080   7.560 126.378  0.00  0.00    +0.467 C 
ATOM     19  O   LIG A   1     -10.039   6.779 126.996  0.00  0.00    -0.453 OA
BRANCH  15  20
ATOM     20  O   LIG A   1     -13.145   8.570 130.089  0.00  0.00    -0.491 OA
ATOM     21  C   LIG A   1     -12.992   9.968 129.890  0.00  0.00    +0.277 C 
ENDBRANCH  15  20
ENDBRANCH   3  11
BRANCH   8  22
ATOM     22  O   LIG A   1      -4.450   3.189 130.516  0.00  0.00    -0.491 OA
ATOM     23  C   LIG A   1      -4.960   2.259 129.575  0.00  0.00    +0.277 C 
ENDBRANCH   8  22
BRANCH   9  24
ATOM     24  O   LIG A   1      -3.633   5.891 131.050  0.00  0.00    -0.484 OA
BRANCH  24  25
ATOM     25  C   LIG A   1      -3.248   6.938 130.147  0.00  0.00    +0.256 C 
BRANCH  25  26
ATOM     26  C   LIG A   1      -2.273   6.358 129.173  0.00  0.00    +0.006 C 
ATOM     27  C   LIG A   1      -2.577   5.354 128.355  0.00  0.00    +0.007 C 
ENDBRANCH  25  26
ENDBRANCH  24  25
ENDBRANCH   9  24
TORSDOF 6
ENDMDL
MODEL 6
REMARK VINA RESULT:      -7.0      2.858      7.755
REMARK  Name = NuBBE_2479
REMARK  9 active torsions:
REMARK  status: ('A' for Active; 'I' for Inactive)
REMARK    1  A    between atoms: C_1  and  C_2
REMARK    2  A    between atoms: C_4  and  C_19
REMARK    3  A    between atoms: C_10  and  O_17
REMARK    4  A    between atoms: C_11  and  O_13
REMARK    5  A    between atoms: O_13  and  C_14
REMARK    6  A    between atoms: C_14  and  C_15
REMARK    7  A    between atoms: O_17  and  C_18
REMARK    8  A    between atoms: C_23  and  O_25
REMARK    9  A    between atoms: O_25  and  C_26
REMARK                            x       y       z     vdW  Elec       q    Type
REMARK                         _______ _______ _______ _____ _____    ______ ____
ROOT
ATOM      1  C   LIG A   1      -9.036  -3.787 128.630  0.00  0.00    +0.016 C 
ATOM      2  C   LIG A   1      -7.687  -3.330 128.085  0.00  0.00    +0.065 C 
ATOM      3  C   LIG A   1      -6.734  -2.425 128.921  0.00  0.00    +0.211 C 
ATOM      4  O   LIG A   1      -5.969  -1.603 127.975  0.00  0.00    -0.483 OA
ATOM      5  C   LIG A   1      -6.714  -1.607 126.820  0.00  0.00    +0.129 A 
ATOM      6  C   LIG A   1      -7.759  -2.514 126.845  0.00  0.00    +0.005 A 
ATOM      7  C   LIG A   1      -8.637  -2.606 125.786  0.00  0.00    +0.057 A 
ATOM      8  C   LIG A   1      -8.435  -1.798 124.665  0.00  0.00    +0.162 A 
ATOM      9  C   LIG A   1      -7.346  -0.881 124.626  0.00  0.00    +0.166 A 
ATOM     10  C   LIG A   1      -6.478  -0.792 125.725  0.00  0.00    +0.095 A 
ENDROOT
BRANCH   3  11
ATOM     11  C   LIG A   1      -7.305  -1.498 129.982  0.00  0.00    +0.000 A 
ATOM     12  C   LIG A   1      -7.817  -0.237 129.622  0.00  0.00    +0.057 A 
ATOM     13  C   LIG A   1      -8.314   0.581 130.621  0.00  0.00    +0.170 A 
ATOM     14  C   LIG A   1      -8.324   0.200 131.946  0.00  0.00    +0.207 A 
ATOM     15  C   LIG A   1      -7.860  -1.038 132.334  0.00  0.00    +0.166 A 
ATOM     16  C   LIG A   1      -7.383  -1.891 131.336  0.00  0.00    +0.057 A 
ATOM     17  O   LIG A   1      -8.824   1.176 132.750  0.00  0.00    -0.449 OA
ATOM     18  C   LIG A   1      -9.167   2.188 131.793  0.00  0.00    +0.467 C 
ATOM     19  O   LIG A   1      -8.832   1.829 130.438  0.00  0.00    -0.453 OA
BRANCH  15  20
ATOM     20  O   LIG A   1      -7.757  -1.526 133.603  0.00  0.00    -0.491 OA
ATOM     21  C   LIG A   1      -7.807  -2.941 133.719  0.00  0.00    +0.277 C 
ENDBRANCH  15  20
ENDBRANCH   3  11
BRANCH   8  22
ATOM     22  O   LIG A   1      -9.387  -2.033 123.704  0.00  0.00    -0.491 OA
ATOM     23  C   LIG A   1      -9.672  -3.377 123.354  0.00  0.00    +0.277 C 
ENDBRANCH   8  22
BRANCH   9  24
ATOM     24  O   LIG A   1      -7.275  -0.093 123.522  0.00  0.00    -0.484 OA
BRANCH  24  25
ATOM     25  C   LIG A   1      -7.268   1.341 123.595  0.00  0.00    +0.256 C 
BRANCH  25  26
ATOM     26  C   LIG A   1      -8.621   1.776 124.060  0.00  0.00    +0.006 C 
ATOM     27  C   LIG A   1      -9.712   1.674 123.308  0.00  0.00    +0.007 C 
ENDBRANCH  25  26
ENDBRANCH  24  25
ENDBRANCH   9  24
TORSDOF 6
ENDMDL
MODEL 7
REMARK VINA RESULT:      -6.8      3.026      5.532
REMARK  Name = NuBBE_2479
REMARK  9 active torsions:
REMARK  status: ('A' for Active; 'I' for Inactive)
REMARK    1  A    between atoms: C_1  and  C_2
REMARK    2  A    between atoms: C_4  and  C_19
REMARK    3  A    between atoms: C_10  and  O_17
REMARK    4  A    between atoms: C_11  and  O_13
REMARK    5  A    between atoms: O_13  and  C_14
REMARK    6  A    between atoms: C_14  and  C_15
REMARK    7  A    between atoms: O_17  and  C_18
REMARK    8  A    between atoms: C_23  and  O_25
REMARK    9  A    between atoms: O_25  and  C_26
REMARK                            x       y       z     vdW  Elec       q    Type
REMARK                         _______ _______ _______ _____ _____    ______ ____
ROOT
ATOM      1  C   LIG A   1      -5.326   3.946 124.079  0.00  0.00    +0.016 C 
ATOM      2  C   LIG A   1      -6.753   3.855 124.611  0.00  0.00    +0.065 C 
ATOM      3  C   LIG A   1      -7.110   4.278 126.066  0.00  0.00    +0.211 C 
ATOM      4  O   LIG A   1      -8.244   3.452 126.498  0.00  0.00    -0.483 OA
ATOM      5  C   LIG A   1      -8.217   2.355 125.669  0.00  0.00    +0.129 A 
ATOM      6  C   LIG A   1      -7.330   2.485 124.616  0.00  0.00    +0.005 A 
ATOM      7  C   LIG A   1      -7.141   1.452 123.723  0.00  0.00    +0.057 A 
ATOM      8  C   LIG A   1      -7.889   0.282 123.871  0.00  0.00    +0.162 A 
ATOM      9  C   LIG A   1      -8.821   0.154 124.941  0.00  0.00    +0.166 A 
ATOM     10  C   LIG A   1      -8.980   1.213 125.848  0.00  0.00    +0.095 A 
ENDROOT
BRANCH   3  11
ATOM     11  C   LIG A   1      -6.051   4.215 127.156  0.00  0.00    +0.000 A 
ATOM     12  C   LIG A   1      -6.303   3.514 128.350  0.00  0.00    +0.057 A 
ATOM     13  C   LIG A   1      -5.317   3.493 129.321  0.00  0.00    +0.170 A 
ATOM     14  C   LIG A   1      -4.108   4.133 129.155  0.00  0.00    +0.207 A 
ATOM     15  C   LIG A   1      -3.812   4.804 127.988  0.00  0.00    +0.166 A 
ATOM     16  C   LIG A   1      -4.782   4.809 126.983  0.00  0.00    +0.057 A 
ATOM     17  O   LIG A   1      -3.314   4.008 130.251  0.00  0.00    -0.449 OA
ATOM     18  C   LIG A   1      -4.128   3.190 131.103  0.00  0.00    +0.467 C 
ATOM     19  O   LIG A   1      -5.411   2.871 130.531  0.00  0.00    -0.453 OA
BRANCH  15  20
ATOM     20  O   LIG A   1      -2.690   5.524 127.706  0.00  0.00    -0.491 OA
ATOM     21  C   LIG A   1      -2.683   6.859 128.192  0.00  0.00    +0.277 C 
ENDBRANCH  15  20
ENDBRANCH   3  11
BRANCH   8  22
ATOM     22  O   LIG A   1      -7.588  -0.629 122.889  0.00  0.00    -0.491 OA
ATOM     23  C   LIG A   1      -6.406  -1.399 123.024  0.00  0.00    +0.277 C 
ENDBRANCH   8  22
BRANCH   9  24
ATOM     24  O   LIG A   1      -9.449  -1.047 125.038  0.00  0.00    -0.484 OA
BRANCH  24  25
ATOM     25  C   LIG A   1      -8.902  -2.146 125.782  0.00  0.00    +0.256 C 
BRANCH  25  26
ATOM     26  C   LIG A   1      -8.991  -3.364 124.918  0.00  0.00    +0.006 C 
ATOM     27  C   LIG A   1      -9.503  -3.345 123.691  0.00  0.00    +0.007 C 
ENDBRANCH  25  26
ENDBRANCH  24  25
ENDBRANCH   9  24
TORSDOF 6
ENDMDL
MODEL 8
REMARK VINA RESULT:      -6.7      7.212      9.529
REMARK  Name = NuBBE_2479
REMARK  9 active torsions:
REMARK  status: ('A' for Active; 'I' for Inactive)
REMARK    1  A    between atoms: C_1  and  C_2
REMARK    2  A    between atoms: C_4  and  C_19
REMARK    3  A    between atoms: C_10  and  O_17
REMARK    4  A    between atoms: C_11  and  O_13
REMARK    5  A    between atoms: O_13  and  C_14
REMARK    6  A    between atoms: C_14  and  C_15
REMARK    7  A    between atoms: O_17  and  C_18
REMARK    8  A    between atoms: C_23  and  O_25
REMARK    9  A    between atoms: O_25  and  C_26
REMARK                            x       y       z     vdW  Elec       q    Type
REMARK                         _______ _______ _______ _____ _____    ______ ____
ROOT
ATOM      1  C   LIG A   1      -9.390   2.613 132.962  0.00  0.00    +0.016 C 
ATOM      2  C   LIG A   1      -8.659   3.788 133.604  0.00  0.00    +0.065 C 
ATOM      3  C   LIG A   1      -9.082   5.261 133.327  0.00  0.00    +0.211 C 
ATOM      4  O   LIG A   1      -7.876   6.091 133.431  0.00  0.00    -0.483 OA
ATOM      5  C   LIG A   1      -6.830   5.217 133.250  0.00  0.00    +0.129 A 
ATOM      6  C   LIG A   1      -7.217   3.889 133.259  0.00  0.00    +0.005 A 
ATOM      7  C   LIG A   1      -6.298   2.886 133.036  0.00  0.00    +0.057 A 
ATOM      8  C   LIG A   1      -4.958   3.226 132.840  0.00  0.00    +0.162 A 
ATOM      9  C   LIG A   1      -4.551   4.591 132.853  0.00  0.00    +0.166 A 
ATOM     10  C   LIG A   1      -5.510   5.594 133.063  0.00  0.00    +0.095 A 
ENDROOT
BRANCH   3  11
ATOM     11  C   LIG A   1      -9.779   5.618 132.024  0.00  0.00    +0.000 A 
ATOM     12  C   LIG A   1     -11.076   6.167 132.040  0.00  0.00    +0.057 A 
ATOM     13  C   LIG A   1     -11.679   6.464 130.831  0.00  0.00    +0.170 A 
ATOM     14  C   LIG A   1     -11.054   6.242 129.623  0.00  0.00    +0.207 A 
ATOM     15  C   LIG A   1      -9.774   5.735 129.567  0.00  0.00    +0.166 A 
ATOM     16  C   LIG A   1      -9.136   5.458 130.778  0.00  0.00    +0.057 A 
ATOM     17  O   LIG A   1     -11.849   6.574 128.572  0.00  0.00    -0.449 OA
ATOM     18  C   LIG A   1     -13.018   7.069 129.242  0.00  0.00    +0.467 C 
ATOM     19  O   LIG A   1     -12.929   6.987 130.678  0.00  0.00    -0.453 OA
BRANCH  15  20
ATOM     20  O   LIG A   1      -9.057   5.412 128.454  0.00  0.00    -0.491 OA
ATOM     21  C   LIG A   1      -8.162   4.318 128.599  0.00  0.00    +0.277 C 
ENDBRANCH  15  20
ENDBRANCH   3  11
BRANCH   8  22
ATOM     22  O   LIG A   1      -4.183   2.108 132.652  0.00  0.00    -0.491 OA
ATOM     23  C   LIG A   1      -4.825   0.897 132.291  0.00  0.00    +0.277 C 
ENDBRANCH   8  22
BRANCH   9  24
ATOM     24  O   LIG A   1      -3.240   4.821 132.585  0.00  0.00    -0.484 OA
BRANCH  24  25
ATOM     25  C   LIG A   1      -2.455   5.766 133.328  0.00  0.00    +0.256 C 
BRANCH  25  26
ATOM     26  C   LIG A   1      -1.071   5.747 132.761  0.00  0.00    +0.006 C 
ATOM     27  C   LIG A   1      -0.546   6.771 132.095  0.00  0.00    +0.007 C 
ENDBRANCH  25  26
ENDBRANCH  24  25
ENDBRANCH   9  24
TORSDOF 6
ENDMDL
MODEL 9
REMARK VINA RESULT:      -6.7      2.522      4.321
REMARK  Name = NuBBE_2479
REMARK  9 active torsions:
REMARK  status: ('A' for Active; 'I' for Inactive)
REMARK    1  A    between atoms: C_1  and  C_2
REMARK    2  A    between atoms: C_4  and  C_19
REMARK    3  A    between atoms: C_10  and  O_17
REMARK    4  A    between atoms: C_11  and  O_13
REMARK    5  A    between atoms: O_13  and  C_14
REMARK    6  A    between atoms: C_14  and  C_15
REMARK    7  A    between atoms: O_17  and  C_18
REMARK    8  A    between atoms: C_23  and  O_25
REMARK    9  A    between atoms: O_25  and  C_26
REMARK                            x       y       z     vdW  Elec       q    Type
REMARK                         _______ _______ _______ _____ _____    ______ ____
ROOT
ATOM      1  C   LIG A   1      -6.468   3.311 123.148  0.00  0.00    +0.016 C 
ATOM      2  C   LIG A   1      -7.729   3.036 123.961  0.00  0.00    +0.065 C 
ATOM      3  C   LIG A   1      -7.879   3.539 125.427  0.00  0.00    +0.211 C 
ATOM      4  O   LIG A   1      -8.741   2.582 126.132  0.00  0.00    -0.483 OA
ATOM      5  C   LIG A   1      -8.668   1.428 125.390  0.00  0.00    +0.129 A 
ATOM      6  C   LIG A   1      -8.032   1.597 124.173  0.00  0.00    +0.005 A 
ATOM      7  C   LIG A   1      -7.827   0.525 123.331  0.00  0.00    +0.057 A 
ATOM      8  C   LIG A   1      -8.306  -0.732 123.704  0.00  0.00    +0.162 A 
ATOM      9  C   LIG A   1      -8.981  -0.906 124.946  0.00  0.00    +0.166 A 
ATOM     10  C   LIG A   1      -9.161   0.198 125.794  0.00  0.00    +0.095 A 
ENDROOT
BRANCH   3  11
ATOM     11  C   LIG A   1      -6.643   3.765 126.282  0.00  0.00    +0.000 A 
ATOM     12  C   LIG A   1      -5.358   3.587 125.733  0.00  0.00    +0.057 A 
ATOM     13  C   LIG A   1      -4.260   3.790 126.550  0.00  0.00    +0.170 A 
ATOM     14  C   LIG A   1      -4.385   4.158 127.872  0.00  0.00    +0.207 A 
ATOM     15  C   LIG A   1      -5.624   4.372 128.437  0.00  0.00    +0.166 A 
ATOM     16  C   LIG A   1      -6.744   4.203 127.620  0.00  0.00    +0.057 A 
ATOM     17  O   LIG A   1      -3.176   4.263 128.485  0.00  0.00    -0.449 OA
ATOM     18  C   LIG A   1      -2.280   3.967 127.405  0.00  0.00    +0.467 C 
ATOM     19  O   LIG A   1      -2.957   3.647 126.174  0.00  0.00    -0.453 OA
BRANCH  15  20
ATOM     20  O   LIG A   1      -5.902   4.681 129.735  0.00  0.00    -0.491 OA
ATOM     21  C   LIG A   1      -7.268   4.574 130.110  0.00  0.00    +0.277 C 
ENDBRANCH  15  20
ENDBRANCH   3  11
BRANCH   8  22
ATOM     22  O   LIG A   1      -8.031  -1.674 122.744  0.00  0.00    -0.491 OA
ATOM     23  C   LIG A   1      -6.675  -1.996 122.485  0.00  0.00    +0.277 C 
ENDBRANCH   8  22
BRANCH   9  24
ATOM     24  O   LIG A   1      -9.348  -2.179 125.247  0.00  0.00    -0.484 OA
BRANCH  24  25
ATOM     25  C   LIG A   1      -8.461  -3.105 125.892  0.00  0.00    +0.256 C 
BRANCH  25  26
ATOM     26  C   LIG A   1      -9.120  -3.553 127.158  0.00  0.00    +0.006 C 
ATOM     27  C   LIG A   1      -8.492  -3.582 128.330  0.00  0.00    +0.007 C 
ENDBRANCH  25  26
ENDBRANCH  24  25
ENDBRANCH   9  24
TORSDOF 6
ENDMDL
