MODEL 1
REMARK VINA RESULT:      -9.0      0.000      0.000
REMARK  Name = NuBBE_37
REMARK  17 active torsions:
REMARK  status: ('A' for Active; 'I' for Inactive)
REMARK    1  A    between atoms: C_1  and  O_2
REMARK    2  A    between atoms: O_2  and  C_3
REMARK    3  A    between atoms: C_5  and  O_6
REMARK    4  A    between atoms: C_10  and  C_11
REMARK    5  A    between atoms: C_14  and  O_15
REMARK    6  A    between atoms: O_15  and  C_16
REMARK    7  A    between atoms: C_21  and  C_22
REMARK    8  A    between atoms: C_24  and  O_26
REMARK    9  A    between atoms: O_26  and  C_27
REMARK   10  A    between atoms: C_29  and  O_31
REMARK   11  A    between atoms: C_33  and  C_35
REMARK   12  A    between atoms: C_36  and  O_38
REMARK   13  A    between atoms: C_39  and  O_41
REMARK   14  A    between atoms: C_43  and  C_45
REMARK   15  A    between atoms: C_45  and  O_46
REMARK   16  A    between atoms: C_47  and  O_49
REMARK   17  A    between atoms: C_50  and  O_52
REMARK                            x       y       z     vdW  Elec       q    Type
REMARK                         _______ _______ _______ _____ _____    ______ ____
ROOT
ATOM      1  C   LIG A   1      -7.230   2.669 128.069  0.00  0.00    +0.187 C 
ATOM      2  C   LIG A   1      -7.024   3.104 129.621  0.00  0.00    +0.186 C 
ATOM      3  O   LIG A   1      -6.276   3.337 127.202  0.00  0.00    -0.361 OA
ATOM      4  C   LIG A   1      -5.367   4.214 127.905  0.00  0.00    +0.175 C 
ATOM      5  C   LIG A   1      -4.631   3.312 128.904  0.00  0.00    +0.176 C 
ATOM      6  C   LIG A   1      -5.562   3.159 130.076  0.00  0.00    +0.177 C 
ENDROOT
BRANCH   1  16
ATOM      7  C   LIG A   1      -7.605   0.156 128.635  0.00  0.00    +0.133 A 
ATOM      8  C   LIG A   1      -7.878  -1.193 128.302  0.00  0.00    +0.092 A 
ATOM      9  C   LIG A   1      -8.188  -1.540 127.013  0.00  0.00    +0.135 A 
ATOM     10  C   LIG A   1      -8.215  -0.580 126.010  0.00  0.00    +0.106 A 
ATOM     11  C   LIG A   1      -8.655  -0.916 124.664  0.00  0.00    +0.197 A 
ATOM     12  C   LIG A   1      -8.399   0.043 123.596  0.00  0.00    +0.098 A 
ATOM     13  C   LIG A   1      -7.960   1.264 123.944  0.00  0.00    +0.139 A 
ATOM     14  O   LIG A   1      -7.736   1.679 125.251  0.00  0.00    -0.454 OA
ATOM     15  C   LIG A   1      -7.817   0.770 126.304  0.00  0.00    +0.152 A 
ATOM     16  C   LIG A   1      -7.501   1.180 127.654  0.00  0.00    +0.068 A 
ATOM     17  O   LIG A   1      -9.267  -1.985 124.353  0.00  0.00    -0.287 OA
BRANCH  13  18
ATOM     18  C   LIG A   1      -7.659   2.189 122.840  0.00  0.00    +0.018 A 
ATOM     19  C   LIG A   1      -8.718   2.789 122.178  0.00  0.00    +0.015 A 
ATOM     20  C   LIG A   1      -8.564   3.536 121.007  0.00  0.00    +0.046 A 
ATOM     21  C   LIG A   1      -7.300   3.929 120.615  0.00  0.00    +0.120 A 
ATOM     22  C   LIG A   1      -6.208   3.477 121.360  0.00  0.00    +0.046 A 
ATOM     23  C   LIG A   1      -6.383   2.592 122.439  0.00  0.00    +0.015 A 
BRANCH  21  24
ATOM     24  O   LIG A   1      -7.034   4.764 119.568  0.00  0.00    -0.495 OA
ATOM     25  C   LIG A   1      -5.673   5.183 119.450  0.00  0.00    +0.277 C 
ENDBRANCH  21  24
ENDBRANCH  13  18
BRANCH   7  27
ATOM     26  C   LIG A   1      -8.270  -0.334 130.853  0.00  0.00    +0.277 C 
ATOM     27  O   LIG A   1      -7.349   0.290 129.970  0.00  0.00    -0.494 OA
ENDBRANCH   7  27
BRANCH   9  28
ATOM     28  O   LIG A   1      -8.442  -2.863 126.711  0.00  0.00    -0.506 OA
ATOM     29  H   LIG A   1      -8.034  -3.121 125.870  0.00  0.00    +0.292 HD
ENDBRANCH   9  28
ENDBRANCH   1  16
BRANCH   5  30
ATOM     30  O   LIG A   1      -3.403   3.855 129.383  0.00  0.00    -0.387 OA
ATOM     31  H   LIG A   1      -3.373   4.774 129.057  0.00  0.00    +0.210 HD
ENDBRANCH   5  30
BRANCH   6  32
ATOM     32  O   LIG A   1      -5.216   2.001 130.841  0.00  0.00    -0.387 OA
ATOM     33  H   LIG A   1      -4.769   2.328 131.643  0.00  0.00    +0.210 HD
ENDBRANCH   6  32
BRANCH   2  34
ATOM     34  O   LIG A   1      -7.668   4.429 129.757  0.00  0.00    -0.340 OA
BRANCH  34  35
ATOM     35  C   LIG A   1      -9.103   4.434 129.805  0.00  0.00    +0.282 C 
ATOM     36  C   LIG A   1      -9.618   4.674 131.241  0.00  0.00    +0.201 C 
ATOM     37  O   LIG A   1      -9.623   5.315 128.820  0.00  0.00    -0.343 OA
ATOM     38  C   LIG A   1     -10.102   6.586 129.242  0.00  0.00    +0.149 C 
ATOM     39  C   LIG A   1     -11.624   6.590 129.168  0.00  0.00    +0.040 C 
ATOM     40  C   LIG A   1      -9.523   7.135 130.561  0.00  0.00    +0.174 C 
ATOM     41  C   LIG A   1      -9.402   6.113 131.695  0.00  0.00    +0.179 C 
BRANCH  36  42
ATOM     42  O   LIG A   1     -11.016   4.344 131.344  0.00  0.00    -0.384 OA
ATOM     43  H   LIG A   1     -11.033   3.381 131.530  0.00  0.00    +0.210 HD
ENDBRANCH  36  42
BRANCH  40  44
ATOM     44  O   LIG A   1      -8.192   7.639 130.336  0.00  0.00    -0.387 OA
ATOM     45  H   LIG A   1      -8.017   7.593 129.381  0.00  0.00    +0.210 HD
ENDBRANCH  40  44
BRANCH  41  46
ATOM     46  O   LIG A   1     -10.350   6.408 132.742  0.00  0.00    -0.386 OA
ATOM     47  H   LIG A   1     -11.233   6.203 132.380  0.00  0.00    +0.210 HD
ENDBRANCH  41  46
ENDBRANCH  34  35
ENDBRANCH   2  34
BRANCH   4  48
ATOM     48  C   LIG A   1      -4.424   4.839 126.902  0.00  0.00    +0.190 C 
BRANCH  48  49
ATOM     49  O   LIG A   1      -4.172   6.122 127.408  0.00  0.00    -0.392 OA
ATOM     50  H   LIG A   1      -3.256   5.984 127.740  0.00  0.00    +0.209 HD
ENDBRANCH  48  49
ENDBRANCH   4  48
TORSDOF 14
ENDMDL
MODEL 2
REMARK VINA RESULT:      -9.0      2.372      6.442
REMARK  Name = NuBBE_37
REMARK  17 active torsions:
REMARK  status: ('A' for Active; 'I' for Inactive)
REMARK    1  A    between atoms: C_1  and  O_2
REMARK    2  A    between atoms: O_2  and  C_3
REMARK    3  A    between atoms: C_5  and  O_6
REMARK    4  A    between atoms: C_10  and  C_11
REMARK    5  A    between atoms: C_14  and  O_15
REMARK    6  A    between atoms: O_15  and  C_16
REMARK    7  A    between atoms: C_21  and  C_22
REMARK    8  A    between atoms: C_24  and  O_26
REMARK    9  A    between atoms: O_26  and  C_27
REMARK   10  A    between atoms: C_29  and  O_31
REMARK   11  A    between atoms: C_33  and  C_35
REMARK   12  A    between atoms: C_36  and  O_38
REMARK   13  A    between atoms: C_39  and  O_41
REMARK   14  A    between atoms: C_43  and  C_45
REMARK   15  A    between atoms: C_45  and  O_46
REMARK   16  A    between atoms: C_47  and  O_49
REMARK   17  A    between atoms: C_50  and  O_52
REMARK                            x       y       z     vdW  Elec       q    Type
REMARK                         _______ _______ _______ _____ _____    ______ ____
ROOT
ATOM      1  C   LIG A   1      -7.787   2.041 128.128  0.00  0.00    +0.187 C 
ATOM      2  C   LIG A   1      -8.547   2.302 129.540  0.00  0.00    +0.186 C 
ATOM      3  O   LIG A   1      -6.346   2.023 128.299  0.00  0.00    -0.361 OA
ATOM      4  C   LIG A   1      -5.920   2.227 129.665  0.00  0.00    +0.175 C 
ATOM      5  C   LIG A   1      -6.560   1.082 130.459  0.00  0.00    +0.176 C 
ATOM      6  C   LIG A   1      -7.977   1.511 130.722  0.00  0.00    +0.177 C 
ENDROOT
BRANCH   1  16
ATOM      7  C   LIG A   1      -8.880   1.372 125.862  0.00  0.00    +0.133 A 
ATOM      8  C   LIG A   1      -9.324   0.440 124.893  0.00  0.00    +0.092 A 
ATOM      9  C   LIG A   1      -9.085  -0.900 125.058  0.00  0.00    +0.135 A 
ATOM     10  C   LIG A   1      -8.424  -1.364 126.187  0.00  0.00    +0.106 A 
ATOM     11  C   LIG A   1      -8.062  -2.768 126.317  0.00  0.00    +0.197 A 
ATOM     12  C   LIG A   1      -7.632  -3.250 127.624  0.00  0.00    +0.098 A 
ATOM     13  C   LIG A   1      -7.395  -2.337 128.581  0.00  0.00    +0.139 A 
ATOM     14  O   LIG A   1      -7.529  -0.965 128.412  0.00  0.00    -0.454 OA
ATOM     15  C   LIG A   1      -8.078  -0.448 127.240  0.00  0.00    +0.152 A 
ATOM     16  C   LIG A   1      -8.298   0.974 127.096  0.00  0.00    +0.068 A 
ATOM     17  O   LIG A   1      -8.077  -3.607 125.363  0.00  0.00    -0.287 OA
BRANCH  13  18
ATOM     18  C   LIG A   1      -7.016  -2.859 129.903  0.00  0.00    +0.018 A 
ATOM     19  C   LIG A   1      -5.940  -3.729 129.982  0.00  0.00    +0.015 A 
ATOM     20  C   LIG A   1      -5.604  -4.426 131.145  0.00  0.00    +0.046 A 
ATOM     21  C   LIG A   1      -6.181  -4.062 132.345  0.00  0.00    +0.120 A 
ATOM     22  C   LIG A   1      -7.159  -3.066 132.330  0.00  0.00    +0.046 A 
ATOM     23  C   LIG A   1      -7.595  -2.494 131.121  0.00  0.00    +0.015 A 
BRANCH  21  24
ATOM     24  O   LIG A   1      -5.839  -4.579 133.562  0.00  0.00    -0.495 OA
ATOM     25  C   LIG A   1      -6.885  -4.595 134.535  0.00  0.00    +0.277 C 
ENDBRANCH  21  24
ENDBRANCH  13  18
BRANCH   7  27
ATOM     26  C   LIG A   1      -8.372   3.236 124.494  0.00  0.00    +0.277 C 
ATOM     27  O   LIG A   1      -9.193   2.650 125.493  0.00  0.00    -0.494 OA
ENDBRANCH   7  27
BRANCH   9  28
ATOM     28  O   LIG A   1      -9.536  -1.790 124.104  0.00  0.00    -0.506 OA
ATOM     29  H   LIG A   1     -10.503  -1.782 124.039  0.00  0.00    +0.292 HD
ENDBRANCH   9  28
ENDBRANCH   1  16
BRANCH   5  30
ATOM     30  O   LIG A   1      -5.935   0.826 131.715  0.00  0.00    -0.387 OA
ATOM     31  H   LIG A   1      -6.239  -0.059 131.989  0.00  0.00    +0.210 HD
ENDBRANCH   5  30
BRANCH   6  32
ATOM     32  O   LIG A   1      -8.794   0.377 131.026  0.00  0.00    -0.387 OA
ATOM     33  H   LIG A   1      -8.262  -0.193 131.611  0.00  0.00    +0.210 HD
ENDBRANCH   6  32
BRANCH   2  34
ATOM     34  O   LIG A   1      -8.452   3.757 129.785  0.00  0.00    -0.340 OA
BRANCH  34  35
ATOM     35  C   LIG A   1      -9.698   4.459 129.916  0.00  0.00    +0.282 C 
ATOM     36  C   LIG A   1     -10.020   4.766 131.395  0.00  0.00    +0.201 C 
ATOM     37  O   LIG A   1      -9.721   5.582 129.046  0.00  0.00    -0.343 OA
ATOM     38  C   LIG A   1      -9.508   6.871 129.608  0.00  0.00    +0.149 C 
ATOM     39  C   LIG A   1     -10.831   7.628 129.622  0.00  0.00    +0.040 C 
ATOM     40  C   LIG A   1      -8.727   6.921 130.936  0.00  0.00    +0.174 C 
ATOM     41  C   LIG A   1      -9.120   5.857 131.964  0.00  0.00    +0.179 C 
BRANCH  36  42
ATOM     42  O   LIG A   1     -11.398   5.154 131.548  0.00  0.00    -0.384 OA
ATOM     43  H   LIG A   1     -11.563   5.789 130.818  0.00  0.00    +0.210 HD
ENDBRANCH  36  42
BRANCH  40  44
ATOM     44  O   LIG A   1      -7.322   6.729 130.682  0.00  0.00    -0.387 OA
ATOM     45  H   LIG A   1      -7.096   7.232 129.882  0.00  0.00    +0.210 HD
ENDBRANCH  40  44
BRANCH  41  46
ATOM     46  O   LIG A   1      -9.794   6.464 133.086  0.00  0.00    -0.386 OA
ATOM     47  H   LIG A   1      -9.820   5.789 133.791  0.00  0.00    +0.210 HD
ENDBRANCH  41  46
ENDBRANCH  34  35
ENDBRANCH   2  34
BRANCH   4  48
ATOM     48  C   LIG A   1      -4.409   2.179 129.713  0.00  0.00    +0.190 C 
BRANCH  48  49
ATOM     49  O   LIG A   1      -4.088   0.863 129.349  0.00  0.00    -0.392 OA
ATOM     50  H   LIG A   1      -4.918   0.415 129.629  0.00  0.00    +0.209 HD
ENDBRANCH  48  49
ENDBRANCH   4  48
TORSDOF 14
ENDMDL
MODEL 3
REMARK VINA RESULT:      -8.8      2.007      3.036
REMARK  Name = NuBBE_37
REMARK  17 active torsions:
REMARK  status: ('A' for Active; 'I' for Inactive)
REMARK    1  A    between atoms: C_1  and  O_2
REMARK    2  A    between atoms: O_2  and  C_3
REMARK    3  A    between atoms: C_5  and  O_6
REMARK    4  A    between atoms: C_10  and  C_11
REMARK    5  A    between atoms: C_14  and  O_15
REMARK    6  A    between atoms: O_15  and  C_16
REMARK    7  A    between atoms: C_21  and  C_22
REMARK    8  A    between atoms: C_24  and  O_26
REMARK    9  A    between atoms: O_26  and  C_27
REMARK   10  A    between atoms: C_29  and  O_31
REMARK   11  A    between atoms: C_33  and  C_35
REMARK   12  A    between atoms: C_36  and  O_38
REMARK   13  A    between atoms: C_39  and  O_41
REMARK   14  A    between atoms: C_43  and  C_45
REMARK   15  A    between atoms: C_45  and  O_46
REMARK   16  A    between atoms: C_47  and  O_49
REMARK   17  A    between atoms: C_50  and  O_52
REMARK                            x       y       z     vdW  Elec       q    Type
REMARK                         _______ _______ _______ _____ _____    ______ ____
ROOT
ATOM      1  C   LIG A   1      -7.121   0.744 129.554  0.00  0.00    +0.187 C 
ATOM      2  C   LIG A   1      -8.215   1.532 130.461  0.00  0.00    +0.186 C 
ATOM      3  O   LIG A   1      -5.871   0.565 130.270  0.00  0.00    -0.361 OA
ATOM      4  C   LIG A   1      -5.886   1.108 131.609  0.00  0.00    +0.175 C 
ATOM      5  C   LIG A   1      -7.019   0.367 132.331  0.00  0.00    +0.176 C 
ATOM      6  C   LIG A   1      -8.287   1.062 131.917  0.00  0.00    +0.177 C 
ENDROOT
BRANCH   1  16
ATOM      7  C   LIG A   1      -7.885  -1.729 129.280  0.00  0.00    +0.133 A 
ATOM      8  C   LIG A   1      -8.272  -2.862 128.523  0.00  0.00    +0.092 A 
ATOM      9  C   LIG A   1      -8.428  -2.769 127.165  0.00  0.00    +0.135 A 
ATOM     10  C   LIG A   1      -8.186  -1.570 126.508  0.00  0.00    +0.106 A 
ATOM     11  C   LIG A   1      -8.461  -1.428 125.085  0.00  0.00    +0.197 A 
ATOM     12  C   LIG A   1      -7.932  -0.258 124.395  0.00  0.00    +0.098 A 
ATOM     13  C   LIG A   1      -7.401   0.724 125.144  0.00  0.00    +0.139 A 
ATOM     14  O   LIG A   1      -7.323   0.703 126.531  0.00  0.00    -0.454 OA
ATOM     15  C   LIG A   1      -7.672  -0.445 127.240  0.00  0.00    +0.152 A 
ATOM     16  C   LIG A   1      -7.511  -0.498 128.676  0.00  0.00    +0.068 A 
ATOM     17  O   LIG A   1      -9.147  -2.247 124.399  0.00  0.00    -0.287 OA
BRANCH  13  18
ATOM     18  C   LIG A   1      -6.827   1.864 124.414  0.00  0.00    +0.018 A 
ATOM     19  C   LIG A   1      -7.104   1.986 123.062  0.00  0.00    +0.015 A 
ATOM     20  C   LIG A   1      -6.473   2.916 122.232  0.00  0.00    +0.046 A 
ATOM     21  C   LIG A   1      -5.736   3.938 122.796  0.00  0.00    +0.120 A 
ATOM     22  C   LIG A   1      -5.571   3.944 124.183  0.00  0.00    +0.046 A 
ATOM     23  C   LIG A   1      -6.082   2.902 124.978  0.00  0.00    +0.015 A 
BRANCH  21  24
ATOM     24  O   LIG A   1      -5.183   4.975 122.100  0.00  0.00    -0.495 OA
ATOM     25  C   LIG A   1      -5.162   4.816 120.680  0.00  0.00    +0.277 C 
ENDBRANCH  21  24
ENDBRANCH  13  18
BRANCH   7  27
ATOM     26  C   LIG A   1      -6.923  -3.070 130.977  0.00  0.00    +0.277 C 
ATOM     27  O   LIG A   1      -7.816  -2.029 130.611  0.00  0.00    -0.494 OA
ENDBRANCH   7  27
BRANCH   9  28
ATOM     28  O   LIG A   1      -8.797  -3.889 126.447  0.00  0.00    -0.506 OA
ATOM     29  H   LIG A   1      -9.476  -3.682 125.787  0.00  0.00    +0.292 HD
ENDBRANCH   9  28
ENDBRANCH   1  16
BRANCH   5  30
ATOM     30  O   LIG A   1      -6.931   0.415 133.753  0.00  0.00    -0.387 OA
ATOM     31  H   LIG A   1      -7.818   0.180 134.083  0.00  0.00    +0.210 HD
ENDBRANCH   5  30
BRANCH   6  32
ATOM     32  O   LIG A   1      -9.416   0.209 132.129  0.00  0.00    -0.387 OA
ATOM     33  H   LIG A   1      -9.127  -0.472 132.764  0.00  0.00    +0.210 HD
ENDBRANCH   6  32
BRANCH   2  34
ATOM     34  O   LIG A   1      -7.845   2.962 130.387  0.00  0.00    -0.340 OA
BRANCH  34  35
ATOM     35  C   LIG A   1      -8.906   3.874 130.063  0.00  0.00    +0.282 C 
ATOM     36  C   LIG A   1      -9.940   3.963 131.205  0.00  0.00    +0.201 C 
ATOM     37  O   LIG A   1      -8.368   5.117 129.634  0.00  0.00    -0.343 OA
ATOM     38  C   LIG A   1      -8.384   6.206 130.549  0.00  0.00    +0.149 C 
ATOM     39  C   LIG A   1      -9.443   7.209 130.106  0.00  0.00    +0.040 C 
ATOM     40  C   LIG A   1      -8.431   5.844 132.047  0.00  0.00    +0.174 C 
ATOM     41  C   LIG A   1      -9.397   4.716 132.415  0.00  0.00    +0.179 C 
BRANCH  36  42
ATOM     42  O   LIG A   1     -11.151   4.598 130.751  0.00  0.00    -0.384 OA
ATOM     43  H   LIG A   1     -11.790   4.474 131.484  0.00  0.00    +0.210 HD
ENDBRANCH  36  42
BRANCH  40  44
ATOM     44  O   LIG A   1      -7.128   5.411 132.484  0.00  0.00    -0.387 OA
ATOM     45  H   LIG A   1      -6.521   6.163 132.389  0.00  0.00    +0.210 HD
ENDBRANCH  40  44
BRANCH  41  46
ATOM     46  O   LIG A   1     -10.513   5.233 133.168  0.00  0.00    -0.386 OA
ATOM     47  H   LIG A   1     -11.180   4.521 133.198  0.00  0.00    +0.210 HD
ENDBRANCH  41  46
ENDBRANCH  34  35
ENDBRANCH   2  34
BRANCH   4  48
ATOM     48  C   LIG A   1      -4.540   0.853 132.250  0.00  0.00    +0.190 C 
BRANCH  48  49
ATOM     49  O   LIG A   1      -4.485  -0.540 132.407  0.00  0.00    -0.392 OA
ATOM     50  H   LIG A   1      -5.445  -0.744 132.341  0.00  0.00    +0.209 HD
ENDBRANCH  48  49
ENDBRANCH   4  48
TORSDOF 14
ENDMDL
MODEL 4
REMARK VINA RESULT:      -8.8      3.786      7.541
REMARK  Name = NuBBE_37
REMARK  17 active torsions:
REMARK  status: ('A' for Active; 'I' for Inactive)
REMARK    1  A    between atoms: C_1  and  O_2
REMARK    2  A    between atoms: O_2  and  C_3
REMARK    3  A    between atoms: C_5  and  O_6
REMARK    4  A    between atoms: C_10  and  C_11
REMARK    5  A    between atoms: C_14  and  O_15
REMARK    6  A    between atoms: O_15  and  C_16
REMARK    7  A    between atoms: C_21  and  C_22
REMARK    8  A    between atoms: C_24  and  O_26
REMARK    9  A    between atoms: O_26  and  C_27
REMARK   10  A    between atoms: C_29  and  O_31
REMARK   11  A    between atoms: C_33  and  C_35
REMARK   12  A    between atoms: C_36  and  O_38
REMARK   13  A    between atoms: C_39  and  O_41
REMARK   14  A    between atoms: C_43  and  C_45
REMARK   15  A    between atoms: C_45  and  O_46
REMARK   16  A    between atoms: C_47  and  O_49
REMARK   17  A    between atoms: C_50  and  O_52
REMARK                            x       y       z     vdW  Elec       q    Type
REMARK                         _______ _______ _______ _____ _____    ______ ____
ROOT
ATOM      1  C   LIG A   1      -7.697   5.110 130.025  0.00  0.00    +0.187 C 
ATOM      2  C   LIG A   1      -9.292   4.803 130.040  0.00  0.00    +0.186 C 
ATOM      3  O   LIG A   1      -7.203   5.405 131.358  0.00  0.00    -0.361 OA
ATOM      4  C   LIG A   1      -8.222   5.348 132.381  0.00  0.00    +0.175 C 
ATOM      5  C   LIG A   1      -8.767   3.916 132.325  0.00  0.00    +0.176 C 
ATOM      6  C   LIG A   1      -9.753   3.900 131.189  0.00  0.00    +0.177 C 
ENDROOT
BRANCH   1  16
ATOM      7  C   LIG A   1      -7.165   3.238 128.296  0.00  0.00    +0.133 A 
ATOM      8  C   LIG A   1      -6.295   2.465 127.489  0.00  0.00    +0.092 A 
ATOM      9  C   LIG A   1      -4.959   2.763 127.427  0.00  0.00    +0.135 A 
ATOM     10  C   LIG A   1      -4.434   3.811 128.172  0.00  0.00    +0.106 A 
ATOM     11  C   LIG A   1      -3.042   4.209 128.025  0.00  0.00    +0.197 A 
ATOM     12  C   LIG A   1      -2.475   5.113 129.019  0.00  0.00    +0.098 A 
ATOM     13  C   LIG A   1      -3.318   5.690 129.893  0.00  0.00    +0.139 A 
ATOM     14  O   LIG A   1      -4.692   5.487 129.913  0.00  0.00    -0.454 OA
ATOM     15  C   LIG A   1      -5.277   4.525 129.092  0.00  0.00    +0.152 A 
ATOM     16  C   LIG A   1      -6.695   4.253 129.173  0.00  0.00    +0.068 A 
ATOM     17  O   LIG A   1      -2.283   3.837 127.077  0.00  0.00    -0.287 OA
BRANCH  13  18
ATOM     18  C   LIG A   1      -2.708   6.552 130.916  0.00  0.00    +0.018 A 
ATOM     19  C   LIG A   1      -3.362   7.724 131.262  0.00  0.00    +0.015 A 
ATOM     20  C   LIG A   1      -2.794   8.704 132.081  0.00  0.00    +0.046 A 
ATOM     21  C   LIG A   1      -1.652   8.410 132.798  0.00  0.00    +0.120 A 
ATOM     22  C   LIG A   1      -1.051   7.165 132.599  0.00  0.00    +0.046 A 
ATOM     23  C   LIG A   1      -1.554   6.261 131.647  0.00  0.00    +0.015 A 
BRANCH  21  24
ATOM     24  O   LIG A   1      -1.080   9.235 133.724  0.00  0.00    -0.495 OA
ATOM     25  C   LIG A   1       0.318   9.473 133.549  0.00  0.00    +0.277 C 
ENDBRANCH  21  24
ENDBRANCH  13  18
BRANCH   7  27
ATOM     26  C   LIG A   1      -8.632   1.505 127.629  0.00  0.00    +0.277 C 
ATOM     27  O   LIG A   1      -8.453   2.795 128.193  0.00  0.00    -0.494 OA
ENDBRANCH   7  27
BRANCH   9  28
ATOM     28  O   LIG A   1      -4.129   1.989 126.641  0.00  0.00    -0.506 OA
ATOM     29  H   LIG A   1      -4.619   1.554 125.926  0.00  0.00    +0.292 HD
ENDBRANCH   9  28
ENDBRANCH   1  16
BRANCH   5  30
ATOM     30  O   LIG A   1      -9.450   3.507 133.508  0.00  0.00    -0.387 OA
ATOM     31  H   LIG A   1     -10.129   4.187 133.673  0.00  0.00    +0.210 HD
ENDBRANCH   5  30
BRANCH   6  32
ATOM     32  O   LIG A   1      -9.972   2.561 130.736  0.00  0.00    -0.387 OA
ATOM     33  H   LIG A   1      -9.647   2.528 129.818  0.00  0.00    +0.210 HD
ENDBRANCH   6  32
BRANCH   2  34
ATOM     34  O   LIG A   1      -9.956   6.123 130.109  0.00  0.00    -0.340 OA
BRANCH  34  35
ATOM     35  C   LIG A   1     -11.392   6.111 130.089  0.00  0.00    +0.282 C 
ATOM     36  C   LIG A   1     -11.975   7.399 130.709  0.00  0.00    +0.201 C 
ATOM     37  O   LIG A   1     -11.860   5.801 128.784  0.00  0.00    -0.343 OA
ATOM     38  C   LIG A   1     -12.355   6.864 127.979  0.00  0.00    +0.149 C 
ATOM     39  C   LIG A   1     -13.871   6.749 127.885  0.00  0.00    +0.040 C 
ATOM     40  C   LIG A   1     -11.839   8.277 128.314  0.00  0.00    +0.174 C 
ATOM     41  C   LIG A   1     -11.777   8.611 129.807  0.00  0.00    +0.179 C 
BRANCH  36  42
ATOM     42  O   LIG A   1     -13.378   7.238 130.994  0.00  0.00    -0.384 OA
ATOM     43  H   LIG A   1     -13.810   8.007 130.565  0.00  0.00    +0.210 HD
ENDBRANCH  36  42
BRANCH  40  44
ATOM     44  O   LIG A   1     -10.497   8.437 127.815  0.00  0.00    -0.387 OA
ATOM     45  H   LIG A   1     -10.337   9.389 127.701  0.00  0.00    +0.210 HD
ENDBRANCH  40  44
BRANCH  41  46
ATOM     46  O   LIG A   1     -12.774   9.598 130.144  0.00  0.00    -0.386 OA
ATOM     47  H   LIG A   1     -13.165   9.316 130.993  0.00  0.00    +0.210 HD
ENDBRANCH  41  46
ENDBRANCH  34  35
ENDBRANCH   2  34
BRANCH   4  48
ATOM     48  C   LIG A   1      -7.586   5.663 133.716  0.00  0.00    +0.190 C 
BRANCH  48  49
ATOM     49  O   LIG A   1      -8.662   6.015 134.544  0.00  0.00    -0.392 OA
ATOM     50  H   LIG A   1      -8.801   6.940 134.236  0.00  0.00    +0.209 HD
ENDBRANCH  48  49
ENDBRANCH   4  48
TORSDOF 14
ENDMDL
MODEL 5
REMARK VINA RESULT:      -8.6      2.468      8.697
REMARK  Name = NuBBE_37
REMARK  17 active torsions:
REMARK  status: ('A' for Active; 'I' for Inactive)
REMARK    1  A    between atoms: C_1  and  O_2
REMARK    2  A    between atoms: O_2  and  C_3
REMARK    3  A    between atoms: C_5  and  O_6
REMARK    4  A    between atoms: C_10  and  C_11
REMARK    5  A    between atoms: C_14  and  O_15
REMARK    6  A    between atoms: O_15  and  C_16
REMARK    7  A    between atoms: C_21  and  C_22
REMARK    8  A    between atoms: C_24  and  O_26
REMARK    9  A    between atoms: O_26  and  C_27
REMARK   10  A    between atoms: C_29  and  O_31
REMARK   11  A    between atoms: C_33  and  C_35
REMARK   12  A    between atoms: C_36  and  O_38
REMARK   13  A    between atoms: C_39  and  O_41
REMARK   14  A    between atoms: C_43  and  C_45
REMARK   15  A    between atoms: C_45  and  O_46
REMARK   16  A    between atoms: C_47  and  O_49
REMARK   17  A    between atoms: C_50  and  O_52
REMARK                            x       y       z     vdW  Elec       q    Type
REMARK                         _______ _______ _______ _____ _____    ______ ____
ROOT
ATOM      1  C   LIG A   1      -7.157   2.214 126.634  0.00  0.00    +0.187 C 
ATOM      2  C   LIG A   1      -8.001   1.241 125.644  0.00  0.00    +0.186 C 
ATOM      3  O   LIG A   1      -6.375   3.180 125.884  0.00  0.00    -0.361 OA
ATOM      4  C   LIG A   1      -6.529   3.067 124.452  0.00  0.00    +0.175 C 
ATOM      5  C   LIG A   1      -8.025   3.283 124.191  0.00  0.00    +0.176 C 
ATOM      6  C   LIG A   1      -8.683   1.961 124.476  0.00  0.00    +0.177 C 
ENDROOT
BRANCH   1  16
ATOM      7  C   LIG A   1      -8.205   4.171 127.994  0.00  0.00    +0.133 A 
ATOM      8  C   LIG A   1      -8.803   4.739 129.145  0.00  0.00    +0.092 A 
ATOM      9  C   LIG A   1      -9.123   3.953 130.221  0.00  0.00    +0.135 A 
ATOM     10  C   LIG A   1      -8.844   2.593 130.208  0.00  0.00    +0.106 A 
ATOM     11  C   LIG A   1      -9.284   1.729 131.294  0.00  0.00    +0.197 A 
ATOM     12  C   LIG A   1      -8.730   0.383 131.372  0.00  0.00    +0.098 A 
ATOM     13  C   LIG A   1      -8.006  -0.057 130.328  0.00  0.00    +0.139 A 
ATOM     14  O   LIG A   1      -7.752   0.681 129.179  0.00  0.00    -0.454 OA
ATOM     15  C   LIG A   1      -8.125   2.021 129.103  0.00  0.00    +0.152 A 
ATOM     16  C   LIG A   1      -7.785   2.814 127.942  0.00  0.00    +0.068 A 
ATOM     17  O   LIG A   1     -10.136   2.060 132.177  0.00  0.00    -0.287 OA
BRANCH  13  18
ATOM     18  C   LIG A   1      -7.415  -1.397 130.462  0.00  0.00    +0.018 A 
ATOM     19  C   LIG A   1      -7.430  -2.000 131.709  0.00  0.00    +0.015 A 
ATOM     20  C   LIG A   1      -6.743  -3.183 131.995  0.00  0.00    +0.046 A 
ATOM     21  C   LIG A   1      -6.237  -3.941 130.959  0.00  0.00    +0.120 A 
ATOM     22  C   LIG A   1      -6.350  -3.441 129.660  0.00  0.00    +0.046 A 
ATOM     23  C   LIG A   1      -6.903  -2.170 129.417  0.00  0.00    +0.015 A 
BRANCH  21  24
ATOM     24  O   LIG A   1      -5.663  -5.172 131.103  0.00  0.00    -0.495 OA
ATOM     25  C   LIG A   1      -5.003  -5.396 132.350  0.00  0.00    +0.277 C 
ENDBRANCH  21  24
ENDBRANCH  13  18
BRANCH   7  27
ATOM     26  C   LIG A   1      -9.145   5.809 126.567  0.00  0.00    +0.277 C 
ATOM     27  O   LIG A   1      -7.995   5.117 127.031  0.00  0.00    -0.494 OA
ENDBRANCH   7  27
BRANCH   9  28
ATOM     28  O   LIG A   1      -9.697   4.532 131.335  0.00  0.00    -0.506 OA
ATOM     29  H   LIG A   1      -9.217   4.299 132.145  0.00  0.00    +0.292 HD
ENDBRANCH   9  28
ENDBRANCH   1  16
BRANCH   5  30
ATOM     30  O   LIG A   1      -8.334   3.650 122.849  0.00  0.00    -0.387 OA
ATOM     31  H   LIG A   1      -8.995   4.364 122.912  0.00  0.00    +0.210 HD
ENDBRANCH   5  30
BRANCH   6  32
ATOM     32  O   LIG A   1     -10.080   2.142 124.727  0.00  0.00    -0.387 OA
ATOM     33  H   LIG A   1     -10.156   2.945 125.273  0.00  0.00    +0.210 HD
ENDBRANCH   6  32
BRANCH   2  34
ATOM     34  O   LIG A   1      -7.036   0.234 125.150  0.00  0.00    -0.340 OA
BRANCH  34  35
ATOM     35  C   LIG A   1      -7.209  -1.103 125.643  0.00  0.00    +0.282 C 
ATOM     36  C   LIG A   1      -8.644  -1.615 125.393  0.00  0.00    +0.201 C 
ATOM     37  O   LIG A   1      -6.173  -1.943 125.154  0.00  0.00    -0.343 OA
ATOM     38  C   LIG A   1      -6.478  -2.831 124.086  0.00  0.00    +0.149 C 
ATOM     39  C   LIG A   1      -6.538  -4.254 124.627  0.00  0.00    +0.040 C 
ATOM     40  C   LIG A   1      -7.664  -2.438 123.183  0.00  0.00    +0.174 C 
ATOM     41  C   LIG A   1      -8.899  -1.914 123.920  0.00  0.00    +0.179 C 
BRANCH  36  42
ATOM     42  O   LIG A   1      -8.910  -2.795 126.174  0.00  0.00    -0.384 OA
ATOM     43  H   LIG A   1      -8.244  -3.450 125.874  0.00  0.00    +0.210 HD
ENDBRANCH  36  42
BRANCH  40  44
ATOM     44  O   LIG A   1      -7.264  -1.388 122.282  0.00  0.00    -0.387 OA
ATOM     45  H   LIG A   1      -6.617  -0.831 122.747  0.00  0.00    +0.210 HD
ENDBRANCH  40  44
BRANCH  41  46
ATOM     46  O   LIG A   1      -9.981  -2.864 123.828  0.00  0.00    -0.386 OA
ATOM     47  H   LIG A   1      -9.579  -3.717 123.577  0.00  0.00    +0.210 HD
ENDBRANCH  41  46
ENDBRANCH  34  35
ENDBRANCH   2  34
BRANCH   4  48
ATOM     48  C   LIG A   1      -5.677   4.125 123.787  0.00  0.00    +0.190 C 
BRANCH  48  49
ATOM     49  O   LIG A   1      -6.142   5.336 124.320  0.00  0.00    -0.392 OA
ATOM     50  H   LIG A   1      -6.005   5.916 123.537  0.00  0.00    +0.209 HD
ENDBRANCH  48  49
ENDBRANCH   4  48
TORSDOF 14
ENDMDL
MODEL 6
REMARK VINA RESULT:      -8.4      2.011      6.123
REMARK  Name = NuBBE_37
REMARK  17 active torsions:
REMARK  status: ('A' for Active; 'I' for Inactive)
REMARK    1  A    between atoms: C_1  and  O_2
REMARK    2  A    between atoms: O_2  and  C_3
REMARK    3  A    between atoms: C_5  and  O_6
REMARK    4  A    between atoms: C_10  and  C_11
REMARK    5  A    between atoms: C_14  and  O_15
REMARK    6  A    between atoms: O_15  and  C_16
REMARK    7  A    between atoms: C_21  and  C_22
REMARK    8  A    between atoms: C_24  and  O_26
REMARK    9  A    between atoms: O_26  and  C_27
REMARK   10  A    between atoms: C_29  and  O_31
REMARK   11  A    between atoms: C_33  and  C_35
REMARK   12  A    between atoms: C_36  and  O_38
REMARK   13  A    between atoms: C_39  and  O_41
REMARK   14  A    between atoms: C_43  and  C_45
REMARK   15  A    between atoms: C_45  and  O_46
REMARK   16  A    between atoms: C_47  and  O_49
REMARK   17  A    between atoms: C_50  and  O_52
REMARK                            x       y       z     vdW  Elec       q    Type
REMARK                         _______ _______ _______ _____ _____    ______ ____
ROOT
ATOM      1  C   LIG A   1      -7.322   2.278 127.071  0.00  0.00    +0.187 C 
ATOM      2  C   LIG A   1      -6.676   1.867 128.504  0.00  0.00    +0.186 C 
ATOM      3  O   LIG A   1      -6.453   3.182 126.339  0.00  0.00    -0.361 OA
ATOM      4  C   LIG A   1      -5.226   3.497 127.034  0.00  0.00    +0.175 C 
ATOM      5  C   LIG A   1      -4.526   2.149 127.246  0.00  0.00    +0.176 C 
ATOM      6  C   LIG A   1      -5.181   1.537 128.454  0.00  0.00    +0.177 C 
ENDROOT
BRANCH   1  16
ATOM      7  C   LIG A   1      -8.555   1.600 124.881  0.00  0.00    +0.133 A 
ATOM      8  C   LIG A   1      -9.174   0.673 124.007  0.00  0.00    +0.092 A 
ATOM      9  C   LIG A   1      -9.174  -0.665 124.302  0.00  0.00    +0.135 A 
ATOM     10  C   LIG A   1      -8.587  -1.129 125.472  0.00  0.00    +0.106 A 
ATOM     11  C   LIG A   1      -8.478  -2.556 125.739  0.00  0.00    +0.197 A 
ATOM     12  C   LIG A   1      -8.117  -2.980 127.086  0.00  0.00    +0.098 A 
ATOM     13  C   LIG A   1      -7.706  -2.036 127.950  0.00  0.00    +0.139 A 
ATOM     14  O   LIG A   1      -7.597  -0.684 127.647  0.00  0.00    -0.454 OA
ATOM     15  C   LIG A   1      -8.066  -0.193 126.430  0.00  0.00    +0.152 A 
ATOM     16  C   LIG A   1      -8.032   1.225 126.148  0.00  0.00    +0.068 A 
ATOM     17  O   LIG A   1      -8.658  -3.467 124.871  0.00  0.00    -0.287 OA
BRANCH  13  18
ATOM     18  C   LIG A   1      -7.403  -2.488 129.316  0.00  0.00    +0.018 A 
ATOM     19  C   LIG A   1      -7.920  -1.762 130.378  0.00  0.00    +0.015 A 
ATOM     20  C   LIG A   1      -7.554  -1.986 131.708  0.00  0.00    +0.046 A 
ATOM     21  C   LIG A   1      -6.856  -3.131 132.035  0.00  0.00    +0.120 A 
ATOM     22  C   LIG A   1      -6.457  -3.979 131.000  0.00  0.00    +0.046 A 
ATOM     23  C   LIG A   1      -6.699  -3.645 129.655  0.00  0.00    +0.015 A 
BRANCH  21  24
ATOM     24  O   LIG A   1      -6.556  -3.522 133.310  0.00  0.00    -0.495 OA
ATOM     25  C   LIG A   1      -7.669  -3.602 134.202  0.00  0.00    +0.277 C 
ENDBRANCH  21  24
ENDBRANCH  13  18
BRANCH   7  27
ATOM     26  C   LIG A   1      -8.226   3.058 123.044  0.00  0.00    +0.277 C 
ATOM     27  O   LIG A   1      -8.642   2.872 124.389  0.00  0.00    -0.494 OA
ENDBRANCH   7  27
BRANCH   9  28
ATOM     28  O   LIG A   1      -9.792  -1.548 123.440  0.00  0.00    -0.506 OA
ATOM     29  H   LIG A   1     -10.672  -1.801 123.760  0.00  0.00    +0.292 HD
ENDBRANCH   9  28
ENDBRANCH   1  16
BRANCH   5  30
ATOM     30  O   LIG A   1      -3.129   2.254 127.506  0.00  0.00    -0.387 OA
ATOM     31  H   LIG A   1      -2.715   1.495 127.054  0.00  0.00    +0.210 HD
ENDBRANCH   5  30
BRANCH   6  32
ATOM     32  O   LIG A   1      -4.964   0.123 128.478  0.00  0.00    -0.387 OA
ATOM     33  H   LIG A   1      -4.082  -0.023 128.089  0.00  0.00    +0.210 HD
ENDBRANCH   6  32
BRANCH   2  34
ATOM     34  O   LIG A   1      -6.933   3.012 129.405  0.00  0.00    -0.340 OA
BRANCH  34  35
ATOM     35  C   LIG A   1      -8.207   3.658 129.259  0.00  0.00    +0.282 C 
ATOM     36  C   LIG A   1      -9.224   3.140 130.299  0.00  0.00    +0.201 C 
ATOM     37  O   LIG A   1      -8.039   5.069 129.227  0.00  0.00    -0.343 OA
ATOM     38  C   LIG A   1      -8.357   5.809 130.399  0.00  0.00    +0.149 C 
ATOM     39  C   LIG A   1      -9.654   6.573 130.164  0.00  0.00    +0.040 C 
ATOM     40  C   LIG A   1      -8.299   5.041 131.734  0.00  0.00    +0.174 C 
ATOM     41  C   LIG A   1      -8.911   3.638 131.706  0.00  0.00    +0.179 C 
BRANCH  36  42
ATOM     42  O   LIG A   1     -10.564   3.528 129.941  0.00  0.00    -0.384 OA
ATOM     43  H   LIG A   1     -10.514   3.748 128.986  0.00  0.00    +0.210 HD
ENDBRANCH  36  42
BRANCH  40  44
ATOM     44  O   LIG A   1      -6.927   4.868 132.137  0.00  0.00    -0.387 OA
ATOM     45  H   LIG A   1      -6.458   5.698 131.949  0.00  0.00    +0.210 HD
ENDBRANCH  40  44
BRANCH  41  46
ATOM     46  O   LIG A   1     -10.126   3.602 132.482  0.00  0.00    -0.386 OA
ATOM     47  H   LIG A   1     -10.697   4.313 132.134  0.00  0.00    +0.210 HD
ENDBRANCH  41  46
ENDBRANCH  34  35
ENDBRANCH   2  34
BRANCH   4  48
ATOM     48  C   LIG A   1      -4.408   4.433 126.172  0.00  0.00    +0.190 C 
BRANCH  48  49
ATOM     49  O   LIG A   1      -3.640   5.171 127.086  0.00  0.00    -0.392 OA
ATOM     50  H   LIG A   1      -2.824   4.620 127.086  0.00  0.00    +0.209 HD
ENDBRANCH  48  49
ENDBRANCH   4  48
TORSDOF 14
ENDMDL
MODEL 7
REMARK VINA RESULT:      -8.3      4.022      6.737
REMARK  Name = NuBBE_37
REMARK  17 active torsions:
REMARK  status: ('A' for Active; 'I' for Inactive)
REMARK    1  A    between atoms: C_1  and  O_2
REMARK    2  A    between atoms: O_2  and  C_3
REMARK    3  A    between atoms: C_5  and  O_6
REMARK    4  A    between atoms: C_10  and  C_11
REMARK    5  A    between atoms: C_14  and  O_15
REMARK    6  A    between atoms: O_15  and  C_16
REMARK    7  A    between atoms: C_21  and  C_22
REMARK    8  A    between atoms: C_24  and  O_26
REMARK    9  A    between atoms: O_26  and  C_27
REMARK   10  A    between atoms: C_29  and  O_31
REMARK   11  A    between atoms: C_33  and  C_35
REMARK   12  A    between atoms: C_36  and  O_38
REMARK   13  A    between atoms: C_39  and  O_41
REMARK   14  A    between atoms: C_43  and  C_45
REMARK   15  A    between atoms: C_45  and  O_46
REMARK   16  A    between atoms: C_47  and  O_49
REMARK   17  A    between atoms: C_50  and  O_52
REMARK                            x       y       z     vdW  Elec       q    Type
REMARK                         _______ _______ _______ _____ _____    ______ ____
ROOT
ATOM      1  C   LIG A   1      -5.163   1.409 130.930  0.00  0.00    +0.187 C 
ATOM      2  C   LIG A   1      -4.615   2.148 129.591  0.00  0.00    +0.186 C 
ATOM      3  O   LIG A   1      -6.612   1.456 131.004  0.00  0.00    -0.361 OA
ATOM      4  C   LIG A   1      -7.229   2.127 129.882  0.00  0.00    +0.175 C 
ATOM      5  C   LIG A   1      -6.789   1.332 128.647  0.00  0.00    +0.176 C 
ATOM      6  C   LIG A   1      -5.406   1.823 128.319  0.00  0.00    +0.177 C 
ENDROOT
BRANCH   1  16
ATOM      7  C   LIG A   1      -3.591   0.014 132.465  0.00  0.00    +0.133 A 
ATOM      8  C   LIG A   1      -3.051  -1.196 132.964  0.00  0.00    +0.092 A 
ATOM      9  C   LIG A   1      -3.552  -2.403 132.551  0.00  0.00    +0.135 A 
ATOM     10  C   LIG A   1      -4.581  -2.457 131.620  0.00  0.00    +0.106 A 
ATOM     11  C   LIG A   1      -5.199  -3.725 131.262  0.00  0.00    +0.197 A 
ATOM     12  C   LIG A   1      -6.066  -3.763 130.090  0.00  0.00    +0.098 A 
ATOM     13  C   LIG A   1      -6.410  -2.591 129.529  0.00  0.00    +0.139 A 
ATOM     14  O   LIG A   1      -6.001  -1.346 129.989  0.00  0.00    -0.454 OA
ATOM     15  C   LIG A   1      -5.056  -1.246 131.009  0.00  0.00    +0.152 A 
ATOM     16  C   LIG A   1      -4.565   0.047 131.431  0.00  0.00    +0.068 A 
ATOM     17  O   LIG A   1      -5.051  -4.807 131.911  0.00  0.00    -0.287 OA
BRANCH  13  18
ATOM     18  C   LIG A   1      -7.240  -2.666 128.316  0.00  0.00    +0.018 A 
ATOM     19  C   LIG A   1      -8.406  -3.413 128.364  0.00  0.00    +0.015 A 
ATOM     20  C   LIG A   1      -9.174  -3.705 127.233  0.00  0.00    +0.046 A 
ATOM     21  C   LIG A   1      -8.934  -3.024 126.057  0.00  0.00    +0.120 A 
ATOM     22  C   LIG A   1      -7.861  -2.132 126.018  0.00  0.00    +0.046 A 
ATOM     23  C   LIG A   1      -7.004  -1.980 127.123  0.00  0.00    +0.015 A 
BRANCH  21  24
ATOM     24  O   LIG A   1      -9.697  -3.128 124.928  0.00  0.00    -0.495 OA
ATOM     25  C   LIG A   1      -8.976  -3.067 123.696  0.00  0.00    +0.277 C 
ENDBRANCH  21  24
ENDBRANCH  13  18
BRANCH   7  27
ATOM     26  C   LIG A   1      -3.553   1.610 134.213  0.00  0.00    +0.277 C 
ATOM     27  O   LIG A   1      -2.971   1.096 133.024  0.00  0.00    -0.494 OA
ENDBRANCH   7  27
BRANCH   9  28
ATOM     28  O   LIG A   1      -3.003  -3.569 133.044  0.00  0.00    -0.506 OA
ATOM     29  H   LIG A   1      -2.760  -3.481 133.979  0.00  0.00    +0.292 HD
ENDBRANCH   9  28
ENDBRANCH   1  16
BRANCH   5  30
ATOM     30  O   LIG A   1      -7.614   1.535 127.502  0.00  0.00    -0.387 OA
ATOM     31  H   LIG A   1      -7.108   2.122 126.910  0.00  0.00    +0.210 HD
ENDBRANCH   5  30
BRANCH   6  32
ATOM     32  O   LIG A   1      -4.714   0.866 127.511  0.00  0.00    -0.387 OA
ATOM     33  H   LIG A   1      -5.011  -0.011 127.816  0.00  0.00    +0.210 HD
ENDBRANCH   6  32
BRANCH   2  34
ATOM     34  O   LIG A   1      -4.659   3.597 129.882  0.00  0.00    -0.340 OA
BRANCH  34  35
ATOM     35  C   LIG A   1      -3.443   4.326 129.653  0.00  0.00    +0.282 C 
ATOM     36  C   LIG A   1      -3.696   5.594 128.810  0.00  0.00    +0.201 C 
ATOM     37  O   LIG A   1      -2.762   4.540 130.881  0.00  0.00    -0.343 OA
ATOM     38  C   LIG A   1      -2.836   5.831 131.472  0.00  0.00    +0.149 C 
ATOM     39  C   LIG A   1      -1.491   6.528 131.311  0.00  0.00    +0.040 C 
ATOM     40  C   LIG A   1      -4.055   6.694 131.088  0.00  0.00    +0.174 C 
ATOM     41  C   LIG A   1      -4.425   6.674 129.603  0.00  0.00    +0.179 C 
BRANCH  36  42
ATOM     42  O   LIG A   1      -2.458   6.127 128.302  0.00  0.00    -0.384 OA
ATOM     43  H   LIG A   1      -2.694   7.007 127.940  0.00  0.00    +0.210 HD
ENDBRANCH  36  42
BRANCH  40  44
ATOM     44  O   LIG A   1      -5.222   6.231 131.794  0.00  0.00    -0.387 OA
ATOM     45  H   LIG A   1      -6.002   6.479 131.270  0.00  0.00    +0.210 HD
ENDBRANCH  40  44
BRANCH  41  46
ATOM     46  O   LIG A   1      -4.144   7.952 128.996  0.00  0.00    -0.386 OA
ATOM     47  H   LIG A   1      -3.830   7.765 128.090  0.00  0.00    +0.210 HD
ENDBRANCH  41  46
ENDBRANCH  34  35
ENDBRANCH   2  34
BRANCH   4  48
ATOM     48  C   LIG A   1      -8.730   2.103 130.070  0.00  0.00    +0.190 C 
BRANCH  48  49
ATOM     49  O   LIG A   1      -9.203   3.140 129.253  0.00  0.00    -0.392 OA
ATOM     50  H   LIG A   1      -8.787   3.905 129.712  0.00  0.00    +0.209 HD
ENDBRANCH  48  49
ENDBRANCH   4  48
TORSDOF 14
ENDMDL
MODEL 8
REMARK VINA RESULT:      -8.3      2.161      4.862
REMARK  Name = NuBBE_37
REMARK  17 active torsions:
REMARK  status: ('A' for Active; 'I' for Inactive)
REMARK    1  A    between atoms: C_1  and  O_2
REMARK    2  A    between atoms: O_2  and  C_3
REMARK    3  A    between atoms: C_5  and  O_6
REMARK    4  A    between atoms: C_10  and  C_11
REMARK    5  A    between atoms: C_14  and  O_15
REMARK    6  A    between atoms: O_15  and  C_16
REMARK    7  A    between atoms: C_21  and  C_22
REMARK    8  A    between atoms: C_24  and  O_26
REMARK    9  A    between atoms: O_26  and  C_27
REMARK   10  A    between atoms: C_29  and  O_31
REMARK   11  A    between atoms: C_33  and  C_35
REMARK   12  A    between atoms: C_36  and  O_38
REMARK   13  A    between atoms: C_39  and  O_41
REMARK   14  A    between atoms: C_43  and  C_45
REMARK   15  A    between atoms: C_45  and  O_46
REMARK   16  A    between atoms: C_47  and  O_49
REMARK   17  A    between atoms: C_50  and  O_52
REMARK                            x       y       z     vdW  Elec       q    Type
REMARK                         _______ _______ _______ _____ _____    ______ ____
ROOT
ATOM      1  C   LIG A   1      -6.579   1.501 130.547  0.00  0.00    +0.187 C 
ATOM      2  C   LIG A   1      -7.105   2.649 129.525  0.00  0.00    +0.186 C 
ATOM      3  O   LIG A   1      -6.941   1.810 131.919  0.00  0.00    -0.361 OA
ATOM      4  C   LIG A   1      -7.684   3.042 132.061  0.00  0.00    +0.175 C 
ATOM      5  C   LIG A   1      -8.948   2.848 131.213  0.00  0.00    +0.176 C 
ATOM      6  C   LIG A   1      -8.533   3.134 129.796  0.00  0.00    +0.177 C 
ENDROOT
BRANCH   1  16
ATOM      7  C   LIG A   1      -6.449  -1.015 131.202  0.00  0.00    +0.133 A 
ATOM      8  C   LIG A   1      -6.572  -2.401 130.943  0.00  0.00    +0.092 A 
ATOM      9  C   LIG A   1      -7.069  -2.843 129.745  0.00  0.00    +0.135 A 
ATOM     10  C   LIG A   1      -7.436  -1.938 128.758  0.00  0.00    +0.106 A 
ATOM     11  C   LIG A   1      -8.073  -2.389 127.529  0.00  0.00    +0.197 A 
ATOM     12  C   LIG A   1      -8.178  -1.447 126.421  0.00  0.00    +0.098 A 
ATOM     13  C   LIG A   1      -7.872  -0.161 126.662  0.00  0.00    +0.139 A 
ATOM     14  O   LIG A   1      -7.465   0.334 127.895  0.00  0.00    -0.454 OA
ATOM     15  C   LIG A   1      -7.201  -0.534 128.952  0.00  0.00    +0.152 A 
ATOM     16  C   LIG A   1      -6.695  -0.027 130.209  0.00  0.00    +0.068 A 
ATOM     17  O   LIG A   1      -8.562  -3.549 127.355  0.00  0.00    -0.287 OA
BRANCH  13  18
ATOM     18  C   LIG A   1      -7.935   0.752 125.511  0.00  0.00    +0.018 A 
ATOM     19  C   LIG A   1      -7.286   0.384 124.344  0.00  0.00    +0.015 A 
ATOM     20  C   LIG A   1      -7.123   1.244 123.255  0.00  0.00    +0.046 A 
ATOM     21  C   LIG A   1      -7.848   2.417 123.203  0.00  0.00    +0.120 A 
ATOM     22  C   LIG A   1      -8.649   2.746 124.299  0.00  0.00    +0.046 A 
ATOM     23  C   LIG A   1      -8.667   1.940 125.452  0.00  0.00    +0.015 A 
BRANCH  21  24
ATOM     24  O   LIG A   1      -7.872   3.271 122.137  0.00  0.00    -0.495 OA
ATOM     25  C   LIG A   1      -6.593   3.616 121.602  0.00  0.00    +0.277 C 
ENDBRANCH  21  24
ENDBRANCH  13  18
BRANCH   7  27
ATOM     26  C   LIG A   1      -5.701  -1.942 133.247  0.00  0.00    +0.277 C 
ATOM     27  O   LIG A   1      -5.963  -0.790 132.459  0.00  0.00    -0.494 OA
ENDBRANCH   7  27
BRANCH   9  28
ATOM     28  O   LIG A   1      -7.172  -4.200 129.513  0.00  0.00    -0.506 OA
ATOM     29  H   LIG A   1      -7.289  -4.392 128.570  0.00  0.00    +0.292 HD
ENDBRANCH   9  28
ENDBRANCH   1  16
BRANCH   5  30
ATOM     30  O   LIG A   1     -10.014   3.733 131.549  0.00  0.00    -0.387 OA
ATOM     31  H   LIG A   1      -9.892   3.952 132.491  0.00  0.00    +0.210 HD
ENDBRANCH   5  30
BRANCH   6  32
ATOM     32  O   LIG A   1      -9.460   2.548 128.876  0.00  0.00    -0.387 OA
ATOM     33  H   LIG A   1     -10.327   2.947 129.074  0.00  0.00    +0.210 HD
ENDBRANCH   6  32
BRANCH   2  34
ATOM     34  O   LIG A   1      -6.140   3.764 129.640  0.00  0.00    -0.340 OA
BRANCH  34  35
ATOM     35  C   LIG A   1      -5.892   4.513 128.439  0.00  0.00    +0.282 C 
ATOM     36  C   LIG A   1      -4.467   5.107 128.430  0.00  0.00    +0.201 C 
ATOM     37  O   LIG A   1      -6.231   3.735 127.299  0.00  0.00    -0.343 OA
ATOM     38  C   LIG A   1      -5.175   3.142 126.554  0.00  0.00    +0.149 C 
ATOM     39  C   LIG A   1      -5.020   3.891 125.236  0.00  0.00    +0.040 C 
ATOM     40  C   LIG A   1      -3.855   2.895 127.310  0.00  0.00    +0.174 C 
ATOM     41  C   LIG A   1      -3.400   4.039 128.220  0.00  0.00    +0.179 C 
BRANCH  36  42
ATOM     42  O   LIG A   1      -4.342   6.117 127.411  0.00  0.00    -0.384 OA
ATOM     43  H   LIG A   1      -5.224   6.155 126.985  0.00  0.00    +0.210 HD
ENDBRANCH  36  42
BRANCH  40  44
ATOM     44  O   LIG A   1      -3.989   1.740 128.161  0.00  0.00    -0.387 OA
ATOM     45  H   LIG A   1      -3.482   1.912 128.972  0.00  0.00    +0.210 HD
ENDBRANCH  40  44
BRANCH  41  46
ATOM     46  O   LIG A   1      -2.221   4.673 127.682  0.00  0.00    -0.386 OA
ATOM     47  H   LIG A   1      -1.464   4.117 127.946  0.00  0.00    +0.210 HD
ENDBRANCH  41  46
ENDBRANCH  34  35
ENDBRANCH   2  34
BRANCH   4  48
ATOM     48  C   LIG A   1      -8.007   3.246 133.524  0.00  0.00    +0.190 C 
BRANCH  48  49
ATOM     49  O   LIG A   1      -8.225   4.626 133.646  0.00  0.00    -0.392 OA
ATOM     50  H   LIG A   1      -8.225   4.700 134.627  0.00  0.00    +0.209 HD
ENDBRANCH  48  49
ENDBRANCH   4  48
TORSDOF 14
ENDMDL
MODEL 9
REMARK VINA RESULT:      -8.2      2.065      4.687
REMARK  Name = NuBBE_37
REMARK  17 active torsions:
REMARK  status: ('A' for Active; 'I' for Inactive)
REMARK    1  A    between atoms: C_1  and  O_2
REMARK    2  A    between atoms: O_2  and  C_3
REMARK    3  A    between atoms: C_5  and  O_6
REMARK    4  A    between atoms: C_10  and  C_11
REMARK    5  A    between atoms: C_14  and  O_15
REMARK    6  A    between atoms: O_15  and  C_16
REMARK    7  A    between atoms: C_21  and  C_22
REMARK    8  A    between atoms: C_24  and  O_26
REMARK    9  A    between atoms: O_26  and  C_27
REMARK   10  A    between atoms: C_29  and  O_31
REMARK   11  A    between atoms: C_33  and  C_35
REMARK   12  A    between atoms: C_36  and  O_38
REMARK   13  A    between atoms: C_39  and  O_41
REMARK   14  A    between atoms: C_43  and  C_45
REMARK   15  A    between atoms: C_45  and  O_46
REMARK   16  A    between atoms: C_47  and  O_49
REMARK   17  A    between atoms: C_50  and  O_52
REMARK                            x       y       z     vdW  Elec       q    Type
REMARK                         _______ _______ _______ _____ _____    ______ ____
ROOT
ATOM      1  C   LIG A   1      -7.312   3.381 130.325  0.00  0.00    +0.187 C 
ATOM      2  C   LIG A   1      -7.044   4.477 129.156  0.00  0.00    +0.186 C 
ATOM      3  O   LIG A   1      -8.335   3.835 131.250  0.00  0.00    -0.361 OA
ATOM      4  C   LIG A   1      -8.882   5.132 130.920  0.00  0.00    +0.175 C 
ATOM      5  C   LIG A   1      -9.475   4.972 129.514  0.00  0.00    +0.176 C 
ATOM      6  C   LIG A   1      -8.313   5.100 128.567  0.00  0.00    +0.177 C 
ENDROOT
BRANCH   1  16
ATOM      7  C   LIG A   1      -7.630   0.904 131.059  0.00  0.00    +0.133 A 
ATOM      8  C   LIG A   1      -7.744  -0.486 130.818  0.00  0.00    +0.092 A 
ATOM      9  C   LIG A   1      -7.766  -0.969 129.535  0.00  0.00    +0.135 A 
ATOM     10  C   LIG A   1      -7.653  -0.104 128.454  0.00  0.00    +0.106 A 
ATOM     11  C   LIG A   1      -7.792  -0.591 127.090  0.00  0.00    +0.197 A 
ATOM     12  C   LIG A   1      -7.389   0.289 126.000  0.00  0.00    +0.098 A 
ATOM     13  C   LIG A   1      -7.108   1.569 126.300  0.00  0.00    +0.139 A 
ATOM     14  O   LIG A   1      -7.178   2.112 127.577  0.00  0.00    -0.454 OA
ATOM     15  C   LIG A   1      -7.410   1.294 128.681  0.00  0.00    +0.152 A 
ATOM     16  C   LIG A   1      -7.398   1.844 130.018  0.00  0.00    +0.068 A 
ATOM     17  O   LIG A   1      -8.259  -1.730 126.775  0.00  0.00    -0.287 OA
BRANCH  13  18
ATOM     18  C   LIG A   1      -6.652   2.416 125.188  0.00  0.00    +0.018 A 
ATOM     19  C   LIG A   1      -7.157   2.166 123.921  0.00  0.00    +0.015 A 
ATOM     20  C   LIG A   1      -6.664   2.780 122.767  0.00  0.00    +0.046 A 
ATOM     21  C   LIG A   1      -5.826   3.870 122.883  0.00  0.00    +0.120 A 
ATOM     22  C   LIG A   1      -5.423   4.258 124.163  0.00  0.00    +0.046 A 
ATOM     23  C   LIG A   1      -5.804   3.521 125.298  0.00  0.00    +0.015 A 
BRANCH  21  24
ATOM     24  O   LIG A   1      -5.386   4.629 121.836  0.00  0.00    -0.495 OA
ATOM     25  C   LIG A   1      -5.866   4.232 120.550  0.00  0.00    +0.277 C 
ENDBRANCH  21  24
ENDBRANCH  13  18
BRANCH   7  27
ATOM     26  C   LIG A   1      -6.544   0.720 133.154  0.00  0.00    +0.277 C 
ATOM     27  O   LIG A   1      -7.657   1.174 132.398  0.00  0.00    -0.494 OA
ENDBRANCH   7  27
BRANCH   9  28
ATOM     28  O   LIG A   1      -7.869  -2.330 129.325  0.00  0.00    -0.506 OA
ATOM     29  H   LIG A   1      -7.219  -2.821 129.851  0.00  0.00    +0.292 HD
ENDBRANCH   9  28
ENDBRANCH   1  16
BRANCH   5  30
ATOM     30  O   LIG A   1     -10.436   5.967 129.172  0.00  0.00    -0.387 OA
ATOM     31  H   LIG A   1     -11.302   5.518 129.185  0.00  0.00    +0.210 HD
ENDBRANCH   5  30
BRANCH   6  32
ATOM     32  O   LIG A   1      -8.635   4.516 127.301  0.00  0.00    -0.387 OA
ATOM     33  H   LIG A   1      -9.608   4.508 127.245  0.00  0.00    +0.210 HD
ENDBRANCH   6  32
BRANCH   2  34
ATOM     34  O   LIG A   1      -6.182   5.514 129.765  0.00  0.00    -0.340 OA
BRANCH  34  35
ATOM     35  C   LIG A   1      -4.866   5.094 130.155  0.00  0.00    +0.282 C 
ATOM     36  C   LIG A   1      -3.887   5.126 128.961  0.00  0.00    +0.201 C 
ATOM     37  O   LIG A   1      -4.443   5.814 131.304  0.00  0.00    -0.343 OA
ATOM     38  C   LIG A   1      -3.510   6.873 131.127  0.00  0.00    +0.149 C 
ATOM     39  C   LIG A   1      -2.153   6.431 131.659  0.00  0.00    +0.040 C 
ATOM     40  C   LIG A   1      -3.470   7.526 129.731  0.00  0.00    +0.174 C 
ATOM     41  C   LIG A   1      -3.526   6.549 128.553  0.00  0.00    +0.179 C 
BRANCH  36  42
ATOM     42  O   LIG A   1      -2.684   4.395 129.267  0.00  0.00    -0.384 OA
ATOM     43  H   LIG A   1      -2.967   3.458 129.319  0.00  0.00    +0.210 HD
ENDBRANCH  36  42
BRANCH  40  44
ATOM     44  O   LIG A   1      -4.599   8.406 129.571  0.00  0.00    -0.387 OA
ATOM     45  H   LIG A   1      -4.503   9.127 130.215  0.00  0.00    +0.210 HD
ENDBRANCH  40  44
BRANCH  41  46
ATOM     46  O   LIG A   1      -2.259   6.518 127.863  0.00  0.00    -0.386 OA
ATOM     47  H   LIG A   1      -1.768   5.754 128.223  0.00  0.00    +0.210 HD
ENDBRANCH  41  46
ENDBRANCH  34  35
ENDBRANCH   2  34
BRANCH   4  48
ATOM     48  C   LIG A   1      -9.936   5.487 131.945  0.00  0.00    +0.190 C 
BRANCH  48  49
ATOM     49  O   LIG A   1     -11.081   4.794 131.526  0.00  0.00    -0.392 OA
ATOM     50  H   LIG A   1     -10.765   4.486 130.646  0.00  0.00    +0.209 HD
ENDBRANCH  48  49
ENDBRANCH   4  48
TORSDOF 14
ENDMDL
