MODEL 1
REMARK VINA RESULT:      -4.4      0.000      0.000
REMARK  Name = NuBBE_2122
REMARK  6 active torsions:
REMARK  status: ('A' for Active; 'I' for Inactive)
REMARK    1  A    between atoms: C_2  and  C_3
REMARK    2  A    between atoms: C_3  and  C_4
REMARK    3  A    between atoms: C_4  and  C_5
REMARK    4  A    between atoms: C_5  and  C_6
REMARK    5  A    between atoms: C_6  and  C_7
REMARK    6  A    between atoms: C_7  and  C_8
REMARK                            x       y       z     vdW  Elec       q    Type
REMARK                         _______ _______ _______ _____ _____    ______ ____
ROOT
ATOM      1  C   LIG A   1      -6.826  -1.970 123.527  0.00  0.00    +0.004 C 
ENDROOT
BRANCH   1   2
ATOM      2  C   LIG A   1      -5.557  -2.599 122.934  0.00  0.00    +0.026 C 
BRANCH   2   4
ATOM      3  C   LIG A   1      -4.372  -4.740 123.497  0.00  0.00    +0.004 C 
ATOM      4  C   LIG A   1      -4.861  -3.546 123.870  0.00  0.00    -0.035 C 
ENDBRANCH   2   4
ENDBRANCH   1   2
BRANCH   1   5
ATOM      5  C   LIG A   1      -8.072  -2.163 122.653  0.00  0.00    +0.000 C 
BRANCH   5   6
ATOM      6  C   LIG A   1      -9.131  -3.032 123.344  0.00  0.00    -0.000 C 
BRANCH   6   7
ATOM      7  C   LIG A   1      -8.632  -3.550 124.697  0.00  0.00    -0.003 C 
ATOM      8  C   LIG A   1      -9.428  -2.979 125.862  0.00  0.00    +0.004 C 
ENDBRANCH   6   7
ENDBRANCH   5   6
ENDBRANCH   1   5
TORSDOF 5
ENDMDL
MODEL 2
REMARK VINA RESULT:      -4.3      0.914      4.222
REMARK  Name = NuBBE_2122
REMARK  6 active torsions:
REMARK  status: ('A' for Active; 'I' for Inactive)
REMARK    1  A    between atoms: C_2  and  C_3
REMARK    2  A    between atoms: C_3  and  C_4
REMARK    3  A    between atoms: C_4  and  C_5
REMARK    4  A    between atoms: C_5  and  C_6
REMARK    5  A    between atoms: C_6  and  C_7
REMARK    6  A    between atoms: C_7  and  C_8
REMARK                            x       y       z     vdW  Elec       q    Type
REMARK                         _______ _______ _______ _____ _____    ______ ____
ROOT
ATOM      1  C   LIG A   1      -8.301  -2.968 123.737  0.00  0.00    +0.004 C 
ENDROOT
BRANCH   1   2
ATOM      2  C   LIG A   1      -8.294  -3.869 124.980  0.00  0.00    +0.026 C 
BRANCH   2   4
ATOM      3  C   LIG A   1      -8.873  -3.719 127.419  0.00  0.00    +0.004 C 
ATOM      4  C   LIG A   1      -9.010  -3.274 126.159  0.00  0.00    -0.035 C 
ENDBRANCH   2   4
ENDBRANCH   1   2
BRANCH   1   5
ATOM      5  C   LIG A   1      -6.930  -2.363 123.410  0.00  0.00    +0.000 C 
BRANCH   5   6
ATOM      6  C   LIG A   1      -5.817  -2.953 124.286  0.00  0.00    -0.000 C 
BRANCH   6   7
ATOM      7  C   LIG A   1      -4.597  -3.350 123.449  0.00  0.00    -0.003 C 
ATOM      8  C   LIG A   1      -4.295  -4.839 123.541  0.00  0.00    +0.004 C 
ENDBRANCH   6   7
ENDBRANCH   5   6
ENDBRANCH   1   5
TORSDOF 5
ENDMDL
MODEL 3
REMARK VINA RESULT:      -4.3      1.160      1.665
REMARK  Name = NuBBE_2122
REMARK  6 active torsions:
REMARK  status: ('A' for Active; 'I' for Inactive)
REMARK    1  A    between atoms: C_2  and  C_3
REMARK    2  A    between atoms: C_3  and  C_4
REMARK    3  A    between atoms: C_4  and  C_5
REMARK    4  A    between atoms: C_5  and  C_6
REMARK    5  A    between atoms: C_6  and  C_7
REMARK    6  A    between atoms: C_7  and  C_8
REMARK                            x       y       z     vdW  Elec       q    Type
REMARK                         _______ _______ _______ _____ _____    ______ ____
ROOT
ATOM      1  C   LIG A   1      -6.713  -3.116 124.766  0.00  0.00    +0.004 C 
ENDROOT
BRANCH   1   2
ATOM      2  C   LIG A   1      -5.834  -2.677 123.586  0.00  0.00    +0.026 C 
BRANCH   2   4
ATOM      3  C   LIG A   1      -4.464  -4.780 123.615  0.00  0.00    +0.004 C 
ATOM      4  C   LIG A   1      -4.550  -3.448 123.473  0.00  0.00    -0.035 C 
ENDBRANCH   2   4
ENDBRANCH   1   2
BRANCH   1   5
ATOM      5  C   LIG A   1      -8.123  -3.556 124.350  0.00  0.00    +0.000 C 
BRANCH   5   6
ATOM      6  C   LIG A   1      -9.180  -3.151 125.385  0.00  0.00    -0.000 C 
BRANCH   6   7
ATOM      7  C   LIG A   1      -8.549  -2.894 126.758  0.00  0.00    -0.003 C 
ATOM      8  C   LIG A   1      -8.971  -3.932 127.788  0.00  0.00    +0.004 C 
ENDBRANCH   6   7
ENDBRANCH   5   6
ENDBRANCH   1   5
TORSDOF 5
ENDMDL
MODEL 4
REMARK VINA RESULT:      -4.1      0.955      3.971
REMARK  Name = NuBBE_2122
REMARK  6 active torsions:
REMARK  status: ('A' for Active; 'I' for Inactive)
REMARK    1  A    between atoms: C_2  and  C_3
REMARK    2  A    between atoms: C_3  and  C_4
REMARK    3  A    between atoms: C_4  and  C_5
REMARK    4  A    between atoms: C_5  and  C_6
REMARK    5  A    between atoms: C_6  and  C_7
REMARK    6  A    between atoms: C_7  and  C_8
REMARK                            x       y       z     vdW  Elec       q    Type
REMARK                         _______ _______ _______ _____ _____    ______ ____
ROOT
ATOM      1  C   LIG A   1      -7.093  -0.986 123.991  0.00  0.00    +0.004 C 
ENDROOT
BRANCH   1   2
ATOM      2  C   LIG A   1      -7.727  -1.742 122.815  0.00  0.00    +0.026 C 
BRANCH   2   4
ATOM      3  C   LIG A   1      -9.178  -3.396 124.024  0.00  0.00    +0.004 C 
ATOM      4  C   LIG A   1      -9.043  -2.384 123.152  0.00  0.00    -0.035 C 
ENDBRANCH   2   4
ENDBRANCH   1   2
BRANCH   1   5
ATOM      5  C   LIG A   1      -5.759  -1.583 124.457  0.00  0.00    +0.000 C 
BRANCH   5   6
ATOM      6  C   LIG A   1      -5.232  -2.644 123.482  0.00  0.00    -0.000 C 
BRANCH   6   7
ATOM      7  C   LIG A   1      -5.099  -4.011 124.161  0.00  0.00    -0.003 C 
ATOM      8  C   LIG A   1      -4.160  -4.941 123.405  0.00  0.00    +0.004 C 
ENDBRANCH   6   7
ENDBRANCH   5   6
ENDBRANCH   1   5
TORSDOF 5
ENDMDL
MODEL 5
REMARK VINA RESULT:      -4.1     12.716     14.628
REMARK  Name = NuBBE_2122
REMARK  6 active torsions:
REMARK  status: ('A' for Active; 'I' for Inactive)
REMARK    1  A    between atoms: C_2  and  C_3
REMARK    2  A    between atoms: C_3  and  C_4
REMARK    3  A    between atoms: C_4  and  C_5
REMARK    4  A    between atoms: C_5  and  C_6
REMARK    5  A    between atoms: C_6  and  C_7
REMARK    6  A    between atoms: C_7  and  C_8
REMARK                            x       y       z     vdW  Elec       q    Type
REMARK                         _______ _______ _______ _____ _____    ______ ____
ROOT
ATOM      1  C   LIG A   1     -13.217   8.084 128.558  0.00  0.00    +0.004 C 
ENDROOT
BRANCH   1   2
ATOM      2  C   LIG A   1     -12.670   9.405 129.118  0.00  0.00    +0.026 C 
BRANCH   2   4
ATOM      3  C   LIG A   1     -13.720  11.491 130.039  0.00  0.00    +0.004 C 
ATOM      4  C   LIG A   1     -13.671  10.524 129.109  0.00  0.00    -0.035 C 
ENDBRANCH   2   4
ENDBRANCH   1   2
BRANCH   1   5
ATOM      5  C   LIG A   1     -13.132   6.915 129.548  0.00  0.00    +0.000 C 
BRANCH   5   6
ATOM      6  C   LIG A   1     -12.845   7.393 130.978  0.00  0.00    -0.000 C 
BRANCH   6   7
ATOM      7  C   LIG A   1     -11.715   6.583 131.622  0.00  0.00    -0.003 C 
ATOM      8  C   LIG A   1     -10.423   6.659 130.821  0.00  0.00    +0.004 C 
ENDBRANCH   6   7
ENDBRANCH   5   6
ENDBRANCH   1   5
TORSDOF 5
ENDMDL
MODEL 6
REMARK VINA RESULT:      -4.0     12.038     13.085
REMARK  Name = NuBBE_2122
REMARK  6 active torsions:
REMARK  status: ('A' for Active; 'I' for Inactive)
REMARK    1  A    between atoms: C_2  and  C_3
REMARK    2  A    between atoms: C_3  and  C_4
REMARK    3  A    between atoms: C_4  and  C_5
REMARK    4  A    between atoms: C_5  and  C_6
REMARK    5  A    between atoms: C_6  and  C_7
REMARK    6  A    between atoms: C_7  and  C_8
REMARK                            x       y       z     vdW  Elec       q    Type
REMARK                         _______ _______ _______ _____ _____    ______ ____
ROOT
ATOM      1  C   LIG A   1     -13.012   7.603 129.201  0.00  0.00    +0.004 C 
ENDROOT
BRANCH   1   2
ATOM      2  C   LIG A   1     -12.204   8.824 128.737  0.00  0.00    +0.026 C 
BRANCH   2   4
ATOM      3  C   LIG A   1     -10.835   7.745 126.930  0.00  0.00    +0.004 C 
ATOM      4  C   LIG A   1     -10.912   8.468 128.059  0.00  0.00    -0.035 C 
ENDBRANCH   2   4
ENDBRANCH   1   2
BRANCH   1   5
ATOM      5  C   LIG A   1     -12.741   7.206 130.658  0.00  0.00    +0.000 C 
BRANCH   5   6
ATOM      6  C   LIG A   1     -11.722   6.063 130.761  0.00  0.00    -0.000 C 
BRANCH   6   7
ATOM      7  C   LIG A   1     -10.555   6.435 131.682  0.00  0.00    -0.003 C 
ATOM      8  C   LIG A   1      -9.301   6.803 130.902  0.00  0.00    +0.004 C 
ENDBRANCH   6   7
ENDBRANCH   5   6
ENDBRANCH   1   5
TORSDOF 5
ENDMDL
MODEL 7
REMARK VINA RESULT:      -3.9     11.688     12.901
REMARK  Name = NuBBE_2122
REMARK  6 active torsions:
REMARK  status: ('A' for Active; 'I' for Inactive)
REMARK    1  A    between atoms: C_2  and  C_3
REMARK    2  A    between atoms: C_3  and  C_4
REMARK    3  A    between atoms: C_4  and  C_5
REMARK    4  A    between atoms: C_5  and  C_6
REMARK    5  A    between atoms: C_6  and  C_7
REMARK    6  A    between atoms: C_7  and  C_8
REMARK                            x       y       z     vdW  Elec       q    Type
REMARK                         _______ _______ _______ _____ _____    ______ ____
ROOT
ATOM      1  C   LIG A   1      -9.948   7.451 129.813  0.00  0.00    +0.004 C 
ENDROOT
BRANCH   1   2
ATOM      2  C   LIG A   1     -10.487   6.619 130.985  0.00  0.00    +0.026 C 
BRANCH   2   4
ATOM      3  C   LIG A   1     -12.813   7.485 131.362  0.00  0.00    +0.004 C 
ATOM      4  C   LIG A   1     -11.984   6.495 130.995  0.00  0.00    -0.035 C 
ENDBRANCH   2   4
ENDBRANCH   1   2
BRANCH   1   5
ATOM      5  C   LIG A   1     -10.346   6.904 128.436  0.00  0.00    +0.000 C 
BRANCH   5   6
ATOM      6  C   LIG A   1     -11.190   7.908 127.640  0.00  0.00    -0.000 C 
BRANCH   6   7
ATOM      7  C   LIG A   1     -12.430   7.241 127.035  0.00  0.00    -0.003 C 
ATOM      8  C   LIG A   1     -13.711   7.652 127.747  0.00  0.00    +0.004 C 
ENDBRANCH   6   7
ENDBRANCH   5   6
ENDBRANCH   1   5
TORSDOF 5
ENDMDL
MODEL 8
REMARK VINA RESULT:      -3.9     11.918     13.009
REMARK  Name = NuBBE_2122
REMARK  6 active torsions:
REMARK  status: ('A' for Active; 'I' for Inactive)
REMARK    1  A    between atoms: C_2  and  C_3
REMARK    2  A    between atoms: C_3  and  C_4
REMARK    3  A    between atoms: C_4  and  C_5
REMARK    4  A    between atoms: C_5  and  C_6
REMARK    5  A    between atoms: C_6  and  C_7
REMARK    6  A    between atoms: C_7  and  C_8
REMARK                            x       y       z     vdW  Elec       q    Type
REMARK                         _______ _______ _______ _____ _____    ______ ____
ROOT
ATOM      1  C   LIG A   1     -10.055   8.096 129.007  0.00  0.00    +0.004 C 
ENDROOT
BRANCH   1   2
ATOM      2  C   LIG A   1     -10.866   8.194 127.707  0.00  0.00    +0.026 C 
BRANCH   2   4
ATOM      3  C   LIG A   1     -13.244   7.389 127.686  0.00  0.00    +0.004 C 
ATOM      4  C   LIG A   1     -12.343   8.354 127.929  0.00  0.00    -0.035 C 
ENDBRANCH   2   4
ENDBRANCH   1   2
BRANCH   1   5
ATOM      5  C   LIG A   1      -9.999   6.678 129.590  0.00  0.00    +0.000 C 
BRANCH   5   6
ATOM      6  C   LIG A   1     -10.483   6.635 131.045  0.00  0.00    -0.000 C 
BRANCH   6   7
ATOM      7  C   LIG A   1     -11.976   6.298 131.129  0.00  0.00    -0.003 C 
ATOM      8  C   LIG A   1     -12.822   7.517 131.467  0.00  0.00    +0.004 C 
ENDBRANCH   6   7
ENDBRANCH   5   6
ENDBRANCH   1   5
TORSDOF 5
ENDMDL
MODEL 9
REMARK VINA RESULT:      -3.8     12.094     12.982
REMARK  Name = NuBBE_2122
REMARK  6 active torsions:
REMARK  status: ('A' for Active; 'I' for Inactive)
REMARK    1  A    between atoms: C_2  and  C_3
REMARK    2  A    between atoms: C_3  and  C_4
REMARK    3  A    between atoms: C_4  and  C_5
REMARK    4  A    between atoms: C_5  and  C_6
REMARK    5  A    between atoms: C_6  and  C_7
REMARK    6  A    between atoms: C_7  and  C_8
REMARK                            x       y       z     vdW  Elec       q    Type
REMARK                         _______ _______ _______ _____ _____    ______ ____
ROOT
ATOM      1  C   LIG A   1     -11.826   6.632 129.966  0.00  0.00    +0.004 C 
ENDROOT
BRANCH   1   2
ATOM      2  C   LIG A   1     -11.421   6.503 131.441  0.00  0.00    +0.026 C 
BRANCH   2   4
ATOM      3  C   LIG A   1      -8.998   6.879 130.904  0.00  0.00    +0.004 C 
ATOM      4  C   LIG A   1      -9.949   6.288 131.645  0.00  0.00    -0.035 C 
ENDBRANCH   2   4
ENDBRANCH   1   2
BRANCH   1   5
ATOM      5  C   LIG A   1     -12.754   7.821 129.685  0.00  0.00    +0.000 C 
BRANCH   5   6
ATOM      6  C   LIG A   1     -12.141   8.804 128.679  0.00  0.00    -0.000 C 
BRANCH   6   7
ATOM      7  C   LIG A   1     -10.843   8.253 128.079  0.00  0.00    -0.003 C 
ATOM      8  C   LIG A   1     -11.019   7.812 126.633  0.00  0.00    +0.004 C 
ENDBRANCH   6   7
ENDBRANCH   5   6
ENDBRANCH   1   5
TORSDOF 5
ENDMDL
