MODEL 1
REMARK VINA RESULT:      -7.8      0.000      0.000
REMARK  Name = NuBBE_1917
REMARK  5 active torsions:
REMARK  status: ('A' for Active; 'I' for Inactive)
REMARK    1  A    between atoms: C_1  and  C_2
REMARK    2  A    between atoms: C_7  and  C_10
REMARK    3  A    between atoms: C_7  and  C_12
REMARK    4  A    between atoms: C_17  and  C_18
REMARK    5  A    between atoms: C_17  and  C_19
REMARK                            x       y       z     vdW  Elec       q    Type
REMARK                         _______ _______ _______ _____ _____    ______ ____
ROOT
ATOM      1  C   LIG A   1      -8.620  -0.420 126.636  0.00  0.00    +0.012 C 
ATOM      2  C   LIG A   1      -8.157  -1.749 125.958  0.00  0.00    -0.022 C 
ATOM      3  C   LIG A   1      -7.579  -2.730 127.049  0.00  0.00    +0.021 C 
ATOM      4  C   LIG A   1      -6.291  -2.192 127.650  0.00  0.00    -0.069 C 
ATOM      5  C   LIG A   1      -6.060  -2.137 128.976  0.00  0.00    -0.017 C 
ATOM      6  C   LIG A   1      -7.000  -2.668 130.045  0.00  0.00    +0.004 C 
ATOM      7  C   LIG A   1      -7.968  -3.687 129.393  0.00  0.00    +0.015 C 
ATOM      8  C   LIG A   1      -8.618  -3.138 128.123  0.00  0.00    +0.009 C 
ATOM      9  C   LIG A   1      -6.167  -3.425 131.101  0.00  0.00    +0.020 C 
ATOM     10  C   LIG A   1      -5.233  -1.765 126.668  0.00  0.00    +0.031 C 
ATOM     11  C   LIG A   1      -5.766  -0.885 125.540  0.00  0.00    +0.009 C 
ATOM     12  C   LIG A   1      -7.068  -1.386 124.870  0.00  0.00    +0.001 C 
ATOM     13  C   LIG A   1      -6.853  -2.419 123.690  0.00  0.00    -0.032 C 
ATOM     14  C   LIG A   1      -6.196  -1.690 122.486  0.00  0.00    +0.011 C 
ATOM     15  C   LIG A   1      -5.933  -3.610 124.018  0.00  0.00    +0.011 C 
ATOM     16  C   LIG A   1      -8.214  -2.959 123.186  0.00  0.00    +0.007 C 
ATOM     17  C   LIG A   1      -9.113  -3.463 124.301  0.00  0.00    +0.001 C 
ATOM     18  C   LIG A   1      -9.418  -2.332 125.269  0.00  0.00    +0.007 C 
ENDROOT
BRANCH   6  19
ATOM     19  C   LIG A   1      -7.653  -1.485 130.750  0.00  0.00    -0.024 C 
ATOM     20  C   LIG A   1      -7.844  -0.241 130.287  0.00  0.00    +0.005 C 
ENDBRANCH   6  19
TORSDOF 1
ENDMDL
MODEL 2
REMARK VINA RESULT:      -7.5      2.814      5.450
REMARK  Name = NuBBE_1917
REMARK  5 active torsions:
REMARK  status: ('A' for Active; 'I' for Inactive)
REMARK    1  A    between atoms: C_1  and  C_2
REMARK    2  A    between atoms: C_7  and  C_10
REMARK    3  A    between atoms: C_7  and  C_12
REMARK    4  A    between atoms: C_17  and  C_18
REMARK    5  A    between atoms: C_17  and  C_19
REMARK                            x       y       z     vdW  Elec       q    Type
REMARK                         _______ _______ _______ _____ _____    ______ ____
ROOT
ATOM      1  C   LIG A   1      -9.003  -0.077 125.728  0.00  0.00    +0.012 C 
ATOM      2  C   LIG A   1      -7.999   0.943 125.104  0.00  0.00    -0.022 C 
ATOM      3  C   LIG A   1      -6.859   0.168 124.338  0.00  0.00    +0.021 C 
ATOM      4  C   LIG A   1      -5.984  -0.621 125.299  0.00  0.00    -0.069 C 
ATOM      5  C   LIG A   1      -5.653  -1.913 125.107  0.00  0.00    -0.017 C 
ATOM      6  C   LIG A   1      -6.028  -2.734 123.886  0.00  0.00    +0.004 C 
ATOM      7  C   LIG A   1      -6.387  -1.769 122.729  0.00  0.00    +0.015 C 
ATOM      8  C   LIG A   1      -7.382  -0.691 123.160  0.00  0.00    +0.009 C 
ATOM      9  C   LIG A   1      -4.797  -3.554 123.446  0.00  0.00    +0.020 C 
ATOM     10  C   LIG A   1      -5.444   0.143 126.478  0.00  0.00    +0.031 C 
ATOM     11  C   LIG A   1      -6.498   0.983 127.197  0.00  0.00    +0.009 C 
ATOM     12  C   LIG A   1      -7.412   1.827 126.277  0.00  0.00    +0.001 C 
ATOM     13  C   LIG A   1      -6.835   3.248 125.891  0.00  0.00    -0.032 C 
ATOM     14  C   LIG A   1      -6.818   4.153 127.154  0.00  0.00    +0.011 C 
ATOM     15  C   LIG A   1      -5.392   3.249 125.351  0.00  0.00    +0.011 C 
ATOM     16  C   LIG A   1      -7.757   3.949 124.863  0.00  0.00    +0.007 C 
ATOM     17  C   LIG A   1      -8.107   3.073 123.673  0.00  0.00    +0.001 C 
ATOM     18  C   LIG A   1      -8.838   1.828 124.145  0.00  0.00    +0.007 C 
ENDROOT
BRANCH   6  19
ATOM     19  C   LIG A   1      -7.113  -3.730 124.283  0.00  0.00    -0.024 C 
ATOM     20  C   LIG A   1      -8.076  -3.587 125.206  0.00  0.00    +0.005 C 
ENDBRANCH   6  19
TORSDOF 1
ENDMDL
MODEL 3
REMARK VINA RESULT:      -7.5      1.253      5.725
REMARK  Name = NuBBE_1917
REMARK  5 active torsions:
REMARK  status: ('A' for Active; 'I' for Inactive)
REMARK    1  A    between atoms: C_1  and  C_2
REMARK    2  A    between atoms: C_7  and  C_10
REMARK    3  A    between atoms: C_7  and  C_12
REMARK    4  A    between atoms: C_17  and  C_18
REMARK    5  A    between atoms: C_17  and  C_19
REMARK                            x       y       z     vdW  Elec       q    Type
REMARK                         _______ _______ _______ _____ _____    ______ ____
ROOT
ATOM      1  C   LIG A   1      -7.013  -0.254 128.709  0.00  0.00    +0.012 C 
ATOM      2  C   LIG A   1      -6.282  -1.623 128.885  0.00  0.00    -0.022 C 
ATOM      3  C   LIG A   1      -6.590  -2.554 127.650  0.00  0.00    +0.021 C 
ATOM      4  C   LIG A   1      -8.056  -2.957 127.613  0.00  0.00    -0.069 C 
ATOM      5  C   LIG A   1      -8.817  -2.874 126.504  0.00  0.00    -0.017 C 
ATOM      6  C   LIG A   1      -8.316  -2.452 125.135  0.00  0.00    +0.004 C 
ATOM      7  C   LIG A   1      -6.776  -2.618 125.096  0.00  0.00    +0.015 C 
ATOM      8  C   LIG A   1      -6.093  -1.975 126.302  0.00  0.00    +0.009 C 
ATOM      9  C   LIG A   1      -8.916  -3.401 124.075  0.00  0.00    +0.020 C 
ATOM     10  C   LIG A   1      -8.617  -3.521 128.890  0.00  0.00    +0.031 C 
ATOM     11  C   LIG A   1      -8.266  -2.699 130.128  0.00  0.00    +0.009 C 
ATOM     12  C   LIG A   1      -6.783  -2.271 130.238  0.00  0.00    +0.001 C 
ATOM     13  C   LIG A   1      -5.833  -3.335 130.924  0.00  0.00    -0.032 C 
ATOM     14  C   LIG A   1      -6.193  -3.444 132.431  0.00  0.00    +0.011 C 
ATOM     15  C   LIG A   1      -5.932  -4.765 130.361  0.00  0.00    +0.011 C 
ATOM     16  C   LIG A   1      -4.358  -2.870 130.858  0.00  0.00    +0.007 C 
ATOM     17  C   LIG A   1      -3.921  -2.448 129.466  0.00  0.00    +0.001 C 
ATOM     18  C   LIG A   1      -4.772  -1.285 128.988  0.00  0.00    +0.007 C 
ENDROOT
BRANCH   6  19
ATOM     19  C   LIG A   1      -8.842  -1.053 124.834  0.00  0.00    -0.024 C 
ATOM     20  C   LIG A   1      -9.297  -0.130 125.696  0.00  0.00    +0.005 C 
ENDBRANCH   6  19
TORSDOF 1
ENDMDL
MODEL 4
REMARK VINA RESULT:      -7.3      7.221     10.210
REMARK  Name = NuBBE_1917
REMARK  5 active torsions:
REMARK  status: ('A' for Active; 'I' for Inactive)
REMARK    1  A    between atoms: C_1  and  C_2
REMARK    2  A    between atoms: C_7  and  C_10
REMARK    3  A    between atoms: C_7  and  C_12
REMARK    4  A    between atoms: C_17  and  C_18
REMARK    5  A    between atoms: C_17  and  C_19
REMARK                            x       y       z     vdW  Elec       q    Type
REMARK                         _______ _______ _______ _____ _____    ______ ____
ROOT
ATOM      1  C   LIG A   1      -8.753   3.918 129.264  0.00  0.00    +0.012 C 
ATOM      2  C   LIG A   1      -8.951   4.155 130.795  0.00  0.00    -0.022 C 
ATOM      3  C   LIG A   1      -9.954   5.350 131.023  0.00  0.00    +0.021 C 
ATOM      4  C   LIG A   1      -9.362   6.668 130.552  0.00  0.00    -0.069 C 
ATOM      5  C   LIG A   1     -10.026   7.539 129.766  0.00  0.00    -0.017 C 
ATOM      6  C   LIG A   1     -11.465   7.374 129.310  0.00  0.00    +0.004 C 
ATOM      7  C   LIG A   1     -12.174   6.371 130.254  0.00  0.00    +0.015 C 
ATOM      8  C   LIG A   1     -11.368   5.087 130.447  0.00  0.00    +0.009 C 
ATOM      9  C   LIG A   1     -12.184   8.733 129.447  0.00  0.00    +0.020 C 
ATOM     10  C   LIG A   1      -7.984   6.992 131.063  0.00  0.00    +0.031 C 
ATOM     11  C   LIG A   1      -6.999   5.831 130.945  0.00  0.00    +0.009 C 
ATOM     12  C   LIG A   1      -7.533   4.460 131.426  0.00  0.00    +0.001 C 
ATOM     13  C   LIG A   1      -7.358   4.186 132.975  0.00  0.00    -0.032 C 
ATOM     14  C   LIG A   1      -5.848   4.014 133.296  0.00  0.00    +0.011 C 
ATOM     15  C   LIG A   1      -7.862   5.308 133.903  0.00  0.00    +0.011 C 
ATOM     16  C   LIG A   1      -8.046   2.858 133.373  0.00  0.00    +0.007 C 
ATOM     17  C   LIG A   1      -9.477   2.747 132.877  0.00  0.00    +0.001 C 
ATOM     18  C   LIG A   1      -9.504   2.822 131.360  0.00  0.00    +0.007 C 
ENDROOT
BRANCH   6  19
ATOM     19  C   LIG A   1     -11.468   7.012 127.829  0.00  0.00    -0.024 C 
ATOM     20  C   LIG A   1     -10.475   7.147 126.936  0.00  0.00    +0.005 C 
ENDBRANCH   6  19
TORSDOF 1
ENDMDL
MODEL 5
REMARK VINA RESULT:      -7.1      7.435      9.178
REMARK  Name = NuBBE_1917
REMARK  5 active torsions:
REMARK  status: ('A' for Active; 'I' for Inactive)
REMARK    1  A    between atoms: C_1  and  C_2
REMARK    2  A    between atoms: C_7  and  C_10
REMARK    3  A    between atoms: C_7  and  C_12
REMARK    4  A    between atoms: C_17  and  C_18
REMARK    5  A    between atoms: C_17  and  C_19
REMARK                            x       y       z     vdW  Elec       q    Type
REMARK                         _______ _______ _______ _____ _____    ______ ____
ROOT
ATOM      1  C   LIG A   1      -5.339   5.445 130.324  0.00  0.00    +0.012 C 
ATOM      2  C   LIG A   1      -4.293   4.469 129.698  0.00  0.00    -0.022 C 
ATOM      3  C   LIG A   1      -2.893   4.668 130.396  0.00  0.00    +0.021 C 
ATOM      4  C   LIG A   1      -2.309   6.036 130.082  0.00  0.00    -0.069 C 
ATOM      5  C   LIG A   1      -1.805   6.859 131.024  0.00  0.00    -0.017 C 
ATOM      6  C   LIG A   1      -1.674   6.516 132.497  0.00  0.00    +0.004 C 
ATOM      7  C   LIG A   1      -1.728   4.976 132.656  0.00  0.00    +0.015 C 
ATOM      8  C   LIG A   1      -2.911   4.357 131.913  0.00  0.00    +0.009 C 
ATOM      9  C   LIG A   1      -0.291   6.989 132.993  0.00  0.00    +0.020 C 
ATOM     10  C   LIG A   1      -2.265   6.417 128.627  0.00  0.00    +0.031 C 
ATOM     11  C   LIG A   1      -3.575   6.155 127.887  0.00  0.00    +0.009 C 
ATOM     12  C   LIG A   1      -4.216   4.771 128.147  0.00  0.00    +0.001 C 
ATOM     13  C   LIG A   1      -3.689   3.609 127.211  0.00  0.00    -0.032 C 
ATOM     14  C   LIG A   1      -4.178   3.862 125.758  0.00  0.00    +0.011 C 
ATOM     15  C   LIG A   1      -2.157   3.477 127.123  0.00  0.00    +0.011 C 
ATOM     16  C   LIG A   1      -4.287   2.248 127.643  0.00  0.00    +0.007 C 
ATOM     17  C   LIG A   1      -4.137   1.969 129.129  0.00  0.00    +0.001 C 
ATOM     18  C   LIG A   1      -4.855   3.042 129.930  0.00  0.00    +0.007 C 
ENDROOT
BRANCH   6  19
ATOM     19  C   LIG A   1      -2.724   7.303 133.275  0.00  0.00    -0.024 C 
ATOM     20  C   LIG A   1      -3.285   7.001 134.455  0.00  0.00    +0.005 C 
ENDBRANCH   6  19
TORSDOF 1
ENDMDL
MODEL 6
REMARK VINA RESULT:      -7.0      1.435      3.280
REMARK  Name = NuBBE_1917
REMARK  5 active torsions:
REMARK  status: ('A' for Active; 'I' for Inactive)
REMARK    1  A    between atoms: C_1  and  C_2
REMARK    2  A    between atoms: C_7  and  C_10
REMARK    3  A    between atoms: C_7  and  C_12
REMARK    4  A    between atoms: C_17  and  C_18
REMARK    5  A    between atoms: C_17  and  C_19
REMARK                            x       y       z     vdW  Elec       q    Type
REMARK                         _______ _______ _______ _____ _____    ______ ____
ROOT
ATOM      1  C   LIG A   1      -5.401  -2.908 125.890  0.00  0.00    +0.012 C 
ATOM      2  C   LIG A   1      -6.387  -1.696 125.924  0.00  0.00    -0.022 C 
ATOM      3  C   LIG A   1      -6.941  -1.502 127.388  0.00  0.00    +0.021 C 
ATOM      4  C   LIG A   1      -7.823  -2.667 127.805  0.00  0.00    -0.069 C 
ATOM      5  C   LIG A   1      -7.693  -3.309 128.983  0.00  0.00    -0.017 C 
ATOM      6  C   LIG A   1      -6.719  -2.920 130.081  0.00  0.00    +0.004 C 
ATOM      7  C   LIG A   1      -6.286  -1.449 129.864  0.00  0.00    +0.015 C 
ATOM      8  C   LIG A   1      -5.837  -1.182 128.427  0.00  0.00    +0.009 C 
ATOM      9  C   LIG A   1      -7.450  -2.997 131.438  0.00  0.00    +0.020 C 
ATOM     10  C   LIG A   1      -8.916  -3.045 126.841  0.00  0.00    +0.031 C 
ATOM     11  C   LIG A   1      -8.442  -3.156 125.394  0.00  0.00    +0.009 C 
ATOM     12  C   LIG A   1      -7.553  -1.991 124.897  0.00  0.00    +0.001 C 
ATOM     13  C   LIG A   1      -8.347  -0.745 124.330  0.00  0.00    -0.032 C 
ATOM     14  C   LIG A   1      -9.036  -1.144 122.995  0.00  0.00    +0.011 C 
ATOM     15  C   LIG A   1      -9.467  -0.208 125.240  0.00  0.00    +0.011 C 
ATOM     16  C   LIG A   1      -7.375   0.411 123.992  0.00  0.00    +0.007 C 
ATOM     17  C   LIG A   1      -6.418   0.744 125.124  0.00  0.00    +0.001 C 
ATOM     18  C   LIG A   1      -5.565  -0.470 125.451  0.00  0.00    +0.007 C 
ENDROOT
BRANCH   6  19
ATOM     19  C   LIG A   1      -5.593  -3.948 130.119  0.00  0.00    -0.024 C 
ATOM     20  C   LIG A   1      -5.566  -5.131 130.749  0.00  0.00    +0.005 C 
ENDBRANCH   6  19
TORSDOF 1
ENDMDL
MODEL 7
REMARK VINA RESULT:      -6.8      1.503      2.758
REMARK  Name = NuBBE_1917
REMARK  5 active torsions:
REMARK  status: ('A' for Active; 'I' for Inactive)
REMARK    1  A    between atoms: C_1  and  C_2
REMARK    2  A    between atoms: C_7  and  C_10
REMARK    3  A    between atoms: C_7  and  C_12
REMARK    4  A    between atoms: C_17  and  C_18
REMARK    5  A    between atoms: C_17  and  C_19
REMARK                            x       y       z     vdW  Elec       q    Type
REMARK                         _______ _______ _______ _____ _____    ______ ____
ROOT
ATOM      1  C   LIG A   1      -8.625  -3.247 126.579  0.00  0.00    +0.012 C 
ATOM      2  C   LIG A   1      -7.778  -2.329 125.641  0.00  0.00    -0.022 C 
ATOM      3  C   LIG A   1      -6.726  -1.520 126.494  0.00  0.00    +0.021 C 
ATOM      4  C   LIG A   1      -7.410  -0.523 127.415  0.00  0.00    -0.069 C 
ATOM      5  C   LIG A   1      -7.114  -0.401 128.724  0.00  0.00    -0.017 C 
ATOM      6  C   LIG A   1      -6.019  -1.170 129.442  0.00  0.00    +0.004 C 
ATOM      7  C   LIG A   1      -5.014  -1.703 128.391  0.00  0.00    +0.015 C 
ATOM      8  C   LIG A   1      -5.710  -2.424 127.236  0.00  0.00    +0.009 C 
ATOM      9  C   LIG A   1      -5.257  -0.195 130.365  0.00  0.00    +0.020 C 
ATOM     10  C   LIG A   1      -8.420   0.386 126.769  0.00  0.00    +0.031 C 
ATOM     11  C   LIG A   1      -9.406  -0.343 125.859  0.00  0.00    +0.009 C 
ATOM     12  C   LIG A   1      -8.773  -1.362 124.881  0.00  0.00    +0.001 C 
ATOM     13  C   LIG A   1      -8.275  -0.747 123.510  0.00  0.00    -0.032 C 
ATOM     14  C   LIG A   1      -9.507  -0.302 122.674  0.00  0.00    +0.011 C 
ATOM     15  C   LIG A   1      -7.377   0.498 123.635  0.00  0.00    +0.011 C 
ATOM     16  C   LIG A   1      -7.538  -1.817 122.669  0.00  0.00    +0.007 C 
ATOM     17  C   LIG A   1      -6.465  -2.559 123.446  0.00  0.00    +0.001 C 
ATOM     18  C   LIG A   1      -7.089  -3.280 124.629  0.00  0.00    +0.007 C 
ENDROOT
BRANCH   6  19
ATOM     19  C   LIG A   1      -6.668  -2.220 130.337  0.00  0.00    -0.024 C 
ATOM     20  C   LIG A   1      -7.851  -2.833 130.178  0.00  0.00    +0.005 C 
ENDBRANCH   6  19
TORSDOF 1
ENDMDL
MODEL 8
REMARK VINA RESULT:      -6.8      2.110      5.330
REMARK  Name = NuBBE_1917
REMARK  5 active torsions:
REMARK  status: ('A' for Active; 'I' for Inactive)
REMARK    1  A    between atoms: C_1  and  C_2
REMARK    2  A    between atoms: C_7  and  C_10
REMARK    3  A    between atoms: C_7  and  C_12
REMARK    4  A    between atoms: C_17  and  C_18
REMARK    5  A    between atoms: C_17  and  C_19
REMARK                            x       y       z     vdW  Elec       q    Type
REMARK                         _______ _______ _______ _____ _____    ______ ____
ROOT
ATOM      1  C   LIG A   1      -6.457  -2.279 125.129  0.00  0.00    +0.012 C 
ATOM      2  C   LIG A   1      -7.389  -2.180 126.378  0.00  0.00    -0.022 C 
ATOM      3  C   LIG A   1      -8.112  -0.779 126.393  0.00  0.00    +0.021 C 
ATOM      4  C   LIG A   1      -7.122   0.353 126.620  0.00  0.00    -0.069 C 
ATOM      5  C   LIG A   1      -7.089   1.468 125.864  0.00  0.00    -0.017 C 
ATOM      6  C   LIG A   1      -8.066   1.791 124.748  0.00  0.00    +0.004 C 
ATOM      7  C   LIG A   1      -9.343   0.936 124.942  0.00  0.00    +0.015 C 
ATOM      8  C   LIG A   1      -9.023  -0.542 125.163  0.00  0.00    +0.009 C 
ATOM      9  C   LIG A   1      -8.475   3.275 124.865  0.00  0.00    +0.020 C 
ATOM     10  C   LIG A   1      -6.194   0.192 127.794  0.00  0.00    +0.031 C 
ATOM     11  C   LIG A   1      -5.539  -1.185 127.871  0.00  0.00    +0.009 C 
ATOM     12  C   LIG A   1      -6.495  -2.385 127.667  0.00  0.00    +0.001 C 
ATOM     13  C   LIG A   1      -7.226  -2.882 128.980  0.00  0.00    -0.032 C 
ATOM     14  C   LIG A   1      -6.182  -3.530 129.931  0.00  0.00    +0.011 C 
ATOM     15  C   LIG A   1      -7.922  -1.782 129.803  0.00  0.00    +0.011 C 
ATOM     16  C   LIG A   1      -8.256  -3.987 128.644  0.00  0.00    +0.007 C 
ATOM     17  C   LIG A   1      -9.196  -3.610 127.512  0.00  0.00    +0.001 C 
ATOM     18  C   LIG A   1      -8.399  -3.349 126.245  0.00  0.00    +0.007 C 
ENDROOT
BRANCH   6  19
ATOM     19  C   LIG A   1      -7.350   1.626 123.411  0.00  0.00    -0.024 C 
ATOM     20  C   LIG A   1      -6.723   2.561 122.682  0.00  0.00    +0.005 C 
ENDBRANCH   6  19
TORSDOF 1
ENDMDL
MODEL 9
REMARK VINA RESULT:      -6.7      2.609      4.683
REMARK  Name = NuBBE_1917
REMARK  5 active torsions:
REMARK  status: ('A' for Active; 'I' for Inactive)
REMARK    1  A    between atoms: C_1  and  C_2
REMARK    2  A    between atoms: C_7  and  C_10
REMARK    3  A    between atoms: C_7  and  C_12
REMARK    4  A    between atoms: C_17  and  C_18
REMARK    5  A    between atoms: C_17  and  C_19
REMARK                            x       y       z     vdW  Elec       q    Type
REMARK                         _______ _______ _______ _____ _____    ______ ____
ROOT
ATOM      1  C   LIG A   1      -7.497  -0.745 127.646  0.00  0.00    +0.012 C 
ATOM      2  C   LIG A   1      -7.037  -1.032 126.182  0.00  0.00    -0.022 C 
ATOM      3  C   LIG A   1      -6.430   0.278 125.548  0.00  0.00    +0.021 C 
ATOM      4  C   LIG A   1      -7.493   1.349 125.364  0.00  0.00    -0.069 C 
ATOM      5  C   LIG A   1      -7.331   2.628 125.755  0.00  0.00    -0.017 C 
ATOM      6  C   LIG A   1      -6.057   3.199 126.353  0.00  0.00    +0.004 C 
ATOM      7  C   LIG A   1      -4.875   2.267 125.987  0.00  0.00    +0.015 C 
ATOM      8  C   LIG A   1      -5.176   0.800 126.294  0.00  0.00    +0.009 C 
ATOM      9  C   LIG A   1      -5.784   4.575 125.709  0.00  0.00    +0.020 C 
ATOM     10  C   LIG A   1      -8.748   0.916 124.654  0.00  0.00    +0.031 C 
ATOM     11  C   LIG A   1      -9.323  -0.399 125.175  0.00  0.00    +0.009 C 
ATOM     12  C   LIG A   1      -8.295  -1.540 125.368  0.00  0.00    +0.001 C 
ATOM     13  C   LIG A   1      -8.016  -2.408 124.075  0.00  0.00    -0.032 C 
ATOM     14  C   LIG A   1      -9.282  -3.243 123.737  0.00  0.00    +0.011 C 
ATOM     15  C   LIG A   1      -7.686  -1.606 122.802  0.00  0.00    +0.011 C 
ATOM     16  C   LIG A   1      -6.878  -3.424 124.337  0.00  0.00    +0.007 C 
ATOM     17  C   LIG A   1      -5.637  -2.795 124.947  0.00  0.00    +0.001 C 
ATOM     18  C   LIG A   1      -5.983  -2.164 126.285  0.00  0.00    +0.007 C 
ENDROOT
BRANCH   6  19
ATOM     19  C   LIG A   1      -6.282   3.436 127.842  0.00  0.00    -0.024 C 
ATOM     20  C   LIG A   1      -7.182   2.858 128.651  0.00  0.00    +0.005 C 
ENDBRANCH   6  19
TORSDOF 1
ENDMDL
