MODEL 1
REMARK VINA RESULT:      -5.7      0.000      0.000
REMARK  Name = NuBBE_1739
REMARK  4 active torsions:
REMARK  status: ('A' for Active; 'I' for Inactive)
REMARK    1  A    between atoms: C_1  and  C_2
REMARK    2  A    between atoms: C_1  and  C_3
REMARK    3  A    between atoms: C_1  and  C_4
REMARK    4  A    between atoms: C_10  and  C_14
REMARK                            x       y       z     vdW  Elec       q    Type
REMARK                         _______ _______ _______ _____ _____    ______ ____
ROOT
ATOM      1  C   LIG A   1     -12.750   7.962 128.816  0.00  0.00    +0.101 C 
ATOM      2  C   LIG A   1     -12.229   7.456 127.337  0.00  0.00    +0.182 C 
ATOM      3  O   LIG A   1     -13.550   7.862 127.675  0.00  0.00    -0.362 OA
ATOM      4  C   LIG A   1     -10.900   7.660 128.079  0.00  0.00    +0.182 C 
ATOM      5  C   LIG A   1     -10.517   6.771 129.282  0.00  0.00    +0.096 C 
ATOM      6  C   LIG A   1     -11.666   5.954 129.802  0.00  0.00    +0.040 C 
ATOM      7  C   LIG A   1     -12.913   6.854 129.845  0.00  0.00    +0.041 C 
ATOM      8  O   LIG A   1     -10.056   6.484 127.967  0.00  0.00    -0.362 OA
ATOM      9  C   LIG A   1      -9.424   7.147 130.221  0.00  0.00    +0.044 C 
ENDROOT
BRANCH   1  10
ATOM     10  C   LIG A   1     -12.823   9.427 129.292  0.00  0.00    +0.017 C 
ATOM     11  C   LIG A   1     -13.887  10.207 128.507  0.00  0.00    +0.010 C 
ATOM     12  C   LIG A   1     -13.077   9.591 130.791  0.00  0.00    +0.010 C 
ENDBRANCH   1  10
TORSDOF 1
ENDMDL
MODEL 2
REMARK VINA RESULT:      -5.6      1.815      3.724
REMARK  Name = NuBBE_1739
REMARK  4 active torsions:
REMARK  status: ('A' for Active; 'I' for Inactive)
REMARK    1  A    between atoms: C_1  and  C_2
REMARK    2  A    between atoms: C_1  and  C_3
REMARK    3  A    between atoms: C_1  and  C_4
REMARK    4  A    between atoms: C_10  and  C_14
REMARK                            x       y       z     vdW  Elec       q    Type
REMARK                         _______ _______ _______ _____ _____    ______ ____
ROOT
ATOM      1  C   LIG A   1     -11.873   6.842 130.530  0.00  0.00    +0.101 C 
ATOM      2  C   LIG A   1     -12.871   8.128 130.788  0.00  0.00    +0.182 C 
ATOM      3  O   LIG A   1     -12.683   7.015 131.655  0.00  0.00    -0.362 OA
ATOM      4  C   LIG A   1     -12.032   8.622 129.600  0.00  0.00    +0.182 C 
ATOM      5  C   LIG A   1     -12.134   7.941 128.218  0.00  0.00    +0.096 C 
ATOM      6  C   LIG A   1     -12.860   6.626 128.259  0.00  0.00    +0.040 C 
ATOM      7  C   LIG A   1     -12.372   5.847 129.494  0.00  0.00    +0.041 C 
ATOM      8  O   LIG A   1     -12.884   9.108 128.529  0.00  0.00    -0.362 OA
ATOM      9  C   LIG A   1     -11.114   8.161 127.155  0.00  0.00    +0.044 C 
ENDROOT
BRANCH   1  10
ATOM     10  C   LIG A   1     -10.421   6.715 131.034  0.00  0.00    +0.017 C 
ATOM     11  C   LIG A   1     -10.375   6.039 132.412  0.00  0.00    +0.010 C 
ATOM     12  C   LIG A   1      -9.483   5.979 130.076  0.00  0.00    +0.010 C 
ENDBRANCH   1  10
TORSDOF 1
ENDMDL
MODEL 3
REMARK VINA RESULT:      -5.5      1.839      2.973
REMARK  Name = NuBBE_1739
REMARK  4 active torsions:
REMARK  status: ('A' for Active; 'I' for Inactive)
REMARK    1  A    between atoms: C_1  and  C_2
REMARK    2  A    between atoms: C_1  and  C_3
REMARK    3  A    between atoms: C_1  and  C_4
REMARK    4  A    between atoms: C_10  and  C_14
REMARK                            x       y       z     vdW  Elec       q    Type
REMARK                         _______ _______ _______ _____ _____    ______ ____
ROOT
ATOM      1  C   LIG A   1     -11.813   7.754 129.165  0.00  0.00    +0.101 C 
ATOM      2  C   LIG A   1     -12.476   7.948 130.661  0.00  0.00    +0.182 C 
ATOM      3  O   LIG A   1     -12.554   8.864 129.576  0.00  0.00    -0.362 OA
ATOM      4  C   LIG A   1     -12.079   6.464 130.689  0.00  0.00    +0.182 C 
ATOM      5  C   LIG A   1     -10.595   6.038 130.647  0.00  0.00    +0.096 C 
ATOM      6  C   LIG A   1      -9.669   7.161 130.274  0.00  0.00    +0.040 C 
ATOM      7  C   LIG A   1     -10.305   7.940 129.109  0.00  0.00    +0.041 C 
ATOM      8  O   LIG A   1     -11.301   6.157 131.876  0.00  0.00    -0.362 OA
ATOM      9  C   LIG A   1     -10.187   4.640 130.334  0.00  0.00    +0.044 C 
ENDROOT
BRANCH   1  10
ATOM     10  C   LIG A   1     -12.529   7.163 127.933  0.00  0.00    +0.017 C 
ATOM     11  C   LIG A   1     -13.887   7.843 127.710  0.00  0.00    +0.010 C 
ATOM     12  C   LIG A   1     -11.713   7.223 126.641  0.00  0.00    +0.010 C 
ENDBRANCH   1  10
TORSDOF 1
ENDMDL
MODEL 4
REMARK VINA RESULT:      -5.1     10.393     12.048
REMARK  Name = NuBBE_1739
REMARK  4 active torsions:
REMARK  status: ('A' for Active; 'I' for Inactive)
REMARK    1  A    between atoms: C_1  and  C_2
REMARK    2  A    between atoms: C_1  and  C_3
REMARK    3  A    between atoms: C_1  and  C_4
REMARK    4  A    between atoms: C_10  and  C_14
REMARK                            x       y       z     vdW  Elec       q    Type
REMARK                         _______ _______ _______ _____ _____    ______ ____
ROOT
ATOM      1  C   LIG A   1      -7.770  -1.946 123.877  0.00  0.00    +0.101 C 
ATOM      2  C   LIG A   1      -9.240  -2.596 123.513  0.00  0.00    +0.182 C 
ATOM      3  O   LIG A   1      -8.372  -1.911 122.617  0.00  0.00    -0.362 OA
ATOM      4  C   LIG A   1      -8.971  -3.200 124.899  0.00  0.00    +0.182 C 
ATOM      5  C   LIG A   1      -8.910  -2.305 126.157  0.00  0.00    +0.096 C 
ATOM      6  C   LIG A   1      -8.829  -0.839 125.835  0.00  0.00    +0.040 C 
ATOM      7  C   LIG A   1      -7.828  -0.656 124.680  0.00  0.00    +0.041 C 
ATOM      8  O   LIG A   1     -10.101  -2.988 125.786  0.00  0.00    -0.362 OA
ATOM      9  C   LIG A   1      -8.326  -2.789 127.439  0.00  0.00    +0.044 C 
ENDROOT
BRANCH   1  10
ATOM     10  C   LIG A   1      -6.408  -2.650 123.708  0.00  0.00    +0.017 C 
ATOM     11  C   LIG A   1      -5.724  -2.215 122.404  0.00  0.00    +0.010 C 
ATOM     12  C   LIG A   1      -5.444  -2.447 124.878  0.00  0.00    +0.010 C 
ENDBRANCH   1  10
TORSDOF 1
ENDMDL
MODEL 5
REMARK VINA RESULT:      -5.1      1.527      2.158
REMARK  Name = NuBBE_1739
REMARK  4 active torsions:
REMARK  status: ('A' for Active; 'I' for Inactive)
REMARK    1  A    between atoms: C_1  and  C_2
REMARK    2  A    between atoms: C_1  and  C_3
REMARK    3  A    between atoms: C_1  and  C_4
REMARK    4  A    between atoms: C_10  and  C_14
REMARK                            x       y       z     vdW  Elec       q    Type
REMARK                         _______ _______ _______ _____ _____    ______ ____
ROOT
ATOM      1  C   LIG A   1     -11.459   6.703 129.473  0.00  0.00    +0.101 C 
ATOM      2  C   LIG A   1     -10.162   6.750 128.457  0.00  0.00    +0.182 C 
ATOM      3  O   LIG A   1     -11.534   6.793 128.081  0.00  0.00    -0.362 OA
ATOM      4  C   LIG A   1      -9.494   6.969 129.823  0.00  0.00    +0.182 C 
ATOM      5  C   LIG A   1      -9.488   5.855 130.892  0.00  0.00    +0.096 C 
ATOM      6  C   LIG A   1     -10.430   4.728 130.577  0.00  0.00    +0.040 C 
ATOM      7  C   LIG A   1     -11.750   5.335 130.070  0.00  0.00    +0.041 C 
ATOM      8  O   LIG A   1      -8.387   6.049 130.013  0.00  0.00    -0.362 OA
ATOM      9  C   LIG A   1      -9.160   6.136 132.318  0.00  0.00    +0.044 C 
ENDROOT
BRANCH   1  10
ATOM     10  C   LIG A   1     -12.199   7.930 130.046  0.00  0.00    +0.017 C 
ATOM     11  C   LIG A   1     -13.152   8.531 129.003  0.00  0.00    +0.010 C 
ATOM     12  C   LIG A   1     -12.968   7.655 131.338  0.00  0.00    +0.010 C 
ENDBRANCH   1  10
TORSDOF 1
ENDMDL
MODEL 6
REMARK VINA RESULT:      -5.1     10.760     12.585
REMARK  Name = NuBBE_1739
REMARK  4 active torsions:
REMARK  status: ('A' for Active; 'I' for Inactive)
REMARK    1  A    between atoms: C_1  and  C_2
REMARK    2  A    between atoms: C_1  and  C_3
REMARK    3  A    between atoms: C_1  and  C_4
REMARK    4  A    between atoms: C_10  and  C_14
REMARK                            x       y       z     vdW  Elec       q    Type
REMARK                         _______ _______ _______ _____ _____    ______ ____
ROOT
ATOM      1  C   LIG A   1      -6.643  -2.671 124.707  0.00  0.00    +0.101 C 
ATOM      2  C   LIG A   1      -6.952  -1.687 125.992  0.00  0.00    +0.182 C 
ATOM      3  O   LIG A   1      -6.025  -2.766 125.956  0.00  0.00    -0.362 OA
ATOM      4  C   LIG A   1      -7.656  -0.936 124.852  0.00  0.00    +0.182 C 
ATOM      5  C   LIG A   1      -8.886  -1.543 124.142  0.00  0.00    +0.096 C 
ATOM      6  C   LIG A   1      -9.096  -2.996 124.461  0.00  0.00    +0.040 C 
ATOM      7  C   LIG A   1      -7.727  -3.698 124.418  0.00  0.00    +0.041 C 
ATOM      8  O   LIG A   1      -9.026  -0.614 125.210  0.00  0.00    -0.362 OA
ATOM      9  C   LIG A   1      -9.378  -1.019 122.837  0.00  0.00    +0.044 C 
ENDROOT
BRANCH   1  10
ATOM     10  C   LIG A   1      -5.526  -2.465 123.664  0.00  0.00    +0.017 C 
ATOM     11  C   LIG A   1      -4.556  -3.655 123.658  0.00  0.00    +0.010 C 
ATOM     12  C   LIG A   1      -6.029  -2.214 122.242  0.00  0.00    +0.010 C 
ENDBRANCH   1  10
TORSDOF 1
ENDMDL
MODEL 7
REMARK VINA RESULT:      -5.0     10.269     11.685
REMARK  Name = NuBBE_1739
REMARK  4 active torsions:
REMARK  status: ('A' for Active; 'I' for Inactive)
REMARK    1  A    between atoms: C_1  and  C_2
REMARK    2  A    between atoms: C_1  and  C_3
REMARK    3  A    between atoms: C_1  and  C_4
REMARK    4  A    between atoms: C_10  and  C_14
REMARK                            x       y       z     vdW  Elec       q    Type
REMARK                         _______ _______ _______ _____ _____    ______ ____
ROOT
ATOM      1  C   LIG A   1      -7.635  -1.187 123.434  0.00  0.00    +0.101 C 
ATOM      2  C   LIG A   1      -6.483  -2.365 123.410  0.00  0.00    +0.182 C 
ATOM      3  O   LIG A   1      -6.531  -1.212 122.578  0.00  0.00    -0.362 OA
ATOM      4  C   LIG A   1      -7.228  -2.688 124.714  0.00  0.00    +0.182 C 
ATOM      5  C   LIG A   1      -8.697  -3.165 124.691  0.00  0.00    +0.096 C 
ATOM      6  C   LIG A   1      -9.359  -2.976 123.356  0.00  0.00    +0.040 C 
ATOM      7  C   LIG A   1      -8.966  -1.588 122.818  0.00  0.00    +0.041 C 
ATOM      8  O   LIG A   1      -7.616  -4.087 124.758  0.00  0.00    -0.362 OA
ATOM      9  C   LIG A   1      -9.544  -3.161 125.917  0.00  0.00    +0.044 C 
ENDROOT
BRANCH   1  10
ATOM     10  C   LIG A   1      -7.559   0.131 124.232  0.00  0.00    +0.017 C 
ATOM     11  C   LIG A   1      -7.088   1.287 123.338  0.00  0.00    +0.010 C 
ATOM     12  C   LIG A   1      -8.864   0.525 124.925  0.00  0.00    +0.010 C 
ENDBRANCH   1  10
TORSDOF 1
ENDMDL
MODEL 8
REMARK VINA RESULT:      -5.0      1.917      4.379
REMARK  Name = NuBBE_1739
REMARK  4 active torsions:
REMARK  status: ('A' for Active; 'I' for Inactive)
REMARK    1  A    between atoms: C_1  and  C_2
REMARK    2  A    between atoms: C_1  and  C_3
REMARK    3  A    between atoms: C_1  and  C_4
REMARK    4  A    between atoms: C_10  and  C_14
REMARK                            x       y       z     vdW  Elec       q    Type
REMARK                         _______ _______ _______ _____ _____    ______ ____
ROOT
ATOM      1  C   LIG A   1     -10.330   6.231 130.602  0.00  0.00    +0.101 C 
ATOM      2  C   LIG A   1      -9.664   7.583 129.935  0.00  0.00    +0.182 C 
ATOM      3  O   LIG A   1      -9.123   6.810 131.000  0.00  0.00    -0.362 OA
ATOM      4  C   LIG A   1     -10.770   7.251 128.922  0.00  0.00    +0.182 C 
ATOM      5  C   LIG A   1     -12.261   7.344 129.315  0.00  0.00    +0.096 C 
ATOM      6  C   LIG A   1     -12.474   7.475 130.797  0.00  0.00    +0.040 C 
ATOM      7  C   LIG A   1     -11.525   6.492 131.506  0.00  0.00    +0.041 C 
ATOM      8  O   LIG A   1     -11.597   8.415 128.656  0.00  0.00    -0.362 OA
ATOM      9  C   LIG A   1     -13.332   6.718 128.491  0.00  0.00    +0.044 C 
ENDROOT
BRANCH   1  10
ATOM     10  C   LIG A   1     -10.021   4.778 130.190  0.00  0.00    +0.017 C 
ATOM     11  C   LIG A   1      -8.806   4.237 130.957  0.00  0.00    +0.010 C 
ATOM     12  C   LIG A   1     -11.195   3.812 130.355  0.00  0.00    +0.010 C 
ENDBRANCH   1  10
TORSDOF 1
ENDMDL
MODEL 9
REMARK VINA RESULT:      -4.9      9.771     11.389
REMARK  Name = NuBBE_1739
REMARK  4 active torsions:
REMARK  status: ('A' for Active; 'I' for Inactive)
REMARK    1  A    between atoms: C_1  and  C_2
REMARK    2  A    between atoms: C_1  and  C_3
REMARK    3  A    between atoms: C_1  and  C_4
REMARK    4  A    between atoms: C_10  and  C_14
REMARK                            x       y       z     vdW  Elec       q    Type
REMARK                         _______ _______ _______ _____ _____    ______ ____
ROOT
ATOM      1  C   LIG A   1      -8.812  -2.114 125.254  0.00  0.00    +0.101 C 
ATOM      2  C   LIG A   1      -8.790  -2.860 126.723  0.00  0.00    +0.182 C 
ATOM      3  O   LIG A   1      -9.872  -2.843 125.800  0.00  0.00    -0.362 OA
ATOM      4  C   LIG A   1      -7.306  -2.512 126.530  0.00  0.00    +0.182 C 
ATOM      5  C   LIG A   1      -6.832  -1.043 126.500  0.00  0.00    +0.096 C 
ATOM      6  C   LIG A   1      -7.961  -0.061 126.366  0.00  0.00    +0.040 C 
ATOM      7  C   LIG A   1      -8.944  -0.600 125.311  0.00  0.00    +0.041 C 
ATOM      8  O   LIG A   1      -6.780  -1.817 127.692  0.00  0.00    -0.362 OA
ATOM      9  C   LIG A   1      -5.487  -0.661 125.985  0.00  0.00    +0.044 C 
ENDROOT
BRANCH   1  10
ATOM     10  C   LIG A   1      -8.458  -2.773 123.905  0.00  0.00    +0.017 C 
ATOM     11  C   LIG A   1      -9.704  -3.386 123.250  0.00  0.00    +0.010 C 
ATOM     12  C   LIG A   1      -7.770  -1.838 122.909  0.00  0.00    +0.010 C 
ENDBRANCH   1  10
TORSDOF 1
ENDMDL
