MODEL 1
REMARK VINA RESULT:      -7.9      0.000      0.000
REMARK  Name = NuBBE_2098
REMARK  7 active torsions:
REMARK  status: ('A' for Active; 'I' for Inactive)
REMARK    1  A    between atoms: C_1  and  C_2
REMARK    2  A    between atoms: C_1  and  C_4
REMARK    3  A    between atoms: C_5  and  O_6
REMARK    4  A    between atoms: C_8  and  C_13
REMARK    5  A    between atoms: C_10  and  C_12
REMARK    6  A    between atoms: C_17  and  O_19
REMARK    7  A    between atoms: O_19  and  C_20
REMARK                            x       y       z     vdW  Elec       q    Type
REMARK                         _______ _______ _______ _____ _____    ______ ____
ROOT
ATOM      1  C   LIG A   1      -6.711  -2.084 124.617  0.00  0.00    +0.044 C 
ATOM      2  C   LIG A   1      -7.820  -1.049 124.342  0.00  0.00    +0.239 C 
ATOM      3  O   LIG A   1      -7.126   0.132 124.006  0.00  0.00    -0.334 OA
ATOM      4  C   LIG A   1      -5.963   0.224 124.876  0.00  0.00    +0.156 C 
ATOM      5  C   LIG A   1      -5.711  -1.218 125.435  0.00  0.00    +0.032 C 
ATOM      6  C   LIG A   1      -5.798  -1.418 126.949  0.00  0.00    +0.011 C 
ATOM      7  C   LIG A   1      -8.897  -1.655 123.396  0.00  0.00    +0.215 C 
ATOM      8  O   LIG A   1      -9.485  -1.032 122.528  0.00  0.00    -0.287 OA
ATOM      9  C   LIG A   1      -9.274  -3.086 123.680  0.00  0.00    +0.048 C 
ATOM     10  C   LIG A   1      -8.574  -3.809 124.569  0.00  0.00    -0.022 C 
ATOM     11  C   LIG A   1      -7.366  -3.297 125.319  0.00  0.00    +0.040 C 
ENDROOT
BRANCH   4  12
ATOM     12  C   LIG A   1      -6.092   1.402 125.838  0.00  0.00    -0.011 A 
ATOM     13  C   LIG A   1      -7.343   1.815 126.326  0.00  0.00    +0.056 A 
ATOM     14  C   LIG A   1      -7.403   2.886 127.201  0.00  0.00    +0.170 A 
ATOM     15  C   LIG A   1      -6.282   3.572 127.611  0.00  0.00    +0.207 A 
ATOM     16  C   LIG A   1      -5.033   3.225 127.133  0.00  0.00    +0.166 A 
ATOM     17  C   LIG A   1      -4.956   2.153 126.225  0.00  0.00    +0.056 A 
ATOM     18  O   LIG A   1      -6.598   4.549 128.506  0.00  0.00    -0.449 OA
ATOM     19  C   LIG A   1      -8.033   4.441 128.559  0.00  0.00    +0.467 C 
ATOM     20  O   LIG A   1      -8.551   3.365 127.758  0.00  0.00    -0.453 OA
BRANCH  16  21
ATOM     21  O   LIG A   1      -3.828   3.773 127.474  0.00  0.00    -0.491 OA
ATOM     22  C   LIG A   1      -2.758   3.572 126.559  0.00  0.00    +0.277 C 
ENDBRANCH  16  21
ENDBRANCH   4  12
BRANCH   2  23
ATOM     23  O   LIG A   1      -8.553  -0.744 125.537  0.00  0.00    -0.358 OA
ATOM     24  H   LIG A   1      -9.072   0.047 125.302  0.00  0.00    +0.213 HD
ENDBRANCH   2  23
BRANCH   1  25
ATOM     25  C   LIG A   1      -6.014  -2.539 123.275  0.00  0.00    +0.040 C 
BRANCH  25  26
ATOM     26  C   LIG A   1      -4.648  -3.162 123.453  0.00  0.00    -0.034 C 
ATOM     27  C   LIG A   1      -4.433  -4.475 123.610  0.00  0.00    +0.004 C 
ENDBRANCH  25  26
ENDBRANCH   1  25
TORSDOF 5
ENDMDL
MODEL 2
REMARK VINA RESULT:      -7.8      0.656      2.196
REMARK  Name = NuBBE_2098
REMARK  7 active torsions:
REMARK  status: ('A' for Active; 'I' for Inactive)
REMARK    1  A    between atoms: C_1  and  C_2
REMARK    2  A    between atoms: C_1  and  C_4
REMARK    3  A    between atoms: C_5  and  O_6
REMARK    4  A    between atoms: C_8  and  C_13
REMARK    5  A    between atoms: C_10  and  C_12
REMARK    6  A    between atoms: C_17  and  O_19
REMARK    7  A    between atoms: O_19  and  C_20
REMARK                            x       y       z     vdW  Elec       q    Type
REMARK                         _______ _______ _______ _____ _____    ______ ____
ROOT
ATOM      1  C   LIG A   1      -6.690  -2.105 124.692  0.00  0.00    +0.044 C 
ATOM      2  C   LIG A   1      -7.823  -1.081 124.478  0.00  0.00    +0.239 C 
ATOM      3  O   LIG A   1      -7.160   0.108 124.109  0.00  0.00    -0.334 OA
ATOM      4  C   LIG A   1      -5.954   0.211 124.917  0.00  0.00    +0.156 C 
ATOM      5  C   LIG A   1      -5.658  -1.230 125.460  0.00  0.00    +0.032 C 
ATOM      6  C   LIG A   1      -5.665  -1.433 126.976  0.00  0.00    +0.011 C 
ATOM      7  C   LIG A   1      -8.941  -1.697 123.587  0.00  0.00    +0.215 C 
ATOM      8  O   LIG A   1      -9.579  -1.078 122.752  0.00  0.00    -0.287 OA
ATOM      9  C   LIG A   1      -9.287  -3.133 123.887  0.00  0.00    +0.048 C 
ATOM     10  C   LIG A   1      -8.535  -3.849 124.737  0.00  0.00    -0.022 C 
ATOM     11  C   LIG A   1      -7.295  -3.326 125.424  0.00  0.00    +0.040 C 
ENDROOT
BRANCH   4  12
ATOM     12  C   LIG A   1      -6.045   1.385 125.887  0.00  0.00    -0.011 A 
ATOM     13  C   LIG A   1      -4.924   2.181 126.180  0.00  0.00    +0.056 A 
ATOM     14  C   LIG A   1      -5.062   3.237 127.063  0.00  0.00    +0.170 A 
ATOM     15  C   LIG A   1      -6.257   3.541 127.676  0.00  0.00    +0.207 A 
ATOM     16  C   LIG A   1      -7.379   2.767 127.447  0.00  0.00    +0.166 A 
ATOM     17  C   LIG A   1      -7.252   1.676 126.568  0.00  0.00    +0.056 A 
ATOM     18  O   LIG A   1      -6.146   4.650 128.459  0.00  0.00    -0.449 OA
ATOM     19  C   LIG A   1      -4.747   4.963 128.320  0.00  0.00    +0.467 C 
ATOM     20  O   LIG A   1      -4.058   4.091 127.409  0.00  0.00    -0.453 OA
BRANCH  16  21
ATOM     21  O   LIG A   1      -8.639   2.962 127.938  0.00  0.00    -0.491 OA
ATOM     22  C   LIG A   1      -8.867   2.547 129.280  0.00  0.00    +0.277 C 
ENDBRANCH  16  21
ENDBRANCH   4  12
BRANCH   2  23
ATOM     23  O   LIG A   1      -8.496  -0.786 125.710  0.00  0.00    -0.358 OA
ATOM     24  H   LIG A   1      -8.907  -1.633 125.964  0.00  0.00    +0.213 HD
ENDBRANCH   2  23
BRANCH   1  25
ATOM     25  C   LIG A   1      -6.058  -2.550 123.316  0.00  0.00    +0.040 C 
BRANCH  25  26
ATOM     26  C   LIG A   1      -4.673  -3.147 123.419  0.00  0.00    -0.034 C 
ATOM     27  C   LIG A   1      -4.426  -4.459 123.538  0.00  0.00    +0.004 C 
ENDBRANCH  25  26
ENDBRANCH   1  25
TORSDOF 5
ENDMDL
MODEL 3
REMARK VINA RESULT:      -7.8      2.516      3.346
REMARK  Name = NuBBE_2098
REMARK  7 active torsions:
REMARK  status: ('A' for Active; 'I' for Inactive)
REMARK    1  A    between atoms: C_1  and  C_2
REMARK    2  A    between atoms: C_1  and  C_4
REMARK    3  A    between atoms: C_5  and  O_6
REMARK    4  A    between atoms: C_8  and  C_13
REMARK    5  A    between atoms: C_10  and  C_12
REMARK    6  A    between atoms: C_17  and  O_19
REMARK    7  A    between atoms: O_19  and  C_20
REMARK                            x       y       z     vdW  Elec       q    Type
REMARK                         _______ _______ _______ _____ _____    ______ ____
ROOT
ATOM      1  C   LIG A   1      -7.636  -2.295 125.110  0.00  0.00    +0.044 C 
ATOM      2  C   LIG A   1      -8.363  -0.945 124.954  0.00  0.00    +0.239 C 
ATOM      3  O   LIG A   1      -7.526  -0.015 125.605  0.00  0.00    -0.334 OA
ATOM      4  C   LIG A   1      -7.000  -0.655 126.801  0.00  0.00    +0.156 C 
ATOM      5  C   LIG A   1      -7.173  -2.199 126.592  0.00  0.00    +0.032 C 
ATOM      6  C   LIG A   1      -8.065  -2.953 127.580  0.00  0.00    +0.011 C 
ATOM      7  C   LIG A   1      -8.807  -0.742 123.476  0.00  0.00    +0.215 C 
ATOM      8  O   LIG A   1      -8.804   0.329 122.894  0.00  0.00    -0.287 OA
ATOM      9  C   LIG A   1      -9.364  -1.966 122.796  0.00  0.00    +0.048 C 
ATOM     10  C   LIG A   1      -9.291  -3.167 123.393  0.00  0.00    -0.022 C 
ATOM     11  C   LIG A   1      -8.637  -3.412 124.733  0.00  0.00    +0.040 C 
ENDROOT
BRANCH   4  12
ATOM     12  C   LIG A   1      -7.547   0.009 128.061  0.00  0.00    -0.011 A 
ATOM     13  C   LIG A   1      -8.224   1.239 128.007  0.00  0.00    +0.056 A 
ATOM     14  C   LIG A   1      -8.705   1.795 129.179  0.00  0.00    +0.170 A 
ATOM     15  C   LIG A   1      -8.543   1.193 130.406  0.00  0.00    +0.207 A 
ATOM     16  C   LIG A   1      -7.854  -0.001 130.517  0.00  0.00    +0.166 A 
ATOM     17  C   LIG A   1      -7.340  -0.569 129.337  0.00  0.00    +0.056 A 
ATOM     18  O   LIG A   1      -9.145   1.911 131.395  0.00  0.00    -0.449 OA
ATOM     19  C   LIG A   1      -9.640   3.050 130.665  0.00  0.00    +0.467 C 
ATOM     20  O   LIG A   1      -9.394   2.968 129.251  0.00  0.00    -0.453 OA
BRANCH  16  21
ATOM     21  O   LIG A   1      -7.648  -0.741 131.646  0.00  0.00    -0.491 OA
ATOM     22  C   LIG A   1      -7.370  -2.123 131.456  0.00  0.00    +0.277 C 
ENDBRANCH  16  21
ENDBRANCH   4  12
BRANCH   2  23
ATOM     23  O   LIG A   1      -9.599  -0.933 125.683  0.00  0.00    -0.358 OA
ATOM     24  H   LIG A   1      -9.330  -1.092 126.607  0.00  0.00    +0.213 HD
ENDBRANCH   2  23
BRANCH   1  25
ATOM     25  C   LIG A   1      -6.362  -2.366 124.181  0.00  0.00    +0.040 C 
BRANCH  25  26
ATOM     26  C   LIG A   1      -5.608  -3.675 124.240  0.00  0.00    -0.034 C 
ATOM     27  C   LIG A   1      -4.489  -3.931 123.549  0.00  0.00    +0.004 C 
ENDBRANCH  25  26
ENDBRANCH   1  25
TORSDOF 5
ENDMDL
MODEL 4
REMARK VINA RESULT:      -7.1      2.714      3.699
REMARK  Name = NuBBE_2098
REMARK  7 active torsions:
REMARK  status: ('A' for Active; 'I' for Inactive)
REMARK    1  A    between atoms: C_1  and  C_2
REMARK    2  A    between atoms: C_1  and  C_4
REMARK    3  A    between atoms: C_5  and  O_6
REMARK    4  A    between atoms: C_8  and  C_13
REMARK    5  A    between atoms: C_10  and  C_12
REMARK    6  A    between atoms: C_17  and  O_19
REMARK    7  A    between atoms: O_19  and  C_20
REMARK                            x       y       z     vdW  Elec       q    Type
REMARK                         _______ _______ _______ _____ _____    ______ ____
ROOT
ATOM      1  C   LIG A   1      -7.672  -2.418 124.847  0.00  0.00    +0.044 C 
ATOM      2  C   LIG A   1      -8.189  -0.968 124.920  0.00  0.00    +0.239 C 
ATOM      3  O   LIG A   1      -7.225  -0.287 125.693  0.00  0.00    -0.334 OA
ATOM      4  C   LIG A   1      -6.806  -1.180 126.763  0.00  0.00    +0.156 C 
ATOM      5  C   LIG A   1      -7.206  -2.629 126.316  0.00  0.00    +0.032 C 
ATOM      6  C   LIG A   1      -8.204  -3.391 127.190  0.00  0.00    +0.011 C 
ATOM      7  C   LIG A   1      -8.592  -0.470 123.501  0.00  0.00    +0.215 C 
ATOM      8  O   LIG A   1      -8.427   0.669 123.096  0.00  0.00    -0.287 OA
ATOM      9  C   LIG A   1      -9.322  -1.474 122.648  0.00  0.00    +0.048 C 
ATOM     10  C   LIG A   1      -9.431  -2.752 123.045  0.00  0.00    -0.022 C 
ATOM     11  C   LIG A   1      -8.827  -3.301 124.317  0.00  0.00    +0.040 C 
ENDROOT
BRANCH   4  12
ATOM     12  C   LIG A   1      -7.254  -0.652 128.122  0.00  0.00    -0.011 A 
ATOM     13  C   LIG A   1      -7.298  -1.486 129.253  0.00  0.00    +0.056 A 
ATOM     14  C   LIG A   1      -7.706  -0.956 130.464  0.00  0.00    +0.170 A 
ATOM     15  C   LIG A   1      -8.080   0.361 130.609  0.00  0.00    +0.207 A 
ATOM     16  C   LIG A   1      -8.086   1.212 129.520  0.00  0.00    +0.166 A 
ATOM     17  C   LIG A   1      -7.694   0.684 128.276  0.00  0.00    +0.056 A 
ATOM     18  O   LIG A   1      -8.393   0.649 131.903  0.00  0.00    -0.449 OA
ATOM     19  C   LIG A   1      -8.239  -0.638 132.531  0.00  0.00    +0.467 C 
ATOM     20  O   LIG A   1      -7.770  -1.656 131.631  0.00  0.00    -0.453 OA
BRANCH  16  21
ATOM     21  O   LIG A   1      -8.384   2.546 129.507  0.00  0.00    -0.491 OA
ATOM     22  C   LIG A   1      -9.649   2.918 130.039  0.00  0.00    +0.277 C 
ENDBRANCH  16  21
ENDBRANCH   4  12
BRANCH   2  23
ATOM     23  O   LIG A   1      -9.412  -0.890 125.666  0.00  0.00    -0.358 OA
ATOM     24  H   LIG A   1      -9.625  -1.820 125.870  0.00  0.00    +0.213 HD
ENDBRANCH   2  23
BRANCH   1  25
ATOM     25  C   LIG A   1      -6.419  -2.527 123.893  0.00  0.00    +0.040 C 
BRANCH  25  26
ATOM     26  C   LIG A   1      -5.663  -3.833 123.989  0.00  0.00    -0.034 C 
ATOM     27  C   LIG A   1      -4.400  -4.004 123.573  0.00  0.00    +0.004 C 
ENDBRANCH  25  26
ENDBRANCH   1  25
TORSDOF 5
ENDMDL
MODEL 5
REMARK VINA RESULT:      -6.9      3.613      6.884
REMARK  Name = NuBBE_2098
REMARK  7 active torsions:
REMARK  status: ('A' for Active; 'I' for Inactive)
REMARK    1  A    between atoms: C_1  and  C_2
REMARK    2  A    between atoms: C_1  and  C_4
REMARK    3  A    between atoms: C_5  and  O_6
REMARK    4  A    between atoms: C_8  and  C_13
REMARK    5  A    between atoms: C_10  and  C_12
REMARK    6  A    between atoms: C_17  and  O_19
REMARK    7  A    between atoms: O_19  and  C_20
REMARK                            x       y       z     vdW  Elec       q    Type
REMARK                         _______ _______ _______ _____ _____    ______ ____
ROOT
ATOM      1  C   LIG A   1      -6.633  -2.388 130.464  0.00  0.00    +0.044 C 
ATOM      2  C   LIG A   1      -5.373  -2.177 129.600  0.00  0.00    +0.239 C 
ATOM      3  O   LIG A   1      -5.665  -1.036 128.824  0.00  0.00    -0.334 OA
ATOM      4  C   LIG A   1      -7.062  -1.115 128.427  0.00  0.00    +0.156 C 
ATOM      5  C   LIG A   1      -7.747  -2.125 129.412  0.00  0.00    +0.032 C 
ATOM      6  C   LIG A   1      -8.361  -3.393 128.815  0.00  0.00    +0.011 C 
ATOM      7  C   LIG A   1      -4.096  -2.252 130.486  0.00  0.00    +0.215 C 
ATOM      8  O   LIG A   1      -3.102  -1.565 130.325  0.00  0.00    -0.287 OA
ATOM      9  C   LIG A   1      -4.101  -3.334 131.534  0.00  0.00    +0.048 C 
ATOM     10  C   LIG A   1      -5.219  -4.036 131.780  0.00  0.00    -0.022 C 
ATOM     11  C   LIG A   1      -6.541  -3.801 131.088  0.00  0.00    +0.040 C 
ENDROOT
BRANCH   4  12
ATOM     12  C   LIG A   1      -7.192  -1.316 126.920  0.00  0.00    -0.011 A 
ATOM     13  C   LIG A   1      -8.404  -1.072 126.251  0.00  0.00    +0.056 A 
ATOM     14  C   LIG A   1      -8.466  -1.264 124.882  0.00  0.00    +0.170 A 
ATOM     15  C   LIG A   1      -7.387  -1.692 124.143  0.00  0.00    +0.207 A 
ATOM     16  C   LIG A   1      -6.183  -1.978 124.760  0.00  0.00    +0.166 A 
ATOM     17  C   LIG A   1      -6.108  -1.809 126.154  0.00  0.00    +0.056 A 
ATOM     18  O   LIG A   1      -7.687  -1.757 122.816  0.00  0.00    -0.449 OA
ATOM     19  C   LIG A   1      -9.080  -1.389 122.816  0.00  0.00    +0.467 C 
ATOM     20  O   LIG A   1      -9.575  -1.041 124.121  0.00  0.00    -0.453 OA
BRANCH  16  21
ATOM     21  O   LIG A   1      -5.015  -2.366 124.167  0.00  0.00    -0.491 OA
ATOM     22  C   LIG A   1      -4.869  -3.755 123.902  0.00  0.00    +0.277 C 
ENDBRANCH  16  21
ENDBRANCH   4  12
BRANCH   2  23
ATOM     23  O   LIG A   1      -5.200  -3.250 128.663  0.00  0.00    -0.358 OA
ATOM     24  H   LIG A   1      -5.660  -2.941 127.861  0.00  0.00    +0.213 HD
ENDBRANCH   2  23
BRANCH   1  25
ATOM     25  C   LIG A   1      -6.733  -1.295 131.598  0.00  0.00    +0.040 C 
BRANCH  25  26
ATOM     26  C   LIG A   1      -8.144  -0.908 131.981  0.00  0.00    -0.034 C 
ATOM     27  C   LIG A   1      -8.609   0.348 131.971  0.00  0.00    +0.004 C 
ENDBRANCH  25  26
ENDBRANCH   1  25
TORSDOF 5
ENDMDL
MODEL 6
REMARK VINA RESULT:      -6.9      1.727      3.665
REMARK  Name = NuBBE_2098
REMARK  7 active torsions:
REMARK  status: ('A' for Active; 'I' for Inactive)
REMARK    1  A    between atoms: C_1  and  C_2
REMARK    2  A    between atoms: C_1  and  C_4
REMARK    3  A    between atoms: C_5  and  O_6
REMARK    4  A    between atoms: C_8  and  C_13
REMARK    5  A    between atoms: C_10  and  C_12
REMARK    6  A    between atoms: C_17  and  O_19
REMARK    7  A    between atoms: O_19  and  C_20
REMARK                            x       y       z     vdW  Elec       q    Type
REMARK                         _______ _______ _______ _____ _____    ______ ____
ROOT
ATOM      1  C   LIG A   1      -8.295  -1.531 124.994  0.00  0.00    +0.044 C 
ATOM      2  C   LIG A   1      -6.837  -1.037 124.912  0.00  0.00    +0.239 C 
ATOM      3  O   LIG A   1      -6.436  -0.895 126.256  0.00  0.00    -0.334 OA
ATOM      4  C   LIG A   1      -7.561  -0.350 126.999  0.00  0.00    +0.156 C 
ATOM      5  C   LIG A   1      -8.840  -0.622 126.133  0.00  0.00    +0.032 C 
ATOM      6  C   LIG A   1      -9.637   0.589 125.645  0.00  0.00    +0.011 C 
ATOM      7  C   LIG A   1      -6.029  -1.914 123.911  0.00  0.00    +0.215 C 
ATOM      8  O   LIG A   1      -4.861  -2.230 124.056  0.00  0.00    -0.287 OA
ATOM      9  C   LIG A   1      -6.758  -2.285 122.645  0.00  0.00    +0.048 C 
ATOM     10  C   LIG A   1      -8.068  -2.021 122.512  0.00  0.00    -0.022 C 
ATOM     11  C   LIG A   1      -8.920  -1.384 123.586  0.00  0.00    +0.040 C 
ENDROOT
BRANCH   4  12
ATOM     12  C   LIG A   1      -7.261   1.063 127.488  0.00  0.00    -0.011 A 
ATOM     13  C   LIG A   1      -5.989   1.640 127.325  0.00  0.00    +0.056 A 
ATOM     14  C   LIG A   1      -5.771   2.927 127.782  0.00  0.00    +0.170 A 
ATOM     15  C   LIG A   1      -6.751   3.671 128.400  0.00  0.00    +0.207 A 
ATOM     16  C   LIG A   1      -8.007   3.137 128.614  0.00  0.00    +0.166 A 
ATOM     17  C   LIG A   1      -8.240   1.821 128.175  0.00  0.00    +0.056 A 
ATOM     18  O   LIG A   1      -6.304   4.919 128.712  0.00  0.00    -0.449 OA
ATOM     19  C   LIG A   1      -4.930   4.850 128.286  0.00  0.00    +0.467 C 
ATOM     20  O   LIG A   1      -4.592   3.600 127.663  0.00  0.00    -0.453 OA
BRANCH  16  21
ATOM     21  O   LIG A   1      -9.093   3.756 129.166  0.00  0.00    -0.491 OA
ATOM     22  C   LIG A   1      -9.735   3.074 130.237  0.00  0.00    +0.277 C 
ENDBRANCH  16  21
ENDBRANCH   4  12
BRANCH   2  23
ATOM     23  O   LIG A   1      -6.766   0.279 124.343  0.00  0.00    -0.358 OA
ATOM     24  H   LIG A   1      -5.879   0.597 124.594  0.00  0.00    +0.213 HD
ENDBRANCH   2  23
BRANCH   1  25
ATOM     25  C   LIG A   1      -8.360  -3.036 125.466  0.00  0.00    +0.040 C 
BRANCH  25  26
ATOM     26  C   LIG A   1      -9.304  -3.297 126.618  0.00  0.00    -0.034 C 
ATOM     27  C   LIG A   1      -8.952  -3.909 127.757  0.00  0.00    +0.004 C 
ENDBRANCH  25  26
ENDBRANCH   1  25
TORSDOF 5
ENDMDL
MODEL 7
REMARK VINA RESULT:      -6.9      3.796      6.916
REMARK  Name = NuBBE_2098
REMARK  7 active torsions:
REMARK  status: ('A' for Active; 'I' for Inactive)
REMARK    1  A    between atoms: C_1  and  C_2
REMARK    2  A    between atoms: C_1  and  C_4
REMARK    3  A    between atoms: C_5  and  O_6
REMARK    4  A    between atoms: C_8  and  C_13
REMARK    5  A    between atoms: C_10  and  C_12
REMARK    6  A    between atoms: C_17  and  O_19
REMARK    7  A    between atoms: O_19  and  C_20
REMARK                            x       y       z     vdW  Elec       q    Type
REMARK                         _______ _______ _______ _____ _____    ______ ____
ROOT
ATOM      1  C   LIG A   1      -6.479  -2.631 130.441  0.00  0.00    +0.044 C 
ATOM      2  C   LIG A   1      -5.276  -2.262 129.550  0.00  0.00    +0.239 C 
ATOM      3  O   LIG A   1      -5.623  -1.017 128.985  0.00  0.00    -0.334 OA
ATOM      4  C   LIG A   1      -7.041  -1.058 128.662  0.00  0.00    +0.156 C 
ATOM      5  C   LIG A   1      -7.658  -2.223 129.511  0.00  0.00    +0.032 C 
ATOM      6  C   LIG A   1      -8.296  -3.390 128.755  0.00  0.00    +0.011 C 
ATOM      7  C   LIG A   1      -3.947  -2.455 130.337  0.00  0.00    +0.215 C 
ATOM      8  O   LIG A   1      -2.970  -1.733 130.231  0.00  0.00    -0.287 OA
ATOM      9  C   LIG A   1      -3.880  -3.690 131.198  0.00  0.00    +0.048 C 
ATOM     10  C   LIG A   1      -4.975  -4.442 131.392  0.00  0.00    -0.022 C 
ATOM     11  C   LIG A   1      -6.338  -4.123 130.824  0.00  0.00    +0.040 C 
ENDROOT
BRANCH   4  12
ATOM     12  C   LIG A   1      -7.260  -1.017 127.153  0.00  0.00    -0.011 A 
ATOM     13  C   LIG A   1      -6.286  -1.495 126.259  0.00  0.00    +0.056 A 
ATOM     14  C   LIG A   1      -6.537  -1.440 124.900  0.00  0.00    +0.170 A 
ATOM     15  C   LIG A   1      -7.706  -0.929 124.381  0.00  0.00    +0.207 A 
ATOM     16  C   LIG A   1      -8.679  -0.416 125.217  0.00  0.00    +0.166 A 
ATOM     17  C   LIG A   1      -8.431  -0.444 126.602  0.00  0.00    +0.056 A 
ATOM     18  O   LIG A   1      -7.732  -1.031 123.023  0.00  0.00    -0.449 OA
ATOM     19  C   LIG A   1      -6.436  -1.596 122.749  0.00  0.00    +0.467 C 
ATOM     20  O   LIG A   1      -5.683  -1.891 123.938  0.00  0.00    -0.453 OA
BRANCH  16  21
ATOM     21  O   LIG A   1      -9.902   0.081 124.865  0.00  0.00    -0.491 OA
ATOM     22  C   LIG A   1      -9.934   1.436 124.432  0.00  0.00    +0.277 C 
ENDBRANCH  16  21
ENDBRANCH   4  12
BRANCH   2  23
ATOM     23  O   LIG A   1      -5.151  -3.169 128.446  0.00  0.00    -0.358 OA
ATOM     24  H   LIG A   1      -4.260  -2.990 128.092  0.00  0.00    +0.213 HD
ENDBRANCH   2  23
BRANCH   1  25
ATOM     25  C   LIG A   1      -6.520  -1.734 131.740  0.00  0.00    +0.040 C 
BRANCH  25  26
ATOM     26  C   LIG A   1      -7.799  -1.839 132.540  0.00  0.00    -0.034 C 
ATOM     27  C   LIG A   1      -7.938  -2.589 133.642  0.00  0.00    +0.004 C 
ENDBRANCH  25  26
ENDBRANCH   1  25
TORSDOF 5
ENDMDL
MODEL 8
REMARK VINA RESULT:      -6.8      3.199      8.377
REMARK  Name = NuBBE_2098
REMARK  7 active torsions:
REMARK  status: ('A' for Active; 'I' for Inactive)
REMARK    1  A    between atoms: C_1  and  C_2
REMARK    2  A    between atoms: C_1  and  C_4
REMARK    3  A    between atoms: C_5  and  O_6
REMARK    4  A    between atoms: C_8  and  C_13
REMARK    5  A    between atoms: C_10  and  C_12
REMARK    6  A    between atoms: C_17  and  O_19
REMARK    7  A    between atoms: O_19  and  C_20
REMARK                            x       y       z     vdW  Elec       q    Type
REMARK                         _______ _______ _______ _____ _____    ______ ____
ROOT
ATOM      1  C   LIG A   1      -8.594   4.525 131.198  0.00  0.00    +0.044 C 
ATOM      2  C   LIG A   1      -9.457   4.460 129.922  0.00  0.00    +0.239 C 
ATOM      3  O   LIG A   1      -9.952   3.139 129.897  0.00  0.00    -0.334 OA
ATOM      4  C   LIG A   1      -8.884   2.258 130.343  0.00  0.00    +0.156 C 
ATOM      5  C   LIG A   1      -7.856   3.159 131.113  0.00  0.00    +0.032 C 
ATOM      6  C   LIG A   1      -6.433   3.245 130.557  0.00  0.00    +0.011 C 
ATOM      7  C   LIG A   1     -10.413   5.687 129.858  0.00  0.00    +0.215 C 
ATOM      8  O   LIG A   1     -11.553   5.653 129.427  0.00  0.00    -0.287 OA
ATOM      9  C   LIG A   1      -9.804   7.001 130.274  0.00  0.00    +0.048 C 
ATOM     10  C   LIG A   1      -8.584   7.038 130.832  0.00  0.00    -0.022 C 
ATOM     11  C   LIG A   1      -7.744   5.816 131.123  0.00  0.00    +0.040 C 
ENDROOT
BRANCH   4  12
ATOM     12  C   LIG A   1      -8.406   1.359 129.207  0.00  0.00    -0.011 A 
ATOM     13  C   LIG A   1      -7.733   0.152 129.461  0.00  0.00    +0.056 A 
ATOM     14  C   LIG A   1      -7.325  -0.629 128.394  0.00  0.00    +0.170 A 
ATOM     15  C   LIG A   1      -7.547  -0.268 127.084  0.00  0.00    +0.207 A 
ATOM     16  C   LIG A   1      -8.173   0.926 126.781  0.00  0.00    +0.166 A 
ATOM     17  C   LIG A   1      -8.575   1.743 127.854  0.00  0.00    +0.056 A 
ATOM     18  O   LIG A   1      -7.096  -1.222 126.223  0.00  0.00    -0.449 OA
ATOM     19  C   LIG A   1      -6.515  -2.179 127.130  0.00  0.00    +0.467 C 
ATOM     20  O   LIG A   1      -6.686  -1.826 128.513  0.00  0.00    -0.453 OA
BRANCH  16  21
ATOM     21  O   LIG A   1      -8.505   1.403 125.545  0.00  0.00    -0.491 OA
ATOM     22  C   LIG A   1      -9.765   0.997 125.025  0.00  0.00    +0.277 C 
ENDBRANCH  16  21
ENDBRANCH   4  12
BRANCH   2  23
ATOM     23  O   LIG A   1      -8.651   4.596 128.743  0.00  0.00    -0.358 OA
ATOM     24  H   LIG A   1      -7.761   4.318 129.030  0.00  0.00    +0.213 HD
ENDBRANCH   2  23
BRANCH   1  25
ATOM     25  C   LIG A   1      -9.496   4.539 132.494  0.00  0.00    +0.040 C 
BRANCH  25  26
ATOM     26  C   LIG A   1      -8.908   3.810 133.681  0.00  0.00    -0.034 C 
ATOM     27  C   LIG A   1      -8.205   4.403 134.656  0.00  0.00    +0.004 C 
ENDBRANCH  25  26
ENDBRANCH   1  25
TORSDOF 5
ENDMDL
MODEL 9
REMARK VINA RESULT:      -6.8      6.644      8.832
REMARK  Name = NuBBE_2098
REMARK  7 active torsions:
REMARK  status: ('A' for Active; 'I' for Inactive)
REMARK    1  A    between atoms: C_1  and  C_2
REMARK    2  A    between atoms: C_1  and  C_4
REMARK    3  A    between atoms: C_5  and  O_6
REMARK    4  A    between atoms: C_8  and  C_13
REMARK    5  A    between atoms: C_10  and  C_12
REMARK    6  A    between atoms: C_17  and  O_19
REMARK    7  A    between atoms: O_19  and  C_20
REMARK                            x       y       z     vdW  Elec       q    Type
REMARK                         _______ _______ _______ _____ _____    ______ ____
ROOT
ATOM      1  C   LIG A   1      -3.899   4.661 130.255  0.00  0.00    +0.044 C 
ATOM      2  C   LIG A   1      -4.616   5.675 129.340  0.00  0.00    +0.239 C 
ATOM      3  O   LIG A   1      -5.139   6.641 130.225  0.00  0.00    -0.334 OA
ATOM      4  C   LIG A   1      -5.630   5.942 131.403  0.00  0.00    +0.156 C 
ATOM      5  C   LIG A   1      -4.935   4.536 131.408  0.00  0.00    +0.032 C 
ATOM      6  C   LIG A   1      -5.833   3.301 131.317  0.00  0.00    +0.011 C 
ATOM      7  C   LIG A   1      -3.690   6.076 128.155  0.00  0.00    +0.215 C 
ATOM      8  O   LIG A   1      -3.633   7.193 127.669  0.00  0.00    -0.287 OA
ATOM      9  C   LIG A   1      -2.907   4.946 127.537  0.00  0.00    +0.048 C 
ATOM     10  C   LIG A   1      -2.891   3.735 128.116  0.00  0.00    -0.022 C 
ATOM     11  C   LIG A   1      -3.596   3.401 129.410  0.00  0.00    +0.040 C 
ENDROOT
BRANCH   4  12
ATOM     12  C   LIG A   1      -7.149   6.041 131.504  0.00  0.00    -0.011 A 
ATOM     13  C   LIG A   1      -7.893   6.824 130.605  0.00  0.00    +0.056 A 
ATOM     14  C   LIG A   1      -9.269   6.874 130.737  0.00  0.00    +0.170 A 
ATOM     15  C   LIG A   1      -9.945   6.190 131.722  0.00  0.00    +0.207 A 
ATOM     16  C   LIG A   1      -9.256   5.434 132.651  0.00  0.00    +0.166 A 
ATOM     17  C   LIG A   1      -7.854   5.389 132.544  0.00  0.00    +0.056 A 
ATOM     18  O   LIG A   1     -11.292   6.363 131.611  0.00  0.00    -0.449 OA
ATOM     19  C   LIG A   1     -11.377   7.274 130.499  0.00  0.00    +0.467 C 
ATOM     20  O   LIG A   1     -10.099   7.578 129.916  0.00  0.00    -0.453 OA
BRANCH  16  21
ATOM     21  O   LIG A   1      -9.778   4.667 133.654  0.00  0.00    -0.491 OA
ATOM     22  C   LIG A   1      -9.022   3.526 134.038  0.00  0.00    +0.277 C 
ENDBRANCH  16  21
ENDBRANCH   4  12
BRANCH   2  23
ATOM     23  O   LIG A   1      -5.752   5.080 128.697  0.00  0.00    -0.358 OA
ATOM     24  H   LIG A   1      -6.267   5.843 128.374  0.00  0.00    +0.213 HD
ENDBRANCH   2  23
BRANCH   1  25
ATOM     25  C   LIG A   1      -2.561   5.266 130.834  0.00  0.00    +0.040 C 
BRANCH  25  26
ATOM     26  C   LIG A   1      -2.147   4.713 132.179  0.00  0.00    -0.034 C 
ATOM     27  C   LIG A   1      -1.648   5.455 133.177  0.00  0.00    +0.004 C 
ENDBRANCH  25  26
ENDBRANCH   1  25
TORSDOF 5
ENDMDL
