MODEL 1
REMARK VINA RESULT:      -7.6      0.000      0.000
REMARK  Name = NuBBE_64
REMARK  10 active torsions:
REMARK  status: ('A' for Active; 'I' for Inactive)
REMARK    1  A    between atoms: O_1  and  C_2
REMARK    2  A    between atoms: C_5  and  C_6
REMARK    3  A    between atoms: C_10  and  O_33
REMARK    4  A    between atoms: C_12  and  O_32
REMARK    5  A    between atoms: C_13  and  C_14
REMARK    6  A    between atoms: C_17  and  C_25
REMARK    7  A    between atoms: C_19  and  O_24
REMARK    8  A    between atoms: C_21  and  O_23
REMARK    9  A    between atoms: C_25  and  O_26
REMARK   10  A    between atoms: C_27  and  O_29
REMARK                            x       y       z     vdW  Elec       q    Type
REMARK                         _______ _______ _______ _____ _____    ______ ____
ROOT
ATOM      1  C   LIG A   1      -6.622   3.046 124.455  0.00  0.00    +0.211 C 
ATOM      2  C   LIG A   1      -5.135   3.276 124.673  0.00  0.00    +0.129 C 
ATOM      3  C   LIG A   1      -4.810   2.910 126.090  0.00  0.00    +0.174 C 
ATOM      4  C   LIG A   1      -5.558   1.784 126.680  0.00  0.00    +0.101 A 
ATOM      5  C   LIG A   1      -5.179   1.243 127.906  0.00  0.00    +0.134 A 
ATOM      6  C   LIG A   1      -5.826   0.117 128.395  0.00  0.00    +0.092 A 
ATOM      7  C   LIG A   1      -6.864  -0.473 127.664  0.00  0.00    +0.130 A 
ATOM      8  C   LIG A   1      -7.309   0.068 126.446  0.00  0.00    +0.068 A 
ATOM      9  C   LIG A   1      -6.617   1.212 125.962  0.00  0.00    +0.145 A 
ATOM     10  O   LIG A   1      -6.973   1.680 124.721  0.00  0.00    -0.482 OA
ATOM     11  O   LIG A   1      -3.912   3.451 126.729  0.00  0.00    -0.292 OA
ENDROOT
BRANCH   1  15
ATOM     12  C   LIG A   1      -7.643   3.938 120.353  0.00  0.00    +0.117 A 
ATOM     13  C   LIG A   1      -8.633   3.485 121.217  0.00  0.00    +0.046 A 
ATOM     14  C   LIG A   1      -8.305   3.197 122.545  0.00  0.00    +0.011 A 
ATOM     15  C   LIG A   1      -6.993   3.371 123.018  0.00  0.00    -0.007 A 
ATOM     16  C   LIG A   1      -6.010   3.821 122.122  0.00  0.00    +0.011 A 
ATOM     17  C   LIG A   1      -6.336   4.105 120.794  0.00  0.00    +0.046 A 
BRANCH  12  18
ATOM     18  O   LIG A   1      -7.918   4.233 119.052  0.00  0.00    -0.507 OA
ATOM     19  H   LIG A   1      -8.699   4.810 119.025  0.00  0.00    +0.292 HD
ENDBRANCH  12  18
ENDBRANCH   1  15
BRANCH   8  20
ATOM     20  C   LIG A   1      -8.452  -0.496 125.593  0.00  0.00    +0.187 C 
ATOM     21  O   LIG A   1      -8.569  -1.924 125.779  0.00  0.00    -0.361 OA
ATOM     22  C   LIG A   1      -7.963  -2.780 124.805  0.00  0.00    +0.175 C 
ATOM     23  C   LIG A   1      -8.423  -2.427 123.381  0.00  0.00    +0.176 C 
ATOM     24  C   LIG A   1      -8.083  -0.972 123.056  0.00  0.00    +0.177 C 
ATOM     25  C   LIG A   1      -8.682  -0.033 124.127  0.00  0.00    +0.179 C 
BRANCH  24  26
ATOM     26  O   LIG A   1      -6.671  -0.857 122.884  0.00  0.00    -0.387 OA
ATOM     27  H   LIG A   1      -6.321  -0.414 123.682  0.00  0.00    +0.210 HD
ENDBRANCH  24  26
BRANCH  23  28
ATOM     28  O   LIG A   1      -9.849  -2.600 123.274  0.00  0.00    -0.387 OA
ATOM     29  H   LIG A   1     -10.234  -1.710 123.179  0.00  0.00    +0.210 HD
ENDBRANCH  23  28
BRANCH  25  30
ATOM     30  O   LIG A   1     -10.113   0.040 123.895  0.00  0.00    -0.386 OA
ATOM     31  H   LIG A   1     -10.444   0.771 124.464  0.00  0.00    +0.210 HD
ENDBRANCH  25  30
BRANCH  22  32
ATOM     32  C   LIG A   1      -6.444  -2.891 124.998  0.00  0.00    +0.190 C 
BRANCH  32  33
ATOM     33  O   LIG A   1      -5.823  -3.580 123.918  0.00  0.00    -0.392 OA
ATOM     34  H   LIG A   1      -5.328  -4.323 124.315  0.00  0.00    +0.209 HD
ENDBRANCH  32  33
ENDBRANCH  22  32
ENDBRANCH   8  20
BRANCH   7  35
ATOM     35  O   LIG A   1      -7.422  -1.611 128.174  0.00  0.00    -0.506 OA
ATOM     36  H   LIG A   1      -6.886  -1.896 128.941  0.00  0.00    +0.292 HD
ENDBRANCH   7  35
BRANCH   5  37
ATOM     37  O   LIG A   1      -4.158   1.741 128.669  0.00  0.00    -0.506 OA
ATOM     38  H   LIG A   1      -4.070   2.702 128.476  0.00  0.00    +0.292 HD
ENDBRANCH   5  37
TORSDOF 10
ENDMDL
MODEL 2
REMARK VINA RESULT:      -7.6      2.380      7.480
REMARK  Name = NuBBE_64
REMARK  10 active torsions:
REMARK  status: ('A' for Active; 'I' for Inactive)
REMARK    1  A    between atoms: O_1  and  C_2
REMARK    2  A    between atoms: C_5  and  C_6
REMARK    3  A    between atoms: C_10  and  O_33
REMARK    4  A    between atoms: C_12  and  O_32
REMARK    5  A    between atoms: C_13  and  C_14
REMARK    6  A    between atoms: C_17  and  C_25
REMARK    7  A    between atoms: C_19  and  O_24
REMARK    8  A    between atoms: C_21  and  O_23
REMARK    9  A    between atoms: C_25  and  O_26
REMARK   10  A    between atoms: C_27  and  O_29
REMARK                            x       y       z     vdW  Elec       q    Type
REMARK                         _______ _______ _______ _____ _____    ______ ____
ROOT
ATOM      1  C   LIG A   1      -8.015  -1.738 126.875  0.00  0.00    +0.211 C 
ATOM      2  C   LIG A   1      -7.956  -2.481 125.550  0.00  0.00    +0.129 C 
ATOM      3  C   LIG A   1      -8.879  -1.794 124.590  0.00  0.00    +0.174 C 
ATOM      4  C   LIG A   1      -8.991  -0.327 124.699  0.00  0.00    +0.101 A 
ATOM      5  C   LIG A   1      -9.654   0.412 123.723  0.00  0.00    +0.134 A 
ATOM      6  C   LIG A   1      -9.657   1.797 123.786  0.00  0.00    +0.092 A 
ATOM      7  C   LIG A   1      -9.001   2.456 124.833  0.00  0.00    +0.130 A 
ATOM      8  C   LIG A   1      -8.361   1.749 125.864  0.00  0.00    +0.068 A 
ATOM      9  C   LIG A   1      -8.360   0.331 125.764  0.00  0.00    +0.145 A 
ATOM     10  O   LIG A   1      -7.643  -0.362 126.708  0.00  0.00    -0.482 OA
ATOM     11  O   LIG A   1      -9.467  -2.387 123.689  0.00  0.00    -0.292 OA
ENDROOT
BRANCH   1  15
ATOM     12  C   LIG A   1      -5.300  -3.518 129.725  0.00  0.00    +0.117 A 
ATOM     13  C   LIG A   1      -6.666  -3.741 129.857  0.00  0.00    +0.046 A 
ATOM     14  C   LIG A   1      -7.546  -3.167 128.935  0.00  0.00    +0.011 A 
ATOM     15  C   LIG A   1      -7.066  -2.380 127.874  0.00  0.00    -0.007 A 
ATOM     16  C   LIG A   1      -5.683  -2.163 127.769  0.00  0.00    +0.011 A 
ATOM     17  C   LIG A   1      -4.804  -2.733 128.692  0.00  0.00    +0.046 A 
BRANCH  12  18
ATOM     18  O   LIG A   1      -4.407  -4.059 130.600  0.00  0.00    -0.507 OA
ATOM     19  H   LIG A   1      -4.305  -5.003 130.393  0.00  0.00    +0.292 HD
ENDBRANCH  12  18
ENDBRANCH   1  15
BRANCH   8  20
ATOM     20  C   LIG A   1      -7.641   2.387 127.059  0.00  0.00    +0.187 C 
ATOM     21  O   LIG A   1      -7.191   3.719 126.730  0.00  0.00    -0.361 OA
ATOM     22  C   LIG A   1      -5.824   3.888 126.338  0.00  0.00    +0.175 C 
ATOM     23  C   LIG A   1      -4.862   3.281 127.372  0.00  0.00    +0.176 C 
ATOM     24  C   LIG A   1      -5.153   1.792 127.562  0.00  0.00    +0.177 C 
ATOM     25  C   LIG A   1      -6.638   1.583 127.933  0.00  0.00    +0.179 C 
BRANCH  24  26
ATOM     26  O   LIG A   1      -4.723   1.087 126.398  0.00  0.00    -0.387 OA
ATOM     27  H   LIG A   1      -4.478   0.185 126.685  0.00  0.00    +0.210 HD
ENDBRANCH  24  26
BRANCH  23  28
ATOM     28  O   LIG A   1      -5.028   3.947 128.639  0.00  0.00    -0.387 OA
ATOM     29  H   LIG A   1      -4.374   3.558 129.249  0.00  0.00    +0.210 HD
ENDBRANCH  23  28
BRANCH  25  30
ATOM     30  O   LIG A   1      -6.808   1.996 129.313  0.00  0.00    -0.386 OA
ATOM     31  H   LIG A   1      -7.773   1.946 129.496  0.00  0.00    +0.210 HD
ENDBRANCH  25  30
BRANCH  22  32
ATOM     32  C   LIG A   1      -5.583   3.459 124.883  0.00  0.00    +0.190 C 
BRANCH  32  33
ATOM     33  O   LIG A   1      -6.203   4.349 123.961  0.00  0.00    -0.392 OA
ATOM     34  H   LIG A   1      -6.286   3.857 123.120  0.00  0.00    +0.209 HD
ENDBRANCH  32  33
ENDBRANCH  22  32
ENDBRANCH   8  20
BRANCH   7  35
ATOM     35  O   LIG A   1      -8.995   3.823 124.806  0.00  0.00    -0.506 OA
ATOM     36  H   LIG A   1      -9.593   4.117 124.092  0.00  0.00    +0.292 HD
ENDBRANCH   7  35
BRANCH   5  37
ATOM     37  O   LIG A   1     -10.294  -0.153 122.653  0.00  0.00    -0.506 OA
ATOM     38  H   LIG A   1     -10.618  -1.043 122.922  0.00  0.00    +0.292 HD
ENDBRANCH   5  37
TORSDOF 10
ENDMDL
MODEL 3
REMARK VINA RESULT:      -7.4      1.167      2.444
REMARK  Name = NuBBE_64
REMARK  10 active torsions:
REMARK  status: ('A' for Active; 'I' for Inactive)
REMARK    1  A    between atoms: O_1  and  C_2
REMARK    2  A    between atoms: C_5  and  C_6
REMARK    3  A    between atoms: C_10  and  O_33
REMARK    4  A    between atoms: C_12  and  O_32
REMARK    5  A    between atoms: C_13  and  C_14
REMARK    6  A    between atoms: C_17  and  C_25
REMARK    7  A    between atoms: C_19  and  O_24
REMARK    8  A    between atoms: C_21  and  O_23
REMARK    9  A    between atoms: C_25  and  O_26
REMARK   10  A    between atoms: C_27  and  O_29
REMARK                            x       y       z     vdW  Elec       q    Type
REMARK                         _______ _______ _______ _____ _____    ______ ____
ROOT
ATOM      1  C   LIG A   1      -6.604   3.310 124.021  0.00  0.00    +0.211 C 
ATOM      2  C   LIG A   1      -5.569   4.252 124.614  0.00  0.00    +0.129 C 
ATOM      3  C   LIG A   1      -5.412   3.916 126.066  0.00  0.00    +0.174 C 
ATOM      4  C   LIG A   1      -5.535   2.495 126.443  0.00  0.00    +0.101 A 
ATOM      5  C   LIG A   1      -5.198   2.067 127.725  0.00  0.00    +0.134 A 
ATOM      6  C   LIG A   1      -5.218   0.714 128.030  0.00  0.00    +0.092 A 
ATOM      7  C   LIG A   1      -5.584  -0.223 127.055  0.00  0.00    +0.130 A 
ATOM      8  C   LIG A   1      -5.976   0.169 125.765  0.00  0.00    +0.068 A 
ATOM      9  C   LIG A   1      -5.930   1.561 125.476  0.00  0.00    +0.145 A 
ATOM     10  O   LIG A   1      -6.207   1.942 124.186  0.00  0.00    -0.482 OA
ATOM     11  O   LIG A   1      -5.113   4.751 126.915  0.00  0.00    -0.292 OA
ENDROOT
BRANCH   1  15
ATOM     12  C   LIG A   1      -7.116   4.142 119.813  0.00  0.00    +0.117 A 
ATOM     13  C   LIG A   1      -5.855   4.273 120.383  0.00  0.00    +0.046 A 
ATOM     14  C   LIG A   1      -5.687   4.003 121.743  0.00  0.00    +0.011 A 
ATOM     15  C   LIG A   1      -6.773   3.591 122.537  0.00  0.00    -0.007 A 
ATOM     16  C   LIG A   1      -8.037   3.475 121.937  0.00  0.00    +0.011 A 
ATOM     17  C   LIG A   1      -8.206   3.748 120.579  0.00  0.00    +0.046 A 
BRANCH  12  18
ATOM     18  O   LIG A   1      -7.325   4.392 118.489  0.00  0.00    -0.507 OA
ATOM     19  H   LIG A   1      -6.648   3.922 117.976  0.00  0.00    +0.292 HD
ENDBRANCH  12  18
ENDBRANCH   1  15
BRANCH   8  20
ATOM     20  C   LIG A   1      -6.414  -0.784 124.647  0.00  0.00    +0.187 C 
ATOM     21  O   LIG A   1      -7.651  -0.337 124.051  0.00  0.00    -0.361 OA
ATOM     22  C   LIG A   1      -8.869  -0.948 124.492  0.00  0.00    +0.175 C 
ATOM     23  C   LIG A   1      -8.798  -2.480 124.393  0.00  0.00    +0.176 C 
ATOM     24  C   LIG A   1      -7.633  -3.015 125.227  0.00  0.00    +0.177 C 
ATOM     25  C   LIG A   1      -6.316  -2.328 124.804  0.00  0.00    +0.179 C 
BRANCH  24  26
ATOM     26  O   LIG A   1      -7.958  -2.883 126.610  0.00  0.00    -0.387 OA
ATOM     27  H   LIG A   1      -8.681  -2.226 126.672  0.00  0.00    +0.210 HD
ENDBRANCH  24  26
BRANCH  23  28
ATOM     28  O   LIG A   1      -8.597  -2.870 123.021  0.00  0.00    -0.387 OA
ATOM     29  H   LIG A   1      -7.767  -3.381 122.992  0.00  0.00    +0.210 HD
ENDBRANCH  23  28
BRANCH  25  30
ATOM     30  O   LIG A   1      -5.919  -2.889 123.526  0.00  0.00    -0.386 OA
ATOM     31  H   LIG A   1      -5.419  -3.711 123.732  0.00  0.00    +0.210 HD
ENDBRANCH  25  30
BRANCH  22  32
ATOM     32  C   LIG A   1      -9.335  -0.396 125.847  0.00  0.00    +0.190 C 
BRANCH  32  33
ATOM     33  O   LIG A   1      -9.443   1.023 125.830  0.00  0.00    -0.392 OA
ATOM     34  H   LIG A   1     -10.087   1.240 125.127  0.00  0.00    +0.209 HD
ENDBRANCH  32  33
ENDBRANCH  22  32
ENDBRANCH   8  20
BRANCH   7  35
ATOM     35  O   LIG A   1      -5.529  -1.543 127.405  0.00  0.00    -0.506 OA
ATOM     36  H   LIG A   1      -4.722  -1.930 127.012  0.00  0.00    +0.292 HD
ENDBRANCH   7  35
BRANCH   5  37
ATOM     37  O   LIG A   1      -4.803   2.914 128.724  0.00  0.00    -0.506 OA
ATOM     38  H   LIG A   1      -5.086   2.528 129.585  0.00  0.00    +0.292 HD
ENDBRANCH   5  37
TORSDOF 10
ENDMDL
MODEL 4
REMARK VINA RESULT:      -7.4      4.946      7.234
REMARK  Name = NuBBE_64
REMARK  10 active torsions:
REMARK  status: ('A' for Active; 'I' for Inactive)
REMARK    1  A    between atoms: O_1  and  C_2
REMARK    2  A    between atoms: C_5  and  C_6
REMARK    3  A    between atoms: C_10  and  O_33
REMARK    4  A    between atoms: C_12  and  O_32
REMARK    5  A    between atoms: C_13  and  C_14
REMARK    6  A    between atoms: C_17  and  C_25
REMARK    7  A    between atoms: C_19  and  O_24
REMARK    8  A    between atoms: C_21  and  O_23
REMARK    9  A    between atoms: C_25  and  O_26
REMARK   10  A    between atoms: C_27  and  O_29
REMARK                            x       y       z     vdW  Elec       q    Type
REMARK                         _______ _______ _______ _____ _____    ______ ____
ROOT
ATOM      1  C   LIG A   1      -7.677   1.616 127.326  0.00  0.00    +0.211 C 
ATOM      2  C   LIG A   1      -7.806   0.102 127.339  0.00  0.00    +0.129 C 
ATOM      3  C   LIG A   1      -7.650  -0.367 128.753  0.00  0.00    +0.174 C 
ATOM      4  C   LIG A   1      -8.188   0.507 129.813  0.00  0.00    +0.101 A 
ATOM      5  C   LIG A   1      -8.277   0.060 131.129  0.00  0.00    +0.134 A 
ATOM      6  C   LIG A   1      -8.883   0.854 132.090  0.00  0.00    +0.092 A 
ATOM      7  C   LIG A   1      -9.400   2.109 131.744  0.00  0.00    +0.130 A 
ATOM      8  C   LIG A   1      -9.289   2.619 130.440  0.00  0.00    +0.068 A 
ATOM      9  C   LIG A   1      -8.678   1.775 129.472  0.00  0.00    +0.145 A 
ATOM     10  O   LIG A   1      -8.665   2.221 128.173  0.00  0.00    -0.482 OA
ATOM     11  O   LIG A   1      -7.173  -1.460 129.046  0.00  0.00    -0.292 OA
ENDROOT
BRANCH   1  15
ATOM     12  C   LIG A   1      -8.250   3.129 123.320  0.00  0.00    +0.117 A 
ATOM     13  C   LIG A   1      -7.129   3.522 124.041  0.00  0.00    +0.046 A 
ATOM     14  C   LIG A   1      -6.940   3.033 125.336  0.00  0.00    +0.011 A 
ATOM     15  C   LIG A   1      -7.864   2.142 125.912  0.00  0.00    -0.007 A 
ATOM     16  C   LIG A   1      -8.992   1.769 125.166  0.00  0.00    +0.011 A 
ATOM     17  C   LIG A   1      -9.183   2.261 123.873  0.00  0.00    +0.046 A 
BRANCH  12  18
ATOM     18  O   LIG A   1      -8.472   3.580 122.054  0.00  0.00    -0.507 OA
ATOM     19  H   LIG A   1      -8.692   2.820 121.490  0.00  0.00    +0.292 HD
ENDBRANCH  12  18
ENDBRANCH   1  15
BRANCH   8  20
ATOM     20  C   LIG A   1      -9.803   3.988 129.980  0.00  0.00    +0.187 C 
ATOM     21  O   LIG A   1      -8.702   4.862 129.650  0.00  0.00    -0.361 OA
ATOM     22  C   LIG A   1      -8.276   5.808 130.637  0.00  0.00    +0.175 C 
ATOM     23  C   LIG A   1      -9.450   6.661 131.143  0.00  0.00    +0.176 C 
ATOM     24  C   LIG A   1     -10.541   5.770 131.736  0.00  0.00    +0.177 C 
ATOM     25  C   LIG A   1     -10.978   4.705 130.704  0.00  0.00    +0.179 C 
BRANCH  24  26
ATOM     26  O   LIG A   1     -10.081   5.243 132.979  0.00  0.00    -0.387 OA
ATOM     27  H   LIG A   1     -10.865   5.145 133.556  0.00  0.00    +0.210 HD
ENDBRANCH  24  26
BRANCH  23  28
ATOM     28  O   LIG A   1     -10.013   7.410 130.048  0.00  0.00    -0.387 OA
ATOM     29  H   LIG A   1      -9.391   8.135 129.853  0.00  0.00    +0.210 HD
ENDBRANCH  23  28
BRANCH  25  30
ATOM     30  O   LIG A   1     -11.788   5.372 129.702  0.00  0.00    -0.386 OA
ATOM     31  H   LIG A   1     -11.530   6.320 129.728  0.00  0.00    +0.210 HD
ENDBRANCH  25  30
BRANCH  22  32
ATOM     32  C   LIG A   1      -7.417   5.155 131.731  0.00  0.00    +0.190 C 
BRANCH  32  33
ATOM     33  O   LIG A   1      -7.230   6.023 132.843  0.00  0.00    -0.392 OA
ATOM     34  H   LIG A   1      -7.847   6.770 132.715  0.00  0.00    +0.209 HD
ENDBRANCH  32  33
ENDBRANCH  22  32
ENDBRANCH   8  20
BRANCH   7  35
ATOM     35  O   LIG A   1     -10.034   2.817 132.726  0.00  0.00    -0.506 OA
ATOM     36  H   LIG A   1      -9.643   2.564 133.586  0.00  0.00    +0.292 HD
ENDBRANCH   7  35
BRANCH   5  37
ATOM     37  O   LIG A   1      -7.823  -1.163 131.543  0.00  0.00    -0.506 OA
ATOM     38  H   LIG A   1      -7.489  -1.651 130.756  0.00  0.00    +0.292 HD
ENDBRANCH   5  37
TORSDOF 10
ENDMDL
MODEL 5
REMARK VINA RESULT:      -7.2      2.401      7.743
REMARK  Name = NuBBE_64
REMARK  10 active torsions:
REMARK  status: ('A' for Active; 'I' for Inactive)
REMARK    1  A    between atoms: O_1  and  C_2
REMARK    2  A    between atoms: C_5  and  C_6
REMARK    3  A    between atoms: C_10  and  O_33
REMARK    4  A    between atoms: C_12  and  O_32
REMARK    5  A    between atoms: C_13  and  C_14
REMARK    6  A    between atoms: C_17  and  C_25
REMARK    7  A    between atoms: C_19  and  O_24
REMARK    8  A    between atoms: C_21  and  O_23
REMARK    9  A    between atoms: C_25  and  O_26
REMARK   10  A    between atoms: C_27  and  O_29
REMARK                            x       y       z     vdW  Elec       q    Type
REMARK                         _______ _______ _______ _____ _____    ______ ____
ROOT
ATOM      1  C   LIG A   1      -7.593  -1.590 127.044  0.00  0.00    +0.211 C 
ATOM      2  C   LIG A   1      -8.055  -2.536 125.948  0.00  0.00    +0.129 C 
ATOM      3  C   LIG A   1      -8.822  -1.738 124.937  0.00  0.00    +0.174 C 
ATOM      4  C   LIG A   1      -8.365  -0.358 124.685  0.00  0.00    +0.101 A 
ATOM      5  C   LIG A   1      -8.879   0.379 123.622  0.00  0.00    +0.134 A 
ATOM      6  C   LIG A   1      -8.362   1.634 123.336  0.00  0.00    +0.092 A 
ATOM      7  C   LIG A   1      -7.330   2.166 124.119  0.00  0.00    +0.130 A 
ATOM      8  C   LIG A   1      -6.815   1.477 125.229  0.00  0.00    +0.068 A 
ATOM      9  C   LIG A   1      -7.353   0.186 125.488  0.00  0.00    +0.145 A 
ATOM     10  O   LIG A   1      -6.779  -0.539 126.503  0.00  0.00    -0.482 OA
ATOM     11  O   LIG A   1      -9.741  -2.209 124.272  0.00  0.00    -0.292 OA
ENDROOT
BRANCH   1  15
ATOM     12  C   LIG A   1      -5.258  -3.710 129.996  0.00  0.00    +0.117 A 
ATOM     13  C   LIG A   1      -6.645  -3.780 130.049  0.00  0.00    +0.046 A 
ATOM     14  C   LIG A   1      -7.402  -3.096 129.094  0.00  0.00    +0.011 A 
ATOM     15  C   LIG A   1      -6.779  -2.351 128.078  0.00  0.00    -0.007 A 
ATOM     16  C   LIG A   1      -5.377  -2.290 128.053  0.00  0.00    +0.011 A 
ATOM     17  C   LIG A   1      -4.620  -2.970 129.009  0.00  0.00    +0.046 A 
BRANCH  12  18
ATOM     18  O   LIG A   1      -4.481  -4.363 130.905  0.00  0.00    -0.507 OA
ATOM     19  H   LIG A   1      -4.962  -5.147 131.216  0.00  0.00    +0.292 HD
ENDBRANCH  12  18
ENDBRANCH   1  15
BRANCH   8  20
ATOM     20  C   LIG A   1      -5.705   1.993 126.153  0.00  0.00    +0.187 C 
ATOM     21  O   LIG A   1      -6.145   1.991 127.529  0.00  0.00    -0.361 OA
ATOM     22  C   LIG A   1      -6.619   3.224 128.083  0.00  0.00    +0.175 C 
ATOM     23  C   LIG A   1      -5.599   4.357 127.891  0.00  0.00    +0.176 C 
ATOM     24  C   LIG A   1      -5.295   4.555 126.406  0.00  0.00    +0.177 C 
ATOM     25  C   LIG A   1      -4.833   3.223 125.774  0.00  0.00    +0.179 C 
BRANCH  24  26
ATOM     26  O   LIG A   1      -6.429   5.151 125.779  0.00  0.00    -0.387 OA
ATOM     27  H   LIG A   1      -7.180   4.538 125.906  0.00  0.00    +0.210 HD
ENDBRANCH  24  26
BRANCH  23  28
ATOM     28  O   LIG A   1      -4.372   4.026 128.571  0.00  0.00    -0.387 OA
ATOM     29  H   LIG A   1      -3.947   3.316 128.055  0.00  0.00    +0.210 HD
ENDBRANCH  23  28
BRANCH  25  30
ATOM     30  O   LIG A   1      -3.476   2.971 126.223  0.00  0.00    -0.386 OA
ATOM     31  H   LIG A   1      -3.526   2.871 127.200  0.00  0.00    +0.210 HD
ENDBRANCH  25  30
BRANCH  22  32
ATOM     32  C   LIG A   1      -8.053   3.546 127.636  0.00  0.00    +0.190 C 
BRANCH  32  33
ATOM     33  O   LIG A   1      -8.422   4.880 127.968  0.00  0.00    -0.392 OA
ATOM     34  H   LIG A   1      -7.949   5.459 127.339  0.00  0.00    +0.209 HD
ENDBRANCH  32  33
ENDBRANCH  22  32
ENDBRANCH   8  20
BRANCH   7  35
ATOM     35  O   LIG A   1      -6.828   3.383 123.750  0.00  0.00    -0.506 OA
ATOM     36  H   LIG A   1      -5.984   3.235 123.279  0.00  0.00    +0.292 HD
ENDBRANCH   7  35
BRANCH   5  37
ATOM     37  O   LIG A   1      -9.866  -0.078 122.792  0.00  0.00    -0.506 OA
ATOM     38  H   LIG A   1     -10.736   0.106 123.216  0.00  0.00    +0.292 HD
ENDBRANCH   5  37
TORSDOF 10
ENDMDL
MODEL 6
REMARK VINA RESULT:      -7.0      4.853      7.204
REMARK  Name = NuBBE_64
REMARK  10 active torsions:
REMARK  status: ('A' for Active; 'I' for Inactive)
REMARK    1  A    between atoms: O_1  and  C_2
REMARK    2  A    between atoms: C_5  and  C_6
REMARK    3  A    between atoms: C_10  and  O_33
REMARK    4  A    between atoms: C_12  and  O_32
REMARK    5  A    between atoms: C_13  and  C_14
REMARK    6  A    between atoms: C_17  and  C_25
REMARK    7  A    between atoms: C_19  and  O_24
REMARK    8  A    between atoms: C_21  and  O_23
REMARK    9  A    between atoms: C_25  and  O_26
REMARK   10  A    between atoms: C_27  and  O_29
REMARK                            x       y       z     vdW  Elec       q    Type
REMARK                         _______ _______ _______ _____ _____    ______ ____
ROOT
ATOM      1  C   LIG A   1      -6.533   5.785 130.849  0.00  0.00    +0.211 C 
ATOM      2  C   LIG A   1      -5.814   7.117 130.977  0.00  0.00    +0.129 C 
ATOM      3  C   LIG A   1      -4.382   6.913 130.587  0.00  0.00    +0.174 C 
ATOM      4  C   LIG A   1      -4.112   5.939 129.511  0.00  0.00    +0.101 A 
ATOM      5  C   LIG A   1      -2.845   5.840 128.943  0.00  0.00    +0.134 A 
ATOM      6  C   LIG A   1      -2.636   4.996 127.862  0.00  0.00    +0.092 A 
ATOM      7  C   LIG A   1      -3.694   4.237 127.345  0.00  0.00    +0.130 A 
ATOM      8  C   LIG A   1      -4.975   4.272 127.919  0.00  0.00    +0.068 A 
ATOM      9  C   LIG A   1      -5.164   5.158 129.015  0.00  0.00    +0.145 A 
ATOM     10  O   LIG A   1      -6.439   5.279 129.509  0.00  0.00    -0.482 OA
ATOM     11  O   LIG A   1      -3.459   7.569 131.064  0.00  0.00    -0.292 OA
ENDROOT
BRANCH   1  15
ATOM     12  C   LIG A   1     -10.720   6.224 131.819  0.00  0.00    +0.117 A 
ATOM     13  C   LIG A   1      -9.830   5.826 132.811  0.00  0.00    +0.046 A 
ATOM     14  C   LIG A   1      -8.476   5.685 132.500  0.00  0.00    +0.011 A 
ATOM     15  C   LIG A   1      -8.002   5.950 131.202  0.00  0.00    -0.007 A 
ATOM     16  C   LIG A   1      -8.923   6.342 130.218  0.00  0.00    +0.011 A 
ATOM     17  C   LIG A   1     -10.277   6.479 130.528  0.00  0.00    +0.046 A 
BRANCH  12  18
ATOM     18  O   LIG A   1     -12.049   6.376 132.079  0.00  0.00    -0.507 OA
ATOM     19  H   LIG A   1     -12.205   7.293 132.359  0.00  0.00    +0.292 HD
ENDBRANCH  12  18
ENDBRANCH   1  15
BRANCH   8  20
ATOM     20  C   LIG A   1      -6.182   3.458 127.435  0.00  0.00    +0.187 C 
ATOM     21  O   LIG A   1      -6.726   2.664 128.511  0.00  0.00    -0.361 OA
ATOM     22  C   LIG A   1      -6.344   1.286 128.588  0.00  0.00    +0.175 C 
ATOM     23  C   LIG A   1      -6.596   0.557 127.258  0.00  0.00    +0.176 C 
ATOM     24  C   LIG A   1      -5.823   1.233 126.125  0.00  0.00    +0.177 C 
ATOM     25  C   LIG A   1      -6.180   2.734 126.059  0.00  0.00    +0.179 C 
BRANCH  24  26
ATOM     26  O   LIG A   1      -4.433   0.956 126.286  0.00  0.00    -0.387 OA
ATOM     27  H   LIG A   1      -4.197   0.281 125.618  0.00  0.00    +0.210 HD
ENDBRANCH  24  26
BRANCH  23  28
ATOM     28  O   LIG A   1      -8.001   0.594 126.942  0.00  0.00    -0.387 OA
ATOM     29  H   LIG A   1      -8.069   0.706 125.976  0.00  0.00    +0.210 HD
ENDBRANCH  23  28
BRANCH  25  30
ATOM     30  O   LIG A   1      -7.509   2.845 125.487  0.00  0.00    -0.386 OA
ATOM     31  H   LIG A   1      -7.586   3.767 125.151  0.00  0.00    +0.210 HD
ENDBRANCH  25  30
BRANCH  22  32
ATOM     32  C   LIG A   1      -4.939   1.108 129.181  0.00  0.00    +0.190 C 
BRANCH  32  33
ATOM     33  O   LIG A   1      -4.470  -0.228 129.036  0.00  0.00    -0.392 OA
ATOM     34  H   LIG A   1      -4.366  -0.379 128.075  0.00  0.00    +0.209 HD
ENDBRANCH  32  33
ENDBRANCH  22  32
ENDBRANCH   8  20
BRANCH   7  35
ATOM     35  O   LIG A   1      -3.434   3.468 126.246  0.00  0.00    -0.506 OA
ATOM     36  H   LIG A   1      -2.536   3.094 126.340  0.00  0.00    +0.292 HD
ENDBRANCH   7  35
BRANCH   5  37
ATOM     37  O   LIG A   1      -1.766   6.566 129.369  0.00  0.00    -0.506 OA
ATOM     38  H   LIG A   1      -0.961   6.006 129.277  0.00  0.00    +0.292 HD
ENDBRANCH   5  37
TORSDOF 10
ENDMDL
MODEL 7
REMARK VINA RESULT:      -7.0      4.930      7.418
REMARK  Name = NuBBE_64
REMARK  10 active torsions:
REMARK  status: ('A' for Active; 'I' for Inactive)
REMARK    1  A    between atoms: O_1  and  C_2
REMARK    2  A    between atoms: C_5  and  C_6
REMARK    3  A    between atoms: C_10  and  O_33
REMARK    4  A    between atoms: C_12  and  O_32
REMARK    5  A    between atoms: C_13  and  C_14
REMARK    6  A    between atoms: C_17  and  C_25
REMARK    7  A    between atoms: C_19  and  O_24
REMARK    8  A    between atoms: C_21  and  O_23
REMARK    9  A    between atoms: C_25  and  O_26
REMARK   10  A    between atoms: C_27  and  O_29
REMARK                            x       y       z     vdW  Elec       q    Type
REMARK                         _______ _______ _______ _____ _____    ______ ____
ROOT
ATOM      1  C   LIG A   1      -6.482   5.792 130.846  0.00  0.00    +0.211 C 
ATOM      2  C   LIG A   1      -5.870   7.178 130.730  0.00  0.00    +0.129 C 
ATOM      3  C   LIG A   1      -4.414   7.019 130.411  0.00  0.00    +0.174 C 
ATOM      4  C   LIG A   1      -4.036   5.885 129.546  0.00  0.00    +0.101 A 
ATOM      5  C   LIG A   1      -2.747   5.782 129.030  0.00  0.00    +0.134 A 
ATOM      6  C   LIG A   1      -2.440   4.769 128.134  0.00  0.00    +0.092 A 
ATOM      7  C   LIG A   1      -3.420   3.844 127.753  0.00  0.00    +0.130 A 
ATOM      8  C   LIG A   1      -4.719   3.883 128.286  0.00  0.00    +0.068 A 
ATOM      9  C   LIG A   1      -5.009   4.942 129.189  0.00  0.00    +0.145 A 
ATOM     10  O   LIG A   1      -6.306   5.051 129.629  0.00  0.00    -0.482 OA
ATOM     11  O   LIG A   1      -3.560   7.826 130.771  0.00  0.00    -0.292 OA
ENDROOT
BRANCH   1  15
ATOM     12  C   LIG A   1     -10.719   6.068 131.640  0.00  0.00    +0.117 A 
ATOM     13  C   LIG A   1      -9.834   5.954 132.706  0.00  0.00    +0.046 A 
ATOM     14  C   LIG A   1      -8.463   5.866 132.451  0.00  0.00    +0.011 A 
ATOM     15  C   LIG A   1      -7.970   5.903 131.135  0.00  0.00    -0.007 A 
ATOM     16  C   LIG A   1      -8.886   6.010 130.077  0.00  0.00    +0.011 A 
ATOM     17  C   LIG A   1     -10.256   6.094 130.331  0.00  0.00    +0.046 A 
BRANCH  12  18
ATOM     18  O   LIG A   1     -12.064   6.159 131.843  0.00  0.00    -0.507 OA
ATOM     19  H   LIG A   1     -12.506   6.172 130.978  0.00  0.00    +0.292 HD
ENDBRANCH  12  18
ENDBRANCH   1  15
BRANCH   8  20
ATOM     20  C   LIG A   1      -5.844   2.898 127.945  0.00  0.00    +0.187 C 
ATOM     21  O   LIG A   1      -5.641   2.326 126.635  0.00  0.00    -0.361 OA
ATOM     22  C   LIG A   1      -6.359   2.896 125.535  0.00  0.00    +0.175 C 
ATOM     23  C   LIG A   1      -7.868   2.959 125.818  0.00  0.00    +0.176 C 
ATOM     24  C   LIG A   1      -8.140   3.780 127.079  0.00  0.00    +0.177 C 
ATOM     25  C   LIG A   1      -7.332   3.215 128.268  0.00  0.00    +0.179 C 
BRANCH  24  26
ATOM     26  O   LIG A   1      -7.897   5.157 126.793  0.00  0.00    -0.387 OA
ATOM     27  H   LIG A   1      -7.030   5.206 126.343  0.00  0.00    +0.210 HD
ENDBRANCH  24  26
BRANCH  23  28
ATOM     28  O   LIG A   1      -8.380   1.627 126.019  0.00  0.00    -0.387 OA
ATOM     29  H   LIG A   1      -8.138   1.366 126.927  0.00  0.00    +0.210 HD
ENDBRANCH  23  28
BRANCH  25  30
ATOM     30  O   LIG A   1      -7.975   1.984 128.691  0.00  0.00    -0.386 OA
ATOM     31  H   LIG A   1      -8.933   2.190 128.768  0.00  0.00    +0.210 HD
ENDBRANCH  25  30
BRANCH  22  32
ATOM     32  C   LIG A   1      -5.725   4.208 125.048  0.00  0.00    +0.190 C 
BRANCH  32  33
ATOM     33  O   LIG A   1      -6.563   4.885 124.118  0.00  0.00    -0.392 OA
ATOM     34  H   LIG A   1      -6.256   4.619 123.229  0.00  0.00    +0.209 HD
ENDBRANCH  32  33
ENDBRANCH  22  32
ENDBRANCH   8  20
BRANCH   7  35
ATOM     35  O   LIG A   1      -3.067   2.904 126.825  0.00  0.00    -0.506 OA
ATOM     36  H   LIG A   1      -2.360   3.280 126.264  0.00  0.00    +0.292 HD
ENDBRANCH   7  35
BRANCH   5  37
ATOM     37  O   LIG A   1      -1.742   6.660 129.328  0.00  0.00    -0.506 OA
ATOM     38  H   LIG A   1      -0.881   6.198 129.204  0.00  0.00    +0.292 HD
ENDBRANCH   5  37
TORSDOF 10
ENDMDL
MODEL 8
REMARK VINA RESULT:      -7.0      2.422      5.537
REMARK  Name = NuBBE_64
REMARK  10 active torsions:
REMARK  status: ('A' for Active; 'I' for Inactive)
REMARK    1  A    between atoms: O_1  and  C_2
REMARK    2  A    between atoms: C_5  and  C_6
REMARK    3  A    between atoms: C_10  and  O_33
REMARK    4  A    between atoms: C_12  and  O_32
REMARK    5  A    between atoms: C_13  and  C_14
REMARK    6  A    between atoms: C_17  and  C_25
REMARK    7  A    between atoms: C_19  and  O_24
REMARK    8  A    between atoms: C_21  and  O_23
REMARK    9  A    between atoms: C_25  and  O_26
REMARK   10  A    between atoms: C_27  and  O_29
REMARK                            x       y       z     vdW  Elec       q    Type
REMARK                         _______ _______ _______ _____ _____    ______ ____
ROOT
ATOM      1  C   LIG A   1      -7.733  -0.160 125.250  0.00  0.00    +0.211 C 
ATOM      2  C   LIG A   1      -8.938  -1.085 125.300  0.00  0.00    +0.129 C 
ATOM      3  C   LIG A   1      -8.689  -2.117 126.357  0.00  0.00    +0.174 C 
ATOM      4  C   LIG A   1      -7.940  -1.686 127.553  0.00  0.00    +0.101 A 
ATOM      5  C   LIG A   1      -7.846  -2.512 128.670  0.00  0.00    +0.134 A 
ATOM      6  C   LIG A   1      -7.230  -2.049 129.823  0.00  0.00    +0.092 A 
ATOM      7  C   LIG A   1      -6.696  -0.755 129.866  0.00  0.00    +0.130 A 
ATOM      8  C   LIG A   1      -6.727   0.093 128.747  0.00  0.00    +0.068 A 
ATOM      9  C   LIG A   1      -7.380  -0.402 127.585  0.00  0.00    +0.145 A 
ATOM     10  O   LIG A   1      -7.511   0.461 126.525  0.00  0.00    -0.482 OA
ATOM     11  O   LIG A   1      -9.144  -3.256 126.298  0.00  0.00    -0.292 OA
ENDROOT
BRANCH   1  15
ATOM     12  C   LIG A   1      -8.402   2.951 122.329  0.00  0.00    +0.117 A 
ATOM     13  C   LIG A   1      -7.152   2.836 122.924  0.00  0.00    +0.046 A 
ATOM     14  C   LIG A   1      -6.933   1.830 123.868  0.00  0.00    +0.011 A 
ATOM     15  C   LIG A   1      -7.956   0.929 124.213  0.00  0.00    -0.007 A 
ATOM     16  C   LIG A   1      -9.212   1.073 123.603  0.00  0.00    +0.011 A 
ATOM     17  C   LIG A   1      -9.432   2.081 122.662  0.00  0.00    +0.046 A 
BRANCH  12  18
ATOM     18  O   LIG A   1      -8.659   3.917 121.401  0.00  0.00    -0.507 OA
ATOM     19  H   LIG A   1      -9.463   4.394 121.667  0.00  0.00    +0.292 HD
ENDBRANCH  12  18
ENDBRANCH   1  15
BRANCH   8  20
ATOM     20  C   LIG A   1      -6.147   1.512 128.697  0.00  0.00    +0.187 C 
ATOM     21  O   LIG A   1      -6.451   2.231 129.912  0.00  0.00    -0.361 OA
ATOM     22  C   LIG A   1      -7.569   3.126 129.901  0.00  0.00    +0.175 C 
ATOM     23  C   LIG A   1      -7.473   4.132 128.742  0.00  0.00    +0.176 C 
ATOM     24  C   LIG A   1      -7.400   3.397 127.403  0.00  0.00    +0.177 C 
ATOM     25  C   LIG A   1      -6.233   2.385 127.413  0.00  0.00    +0.179 C 
BRANCH  24  26
ATOM     26  O   LIG A   1      -8.679   2.831 127.118  0.00  0.00    -0.387 OA
ATOM     27  H   LIG A   1      -8.531   1.890 126.896  0.00  0.00    +0.210 HD
ENDBRANCH  24  26
BRANCH  23  28
ATOM     28  O   LIG A   1      -6.284   4.933 128.891  0.00  0.00    -0.387 OA
ATOM     29  H   LIG A   1      -6.558   5.766 129.317  0.00  0.00    +0.210 HD
ENDBRANCH  23  28
BRANCH  25  30
ATOM     30  O   LIG A   1      -4.998   3.138 127.294  0.00  0.00    -0.386 OA
ATOM     31  H   LIG A   1      -4.792   3.173 126.333  0.00  0.00    +0.210 HD
ENDBRANCH  25  30
BRANCH  22  32
ATOM     32  C   LIG A   1      -8.907   2.382 130.018  0.00  0.00    +0.190 C 
BRANCH  32  33
ATOM     33  O   LIG A   1     -10.012   3.234 129.732  0.00  0.00    -0.392 OA
ATOM     34  H   LIG A   1      -9.930   3.481 128.790  0.00  0.00    +0.209 HD
ENDBRANCH  32  33
ENDBRANCH  22  32
ENDBRANCH   8  20
BRANCH   7  35
ATOM     35  O   LIG A   1      -6.153  -0.341 131.049  0.00  0.00    -0.506 OA
ATOM     36  H   LIG A   1      -6.875  -0.010 131.618  0.00  0.00    +0.292 HD
ENDBRANCH   7  35
BRANCH   5  37
ATOM     37  O   LIG A   1      -8.366  -3.777 128.720  0.00  0.00    -0.506 OA
ATOM     38  H   LIG A   1      -8.645  -4.032 127.811  0.00  0.00    +0.292 HD
ENDBRANCH   5  37
TORSDOF 10
ENDMDL
MODEL 9
REMARK VINA RESULT:      -7.0      5.241      7.814
REMARK  Name = NuBBE_64
REMARK  10 active torsions:
REMARK  status: ('A' for Active; 'I' for Inactive)
REMARK    1  A    between atoms: O_1  and  C_2
REMARK    2  A    between atoms: C_5  and  C_6
REMARK    3  A    between atoms: C_10  and  O_33
REMARK    4  A    between atoms: C_12  and  O_32
REMARK    5  A    between atoms: C_13  and  C_14
REMARK    6  A    between atoms: C_17  and  C_25
REMARK    7  A    between atoms: C_19  and  O_24
REMARK    8  A    between atoms: C_21  and  O_23
REMARK    9  A    between atoms: C_25  and  O_26
REMARK   10  A    between atoms: C_27  and  O_29
REMARK                            x       y       z     vdW  Elec       q    Type
REMARK                         _______ _______ _______ _____ _____    ______ ____
ROOT
ATOM      1  C   LIG A   1      -7.767   0.672 128.995  0.00  0.00    +0.211 C 
ATOM      2  C   LIG A   1      -7.587  -0.574 129.847  0.00  0.00    +0.129 C 
ATOM      3  C   LIG A   1      -7.198  -0.141 131.228  0.00  0.00    +0.174 C 
ATOM      4  C   LIG A   1      -7.791   1.113 131.730  0.00  0.00    +0.101 A 
ATOM      5  C   LIG A   1      -7.655   1.481 133.066  0.00  0.00    +0.134 A 
ATOM      6  C   LIG A   1      -8.309   2.607 133.544  0.00  0.00    +0.092 A 
ATOM      7  C   LIG A   1      -9.099   3.381 132.685  0.00  0.00    +0.130 A 
ATOM      8  C   LIG A   1      -9.224   3.073 131.321  0.00  0.00    +0.068 A 
ATOM      9  C   LIG A   1      -8.557   1.904 130.863  0.00  0.00    +0.145 A 
ATOM     10  O   LIG A   1      -8.765   1.536 129.556  0.00  0.00    -0.482 OA
ATOM     11  O   LIG A   1      -6.485  -0.818 131.964  0.00  0.00    -0.292 OA
ENDROOT
BRANCH   1  15
ATOM     12  C   LIG A   1      -8.962  -0.397 124.984  0.00  0.00    +0.117 A 
ATOM     13  C   LIG A   1      -8.301  -1.335 125.768  0.00  0.00    +0.046 A 
ATOM     14  C   LIG A   1      -7.915  -0.992 127.067  0.00  0.00    +0.011 A 
ATOM     15  C   LIG A   1      -8.197   0.282 127.590  0.00  0.00    -0.007 A 
ATOM     16  C   LIG A   1      -8.857   1.213 126.773  0.00  0.00    +0.011 A 
ATOM     17  C   LIG A   1      -9.240   0.872 125.474  0.00  0.00    +0.046 A 
BRANCH  12  18
ATOM     18  O   LIG A   1      -9.359  -0.690 123.713  0.00  0.00    -0.507 OA
ATOM     19  H   LIG A   1     -10.075  -0.082 123.465  0.00  0.00    +0.292 HD
ENDBRANCH  12  18
ENDBRANCH   1  15
BRANCH   8  20
ATOM     20  C   LIG A   1     -10.047   3.877 130.306  0.00  0.00    +0.187 C 
ATOM     21  O   LIG A   1      -9.205   4.361 129.237  0.00  0.00    -0.361 OA
ATOM     22  C   LIG A   1      -8.734   5.711 129.312  0.00  0.00    +0.175 C 
ATOM     23  C   LIG A   1      -9.892   6.701 129.516  0.00  0.00    +0.176 C 
ATOM     24  C   LIG A   1     -10.664   6.363 130.793  0.00  0.00    +0.177 C 
ATOM     25  C   LIG A   1     -11.135   4.892 130.757  0.00  0.00    +0.179 C 
BRANCH  24  26
ATOM     26  O   LIG A   1      -9.859   6.706 131.920  0.00  0.00    -0.387 OA
ATOM     27  H   LIG A   1      -9.062   7.155 131.576  0.00  0.00    +0.210 HD
ENDBRANCH  24  26
BRANCH  23  28
ATOM     28  O   LIG A   1     -10.799   6.626 128.399  0.00  0.00    -0.387 OA
ATOM     29  H   LIG A   1     -11.540   7.227 128.597  0.00  0.00    +0.210 HD
ENDBRANCH  23  28
BRANCH  25  30
ATOM     30  O   LIG A   1     -12.245   4.809 129.826  0.00  0.00    -0.386 OA
ATOM     31  H   LIG A   1     -11.931   5.219 128.989  0.00  0.00    +0.210 HD
ENDBRANCH  25  30
BRANCH  22  32
ATOM     32  C   LIG A   1      -7.560   5.861 130.290  0.00  0.00    +0.190 C 
BRANCH  32  33
ATOM     33  O   LIG A   1      -7.273   7.228 130.565  0.00  0.00    -0.392 OA
ATOM     34  H   LIG A   1      -6.383   7.400 130.199  0.00  0.00    +0.209 HD
ENDBRANCH  32  33
ENDBRANCH  22  32
ENDBRANCH   8  20
BRANCH   7  35
ATOM     35  O   LIG A   1      -9.759   4.445 133.232  0.00  0.00    -0.506 OA
ATOM     36  H   LIG A   1      -9.094   5.075 133.573  0.00  0.00    +0.292 HD
ENDBRANCH   7  35
BRANCH   5  37
ATOM     37  O   LIG A   1      -6.926   0.764 133.976  0.00  0.00    -0.506 OA
ATOM     38  H   LIG A   1      -6.058   1.213 134.097  0.00  0.00    +0.292 HD
ENDBRANCH   5  37
TORSDOF 10
ENDMDL
