MODEL 1
REMARK VINA RESULT:      -7.2      0.000      0.000
REMARK  Name = NuBBE_2179
REMARK  13 active torsions:
REMARK  status: ('A' for Active; 'I' for Inactive)
REMARK    1  A    between atoms: C_1  and  C_3
REMARK    2  A    between atoms: C_1  and  C_13
REMARK    3  A    between atoms: C_1  and  C_14
REMARK    4  A    between atoms: C_3  and  C_4
REMARK    5  A    between atoms: C_6  and  O_7
REMARK    6  A    between atoms: O_7  and  C_8
REMARK    7  A    between atoms: C_9  and  O_12
REMARK    8  A    between atoms: C_14  and  O_15
REMARK    9  A    between atoms: O_15  and  C_16
REMARK   10  A    between atoms: C_17  and  O_26
REMARK   11  A    between atoms: C_21  and  C_23
REMARK   12  A    between atoms: C_23  and  C_24
REMARK   13  A    between atoms: O_26  and  C_27
REMARK                            x       y       z     vdW  Elec       q    Type
REMARK                         _______ _______ _______ _____ _____    ______ ____
ROOT
ATOM      1  C   LIG A   1      -7.639   0.596 124.718  0.00  0.00    +0.147 C 
ATOM      2  C   LIG A   1      -8.131   0.507 126.168  0.00  0.00    +0.137 C 
ATOM      3  C   LIG A   1      -8.063  -0.642 126.878  0.00  0.00    +0.095 C 
ATOM      4  C   LIG A   1      -7.521  -1.887 126.303  0.00  0.00    +0.185 C 
ATOM      5  O   LIG A   1      -7.456  -2.884 126.997  0.00  0.00    -0.287 OA
ATOM      6  C   LIG A   1      -7.122  -1.866 124.857  0.00  0.00    +0.002 C 
ATOM      7  C   LIG A   1      -7.223  -0.742 124.156  0.00  0.00    +0.023 C 
ENDROOT
BRANCH   1   8
ATOM      8  C   LIG A   1      -6.439   1.631 124.636  0.00  0.00    +0.034 C 
ATOM      9  C   LIG A   1      -5.596   1.609 125.932  0.00  0.00    +0.011 C 
BRANCH   8  10
ATOM     10  C   LIG A   1      -6.906   3.074 124.268  0.00  0.00    +0.042 C 
BRANCH  10  11
ATOM     11  C   LIG A   1      -6.406   3.590 122.930  0.00  0.00    -0.043 A 
ATOM     12  C   LIG A   1      -7.241   3.491 121.803  0.00  0.00    +0.053 A 
ATOM     13  C   LIG A   1      -6.877   4.048 120.578  0.00  0.00    +0.162 A 
ATOM     14  C   LIG A   1      -5.642   4.695 120.479  0.00  0.00    +0.159 A 
ATOM     15  C   LIG A   1      -4.761   4.734 121.556  0.00  0.00    +0.049 A 
ATOM     16  C   LIG A   1      -5.146   4.190 122.786  0.00  0.00    +0.007 A 
BRANCH  13  17
ATOM     17  O   LIG A   1      -7.682   4.091 119.469  0.00  0.00    -0.491 OA
ATOM     18  C   LIG A   1      -9.087   4.032 119.712  0.00  0.00    +0.277 C 
ENDBRANCH  13  17
BRANCH  14  19
ATOM     19  O   LIG A   1      -5.280   5.335 119.325  0.00  0.00    -0.503 OA
ATOM     20  H   LIG A   1      -4.890   6.184 119.612  0.00  0.00    +0.292 HD
ENDBRANCH  14  19
ENDBRANCH  10  11
ENDBRANCH   8  10
ENDBRANCH   1   8
BRANCH   1  21
ATOM     21  O   LIG A   1      -8.702   1.118 123.886  0.00  0.00    -0.364 OA
ATOM     22  C   LIG A   1      -9.459   0.162 123.149  0.00  0.00    +0.195 C 
ENDBRANCH   1  21
BRANCH   2  23
ATOM     23  O   LIG A   1      -8.695   1.683 126.623  0.00  0.00    -0.496 OA
ATOM     24  C   LIG A   1      -8.554   2.002 128.000  0.00  0.00    +0.277 C 
ENDBRANCH   2  23
BRANCH   6  25
ATOM     25  C   LIG A   1      -6.669  -3.184 124.256  0.00  0.00    +0.065 C 
BRANCH  25  26
ATOM     26  C   LIG A   1      -5.346  -3.037 123.554  0.00  0.00    -0.030 C 
ATOM     27  C   LIG A   1      -4.371  -3.952 123.605  0.00  0.00    +0.004 C 
ENDBRANCH  25  26
ENDBRANCH   6  25
TORSDOF 9
ENDMDL
MODEL 2
REMARK VINA RESULT:      -7.1      2.448      4.230
REMARK  Name = NuBBE_2179
REMARK  13 active torsions:
REMARK  status: ('A' for Active; 'I' for Inactive)
REMARK    1  A    between atoms: C_1  and  C_3
REMARK    2  A    between atoms: C_1  and  C_13
REMARK    3  A    between atoms: C_1  and  C_14
REMARK    4  A    between atoms: C_3  and  C_4
REMARK    5  A    between atoms: C_6  and  O_7
REMARK    6  A    between atoms: O_7  and  C_8
REMARK    7  A    between atoms: C_9  and  O_12
REMARK    8  A    between atoms: C_14  and  O_15
REMARK    9  A    between atoms: O_15  and  C_16
REMARK   10  A    between atoms: C_17  and  O_26
REMARK   11  A    between atoms: C_21  and  C_23
REMARK   12  A    between atoms: C_23  and  C_24
REMARK   13  A    between atoms: O_26  and  C_27
REMARK                            x       y       z     vdW  Elec       q    Type
REMARK                         _______ _______ _______ _____ _____    ______ ____
ROOT
ATOM      1  C   LIG A   1      -7.585  -1.399 127.311  0.00  0.00    +0.147 C 
ATOM      2  C   LIG A   1      -6.077  -1.590 127.115  0.00  0.00    +0.137 C 
ATOM      3  C   LIG A   1      -5.573  -2.308 126.086  0.00  0.00    +0.095 C 
ATOM      4  C   LIG A   1      -6.440  -2.963 125.090  0.00  0.00    +0.185 C 
ATOM      5  O   LIG A   1      -5.932  -3.571 124.168  0.00  0.00    -0.287 OA
ATOM      6  C   LIG A   1      -7.923  -2.882 125.302  0.00  0.00    +0.002 C 
ATOM      7  C   LIG A   1      -8.410  -2.204 126.335  0.00  0.00    +0.023 C 
ENDROOT
BRANCH   1   8
ATOM      8  C   LIG A   1      -7.936   0.144 127.195  0.00  0.00    +0.034 C 
ATOM      9  C   LIG A   1      -8.102   0.783 128.592  0.00  0.00    +0.011 C 
BRANCH   8  10
ATOM     10  C   LIG A   1      -9.168   0.419 126.277  0.00  0.00    +0.042 C 
BRANCH  10  11
ATOM     11  C   LIG A   1      -8.906   1.358 125.112  0.00  0.00    -0.043 A 
ATOM     12  C   LIG A   1      -7.850   2.282 125.202  0.00  0.00    +0.053 A 
ATOM     13  C   LIG A   1      -7.498   3.090 124.121  0.00  0.00    +0.162 A 
ATOM     14  C   LIG A   1      -8.235   2.981 122.938  0.00  0.00    +0.159 A 
ATOM     15  C   LIG A   1      -9.338   2.136 122.851  0.00  0.00    +0.049 A 
ATOM     16  C   LIG A   1      -9.669   1.316 123.935  0.00  0.00    +0.007 A 
BRANCH  13  17
ATOM     17  O   LIG A   1      -6.415   3.930 124.093  0.00  0.00    -0.491 OA
ATOM     18  C   LIG A   1      -6.387   4.949 125.091  0.00  0.00    +0.277 C 
ENDBRANCH  13  17
BRANCH  14  19
ATOM     19  O   LIG A   1      -7.872   3.686 121.822  0.00  0.00    -0.503 OA
ATOM     20  H   LIG A   1      -6.920   3.501 121.698  0.00  0.00    +0.292 HD
ENDBRANCH  14  19
ENDBRANCH  10  11
ENDBRANCH   8  10
ENDBRANCH   1   8
BRANCH   1  21
ATOM     21  O   LIG A   1      -7.948  -1.813 128.649  0.00  0.00    -0.364 OA
ATOM     22  C   LIG A   1      -8.210  -3.202 128.835  0.00  0.00    +0.195 C 
ENDBRANCH   1  21
BRANCH   2  23
ATOM     23  O   LIG A   1      -5.322  -1.017 128.121  0.00  0.00    -0.496 OA
ATOM     24  C   LIG A   1      -4.603  -1.880 128.990  0.00  0.00    +0.277 C 
ENDBRANCH   2  23
BRANCH   6  25
ATOM     25  C   LIG A   1      -8.794  -3.654 124.327  0.00  0.00    +0.065 C 
BRANCH  25  26
ATOM     26  C   LIG A   1      -9.406  -2.739 123.302  0.00  0.00    -0.030 C 
ATOM     27  C   LIG A   1      -8.714  -1.820 122.618  0.00  0.00    +0.004 C 
ENDBRANCH  25  26
ENDBRANCH   6  25
TORSDOF 9
ENDMDL
MODEL 3
REMARK VINA RESULT:      -7.1      5.998      8.918
REMARK  Name = NuBBE_2179
REMARK  13 active torsions:
REMARK  status: ('A' for Active; 'I' for Inactive)
REMARK    1  A    between atoms: C_1  and  C_3
REMARK    2  A    between atoms: C_1  and  C_13
REMARK    3  A    between atoms: C_1  and  C_14
REMARK    4  A    between atoms: C_3  and  C_4
REMARK    5  A    between atoms: C_6  and  O_7
REMARK    6  A    between atoms: O_7  and  C_8
REMARK    7  A    between atoms: C_9  and  O_12
REMARK    8  A    between atoms: C_14  and  O_15
REMARK    9  A    between atoms: O_15  and  C_16
REMARK   10  A    between atoms: C_17  and  O_26
REMARK   11  A    between atoms: C_21  and  C_23
REMARK   12  A    between atoms: C_23  and  C_24
REMARK   13  A    between atoms: O_26  and  C_27
REMARK                            x       y       z     vdW  Elec       q    Type
REMARK                         _______ _______ _______ _____ _____    ______ ____
ROOT
ATOM      1  C   LIG A   1      -6.277   4.576 130.250  0.00  0.00    +0.147 C 
ATOM      2  C   LIG A   1      -6.400   4.529 128.723  0.00  0.00    +0.137 C 
ATOM      3  C   LIG A   1      -7.275   3.708 128.099  0.00  0.00    +0.095 C 
ATOM      4  C   LIG A   1      -8.161   2.797 128.845  0.00  0.00    +0.185 C 
ATOM      5  O   LIG A   1      -8.950   2.101 128.234  0.00  0.00    -0.287 OA
ATOM      6  C   LIG A   1      -8.002   2.741 130.336  0.00  0.00    +0.002 C 
ATOM      7  C   LIG A   1      -7.116   3.527 130.939  0.00  0.00    +0.023 C 
ENDROOT
BRANCH   1   8
ATOM      8  C   LIG A   1      -6.671   6.026 130.762  0.00  0.00    +0.034 C 
ATOM      9  C   LIG A   1      -5.419   6.819 131.202  0.00  0.00    +0.011 C 
BRANCH   8  10
ATOM     10  C   LIG A   1      -7.767   6.001 131.871  0.00  0.00    +0.042 C 
BRANCH  10  11
ATOM     11  C   LIG A   1      -9.146   6.458 131.425  0.00  0.00    -0.043 A 
ATOM     12  C   LIG A   1      -9.270   7.198 130.237  0.00  0.00    +0.053 A 
ATOM     13  C   LIG A   1     -10.519   7.547 129.725  0.00  0.00    +0.162 A 
ATOM     14  C   LIG A   1     -11.661   7.163 130.433  0.00  0.00    +0.159 A 
ATOM     15  C   LIG A   1     -11.564   6.503 131.655  0.00  0.00    +0.049 A 
ATOM     16  C   LIG A   1     -10.305   6.141 132.148  0.00  0.00    +0.007 A 
BRANCH  13  17
ATOM     17  O   LIG A   1     -10.725   8.167 128.520  0.00  0.00    -0.491 OA
ATOM     18  C   LIG A   1     -10.612   7.339 127.363  0.00  0.00    +0.277 C 
ENDBRANCH  13  17
BRANCH  14  19
ATOM     19  O   LIG A   1     -12.910   7.402 129.927  0.00  0.00    -0.503 OA
ATOM     20  H   LIG A   1     -13.021   6.761 129.197  0.00  0.00    +0.292 HD
ENDBRANCH  14  19
ENDBRANCH  10  11
ENDBRANCH   8  10
ENDBRANCH   1   8
BRANCH   1  21
ATOM     21  O   LIG A   1      -4.896   4.359 130.623  0.00  0.00    -0.364 OA
ATOM     22  C   LIG A   1      -4.409   3.025 130.508  0.00  0.00    +0.195 C 
ENDBRANCH   1  21
BRANCH   2  23
ATOM     23  O   LIG A   1      -5.493   5.349 128.079  0.00  0.00    -0.496 OA
ATOM     24  C   LIG A   1      -4.662   4.773 127.082  0.00  0.00    +0.277 C 
ENDBRANCH   2  23
BRANCH   6  25
ATOM     25  C   LIG A   1      -8.846   1.719 131.074  0.00  0.00    +0.065 C 
BRANCH  25  26
ATOM     26  C   LIG A   1      -9.755   2.382 132.073  0.00  0.00    -0.030 C 
ATOM     27  C   LIG A   1      -9.342   2.855 133.256  0.00  0.00    +0.004 C 
ENDBRANCH  25  26
ENDBRANCH   6  25
TORSDOF 9
ENDMDL
MODEL 4
REMARK VINA RESULT:      -7.0      3.488      7.713
REMARK  Name = NuBBE_2179
REMARK  13 active torsions:
REMARK  status: ('A' for Active; 'I' for Inactive)
REMARK    1  A    between atoms: C_1  and  C_3
REMARK    2  A    between atoms: C_1  and  C_13
REMARK    3  A    between atoms: C_1  and  C_14
REMARK    4  A    between atoms: C_3  and  C_4
REMARK    5  A    between atoms: C_6  and  O_7
REMARK    6  A    between atoms: O_7  and  C_8
REMARK    7  A    between atoms: C_9  and  O_12
REMARK    8  A    between atoms: C_14  and  O_15
REMARK    9  A    between atoms: O_15  and  C_16
REMARK   10  A    between atoms: C_17  and  O_26
REMARK   11  A    between atoms: C_21  and  C_23
REMARK   12  A    between atoms: C_23  and  C_24
REMARK   13  A    between atoms: O_26  and  C_27
REMARK                            x       y       z     vdW  Elec       q    Type
REMARK                         _______ _______ _______ _____ _____    ______ ____
ROOT
ATOM      1  C   LIG A   1      -8.621  -0.957 124.452  0.00  0.00    +0.147 C 
ATOM      2  C   LIG A   1      -7.300  -0.584 123.768  0.00  0.00    +0.137 C 
ATOM      3  C   LIG A   1      -6.482   0.372 124.263  0.00  0.00    +0.095 C 
ATOM      4  C   LIG A   1      -6.811   1.127 125.486  0.00  0.00    +0.185 C 
ATOM      5  O   LIG A   1      -6.024   1.956 125.902  0.00  0.00    -0.287 OA
ATOM      6  C   LIG A   1      -8.140   0.861 126.128  0.00  0.00    +0.002 C 
ATOM      7  C   LIG A   1      -8.953  -0.056 125.617  0.00  0.00    +0.023 C 
ENDROOT
BRANCH   1   8
ATOM      8  C   LIG A   1      -8.558  -2.472 124.921  0.00  0.00    +0.034 C 
ATOM      9  C   LIG A   1      -9.428  -3.371 124.014  0.00  0.00    +0.011 C 
BRANCH   8  10
ATOM     10  C   LIG A   1      -8.905  -2.655 126.431  0.00  0.00    +0.042 C 
BRANCH  10  11
ATOM     11  C   LIG A   1      -7.712  -2.644 127.372  0.00  0.00    -0.043 A 
ATOM     12  C   LIG A   1      -7.900  -2.999 128.719  0.00  0.00    +0.053 A 
ATOM     13  C   LIG A   1      -6.824  -3.112 129.598  0.00  0.00    +0.162 A 
ATOM     14  C   LIG A   1      -5.539  -2.841 129.118  0.00  0.00    +0.159 A 
ATOM     15  C   LIG A   1      -5.335  -2.406 127.811  0.00  0.00    +0.049 A 
ATOM     16  C   LIG A   1      -6.421  -2.317 126.933  0.00  0.00    +0.007 A 
BRANCH  13  17
ATOM     17  O   LIG A   1      -6.913  -3.560 130.890  0.00  0.00    -0.491 OA
ATOM     18  C   LIG A   1      -7.397  -2.619 131.847  0.00  0.00    +0.277 C 
ENDBRANCH  13  17
BRANCH  14  19
ATOM     19  O   LIG A   1      -4.442  -3.026 129.916  0.00  0.00    -0.503 OA
ATOM     20  H   LIG A   1      -4.316  -2.177 130.382  0.00  0.00    +0.292 HD
ENDBRANCH  14  19
ENDBRANCH  10  11
ENDBRANCH   8  10
ENDBRANCH   1   8
BRANCH   1  21
ATOM     21  O   LIG A   1      -9.698  -0.859 123.491  0.00  0.00    -0.364 OA
ATOM     22  C   LIG A   1      -9.962   0.438 122.962  0.00  0.00    +0.195 C 
ENDBRANCH   1  21
BRANCH   2  23
ATOM     23  O   LIG A   1      -7.086  -1.272 122.589  0.00  0.00    -0.496 OA
ATOM     24  C   LIG A   1      -5.926  -2.085 122.492  0.00  0.00    +0.277 C 
ENDBRANCH   2  23
BRANCH   6  25
ATOM     25  C   LIG A   1      -8.505   1.725 127.322  0.00  0.00    +0.065 C 
BRANCH  25  26
ATOM     26  C   LIG A   1      -8.273   0.993 128.616  0.00  0.00    -0.030 C 
ATOM     27  C   LIG A   1      -7.059   0.710 129.103  0.00  0.00    +0.004 C 
ENDBRANCH  25  26
ENDBRANCH   6  25
TORSDOF 9
ENDMDL
MODEL 5
REMARK VINA RESULT:      -6.9      4.139      8.776
REMARK  Name = NuBBE_2179
REMARK  13 active torsions:
REMARK  status: ('A' for Active; 'I' for Inactive)
REMARK    1  A    between atoms: C_1  and  C_3
REMARK    2  A    between atoms: C_1  and  C_13
REMARK    3  A    between atoms: C_1  and  C_14
REMARK    4  A    between atoms: C_3  and  C_4
REMARK    5  A    between atoms: C_6  and  O_7
REMARK    6  A    between atoms: O_7  and  C_8
REMARK    7  A    between atoms: C_9  and  O_12
REMARK    8  A    between atoms: C_14  and  O_15
REMARK    9  A    between atoms: O_15  and  C_16
REMARK   10  A    between atoms: C_17  and  O_26
REMARK   11  A    between atoms: C_21  and  C_23
REMARK   12  A    between atoms: C_23  and  C_24
REMARK   13  A    between atoms: O_26  and  C_27
REMARK                            x       y       z     vdW  Elec       q    Type
REMARK                         _______ _______ _______ _____ _____    ______ ____
ROOT
ATOM      1  C   LIG A   1      -6.928  -1.609 126.628  0.00  0.00    +0.147 C 
ATOM      2  C   LIG A   1      -8.100  -0.879 125.962  0.00  0.00    +0.137 C 
ATOM      3  C   LIG A   1      -8.295  -0.907 124.624  0.00  0.00    +0.095 C 
ATOM      4  C   LIG A   1      -7.388  -1.634 123.717  0.00  0.00    +0.185 C 
ATOM      5  O   LIG A   1      -7.628  -1.651 122.525  0.00  0.00    -0.287 OA
ATOM      6  C   LIG A   1      -6.175  -2.278 124.319  0.00  0.00    +0.002 C 
ATOM      7  C   LIG A   1      -5.972  -2.217 125.630  0.00  0.00    +0.023 C 
ENDROOT
BRANCH   1   8
ATOM      8  C   LIG A   1      -7.494  -2.723 127.606  0.00  0.00    +0.034 C 
ATOM      9  C   LIG A   1      -8.745  -3.405 127.007  0.00  0.00    +0.011 C 
BRANCH   8  10
ATOM     10  C   LIG A   1      -7.754  -2.189 129.049  0.00  0.00    +0.042 C 
BRANCH  10  11
ATOM     11  C   LIG A   1      -7.011  -2.924 130.151  0.00  0.00    -0.043 A 
ATOM     12  C   LIG A   1      -7.297  -2.615 131.493  0.00  0.00    +0.053 A 
ATOM     13  C   LIG A   1      -6.726  -3.335 132.542  0.00  0.00    +0.162 A 
ATOM     14  C   LIG A   1      -5.835  -4.367 132.235  0.00  0.00    +0.159 A 
ATOM     15  C   LIG A   1      -5.470  -4.638 130.919  0.00  0.00    +0.049 A 
ATOM     16  C   LIG A   1      -6.066  -3.923 129.875  0.00  0.00    +0.007 A 
BRANCH  13  17
ATOM     17  O   LIG A   1      -7.040  -3.169 133.866  0.00  0.00    -0.491 OA
ATOM     18  C   LIG A   1      -8.369  -3.524 134.243  0.00  0.00    +0.277 C 
ENDBRANCH  13  17
BRANCH  14  19
ATOM     19  O   LIG A   1      -5.319  -5.161 133.224  0.00  0.00    -0.503 OA
ATOM     20  H   LIG A   1      -4.819  -5.861 132.760  0.00  0.00    +0.292 HD
ENDBRANCH  14  19
ENDBRANCH  10  11
ENDBRANCH   8  10
ENDBRANCH   1   8
BRANCH   1  21
ATOM     21  O   LIG A   1      -6.185  -0.672 127.443  0.00  0.00    -0.364 OA
ATOM     22  C   LIG A   1      -5.355   0.255 126.749  0.00  0.00    +0.195 C 
ENDBRANCH   1  21
BRANCH   2  23
ATOM     23  O   LIG A   1      -8.868  -0.156 126.855  0.00  0.00    -0.496 OA
ATOM     24  C   LIG A   1      -8.942   1.252 126.685  0.00  0.00    +0.277 C 
ENDBRANCH   2  23
BRANCH   6  25
ATOM     25  C   LIG A   1      -5.198  -2.928 123.355  0.00  0.00    +0.065 C 
BRANCH  25  26
ATOM     26  C   LIG A   1      -4.543  -4.133 123.973  0.00  0.00    -0.030 C 
ATOM     27  C   LIG A   1      -4.149  -5.205 123.276  0.00  0.00    +0.004 C 
ENDBRANCH  25  26
ENDBRANCH   6  25
TORSDOF 9
ENDMDL
MODEL 6
REMARK VINA RESULT:      -6.9      2.875      4.632
REMARK  Name = NuBBE_2179
REMARK  13 active torsions:
REMARK  status: ('A' for Active; 'I' for Inactive)
REMARK    1  A    between atoms: C_1  and  C_3
REMARK    2  A    between atoms: C_1  and  C_13
REMARK    3  A    between atoms: C_1  and  C_14
REMARK    4  A    between atoms: C_3  and  C_4
REMARK    5  A    between atoms: C_6  and  O_7
REMARK    6  A    between atoms: O_7  and  C_8
REMARK    7  A    between atoms: C_9  and  O_12
REMARK    8  A    between atoms: C_14  and  O_15
REMARK    9  A    between atoms: O_15  and  C_16
REMARK   10  A    between atoms: C_17  and  O_26
REMARK   11  A    between atoms: C_21  and  C_23
REMARK   12  A    between atoms: C_23  and  C_24
REMARK   13  A    between atoms: O_26  and  C_27
REMARK                            x       y       z     vdW  Elec       q    Type
REMARK                         _______ _______ _______ _____ _____    ______ ____
ROOT
ATOM      1  C   LIG A   1      -7.890   1.389 124.956  0.00  0.00    +0.147 C 
ATOM      2  C   LIG A   1      -8.339   0.878 126.330  0.00  0.00    +0.137 C 
ATOM      3  C   LIG A   1      -8.208  -0.420 126.689  0.00  0.00    +0.095 C 
ATOM      4  C   LIG A   1      -7.635  -1.429 125.780  0.00  0.00    +0.185 C 
ATOM      5  O   LIG A   1      -7.513  -2.576 126.166  0.00  0.00    -0.287 OA
ATOM      6  C   LIG A   1      -7.276  -0.988 124.392  0.00  0.00    +0.002 C 
ATOM      7  C   LIG A   1      -7.439   0.281 124.035  0.00  0.00    +0.023 C 
ENDROOT
BRANCH   1   8
ATOM      8  C   LIG A   1      -6.733   2.458 125.148  0.00  0.00    +0.034 C 
ATOM      9  C   LIG A   1      -6.297   3.055 123.791  0.00  0.00    +0.011 C 
BRANCH   8  10
ATOM     10  C   LIG A   1      -5.521   1.901 125.958  0.00  0.00    +0.042 C 
BRANCH  10  11
ATOM     11  C   LIG A   1      -4.565   2.954 126.492  0.00  0.00    -0.043 A 
ATOM     12  C   LIG A   1      -5.084   4.061 127.185  0.00  0.00    +0.053 A 
ATOM     13  C   LIG A   1      -4.246   4.998 127.789  0.00  0.00    +0.162 A 
ATOM     14  C   LIG A   1      -2.864   4.829 127.675  0.00  0.00    +0.159 A 
ATOM     15  C   LIG A   1      -2.324   3.788 126.923  0.00  0.00    +0.049 A 
ATOM     16  C   LIG A   1      -3.175   2.843 126.339  0.00  0.00    +0.007 A 
BRANCH  13  17
ATOM     17  O   LIG A   1      -4.673   6.038 128.574  0.00  0.00    -0.491 OA
ATOM     18  C   LIG A   1      -5.161   5.685 129.869  0.00  0.00    +0.277 C 
ENDBRANCH  13  17
BRANCH  14  19
ATOM     19  O   LIG A   1      -2.001   5.669 128.326  0.00  0.00    -0.503 OA
ATOM     20  H   LIG A   1      -1.168   5.630 127.817  0.00  0.00    +0.292 HD
ENDBRANCH  14  19
ENDBRANCH  10  11
ENDBRANCH   8  10
ENDBRANCH   1   8
BRANCH   1  21
ATOM     21  O   LIG A   1      -8.995   2.075 124.320  0.00  0.00    -0.364 OA
ATOM     22  C   LIG A   1     -10.022   1.253 123.772  0.00  0.00    +0.195 C 
ENDBRANCH   1  21
BRANCH   2  23
ATOM     23  O   LIG A   1      -8.935   1.854 127.105  0.00  0.00    -0.496 OA
ATOM     24  C   LIG A   1      -8.547   1.953 128.468  0.00  0.00    +0.277 C 
ENDBRANCH   2  23
BRANCH   6  25
ATOM     25  C   LIG A   1      -6.790  -2.065 123.438  0.00  0.00    +0.065 C 
BRANCH  25  26
ATOM     26  C   LIG A   1      -5.332  -2.366 123.654  0.00  0.00    -0.030 C 
ATOM     27  C   LIG A   1      -4.814  -3.599 123.622  0.00  0.00    +0.004 C 
ENDBRANCH  25  26
ENDBRANCH   6  25
TORSDOF 9
ENDMDL
MODEL 7
REMARK VINA RESULT:      -6.9      2.668      6.092
REMARK  Name = NuBBE_2179
REMARK  13 active torsions:
REMARK  status: ('A' for Active; 'I' for Inactive)
REMARK    1  A    between atoms: C_1  and  C_3
REMARK    2  A    between atoms: C_1  and  C_13
REMARK    3  A    between atoms: C_1  and  C_14
REMARK    4  A    between atoms: C_3  and  C_4
REMARK    5  A    between atoms: C_6  and  O_7
REMARK    6  A    between atoms: O_7  and  C_8
REMARK    7  A    between atoms: C_9  and  O_12
REMARK    8  A    between atoms: C_14  and  O_15
REMARK    9  A    between atoms: O_15  and  C_16
REMARK   10  A    between atoms: C_17  and  O_26
REMARK   11  A    between atoms: C_21  and  C_23
REMARK   12  A    between atoms: C_23  and  C_24
REMARK   13  A    between atoms: O_26  and  C_27
REMARK                            x       y       z     vdW  Elec       q    Type
REMARK                         _______ _______ _______ _____ _____    ______ ____
ROOT
ATOM      1  C   LIG A   1      -5.805   1.747 126.589  0.00  0.00    +0.147 C 
ATOM      2  C   LIG A   1      -6.749   2.516 127.520  0.00  0.00    +0.137 C 
ATOM      3  C   LIG A   1      -7.675   3.380 127.047  0.00  0.00    +0.095 C 
ATOM      4  C   LIG A   1      -7.833   3.647 125.605  0.00  0.00    +0.185 C 
ATOM      5  O   LIG A   1      -8.702   4.411 125.233  0.00  0.00    -0.287 OA
ATOM      6  C   LIG A   1      -6.862   2.990 124.669  0.00  0.00    +0.002 C 
ATOM      7  C   LIG A   1      -5.933   2.168 125.145  0.00  0.00    +0.023 C 
ENDROOT
BRANCH   1   8
ATOM      8  C   LIG A   1      -6.075   0.190 126.740  0.00  0.00    +0.034 C 
ATOM      9  C   LIG A   1      -5.246  -0.408 127.899  0.00  0.00    +0.011 C 
BRANCH   8  10
ATOM     10  C   LIG A   1      -5.867  -0.594 125.407  0.00  0.00    +0.042 C 
BRANCH  10  11
ATOM     11  C   LIG A   1      -7.068  -1.396 124.937  0.00  0.00    -0.043 A 
ATOM     12  C   LIG A   1      -8.076  -0.751 124.200  0.00  0.00    +0.053 A 
ATOM     13  C   LIG A   1      -9.143  -1.461 123.652  0.00  0.00    +0.162 A 
ATOM     14  C   LIG A   1      -9.208  -2.841 123.869  0.00  0.00    +0.159 A 
ATOM     15  C   LIG A   1      -8.270  -3.490 124.666  0.00  0.00    +0.049 A 
ATOM     16  C   LIG A   1      -7.192  -2.770 125.193  0.00  0.00    +0.007 A 
BRANCH  13  17
ATOM     17  O   LIG A   1     -10.100  -0.925 122.830  0.00  0.00    -0.491 OA
ATOM     18  C   LIG A   1      -9.967   0.466 122.540  0.00  0.00    +0.277 C 
ENDBRANCH  13  17
BRANCH  14  19
ATOM     19  O   LIG A   1     -10.185  -3.595 123.276  0.00  0.00    -0.503 OA
ATOM     20  H   LIG A   1     -10.110  -4.481 123.684  0.00  0.00    +0.292 HD
ENDBRANCH  14  19
ENDBRANCH  10  11
ENDBRANCH   8  10
ENDBRANCH   1   8
BRANCH   1  21
ATOM     21  O   LIG A   1      -4.437   1.978 127.001  0.00  0.00    -0.364 OA
ATOM     22  C   LIG A   1      -3.862   3.226 126.623  0.00  0.00    +0.195 C 
ENDBRANCH   1  21
BRANCH   2  23
ATOM     23  O   LIG A   1      -6.502   2.280 128.859  0.00  0.00    -0.496 OA
ATOM     24  C   LIG A   1      -6.300   3.401 129.708  0.00  0.00    +0.277 C 
ENDBRANCH   2  23
BRANCH   6  25
ATOM     25  C   LIG A   1      -6.972   3.363 123.201  0.00  0.00    +0.065 C 
BRANCH  25  26
ATOM     26  C   LIG A   1      -5.726   4.056 122.722  0.00  0.00    -0.030 C 
ATOM     27  C   LIG A   1      -5.350   4.108 121.438  0.00  0.00    +0.004 C 
ENDBRANCH  25  26
ENDBRANCH   6  25
TORSDOF 9
ENDMDL
MODEL 8
REMARK VINA RESULT:      -6.8      7.280      9.820
REMARK  Name = NuBBE_2179
REMARK  13 active torsions:
REMARK  status: ('A' for Active; 'I' for Inactive)
REMARK    1  A    between atoms: C_1  and  C_3
REMARK    2  A    between atoms: C_1  and  C_13
REMARK    3  A    between atoms: C_1  and  C_14
REMARK    4  A    between atoms: C_3  and  C_4
REMARK    5  A    between atoms: C_6  and  O_7
REMARK    6  A    between atoms: O_7  and  C_8
REMARK    7  A    between atoms: C_9  and  O_12
REMARK    8  A    between atoms: C_14  and  O_15
REMARK    9  A    between atoms: O_15  and  C_16
REMARK   10  A    between atoms: C_17  and  O_26
REMARK   11  A    between atoms: C_21  and  C_23
REMARK   12  A    between atoms: C_23  and  C_24
REMARK   13  A    between atoms: O_26  and  C_27
REMARK                            x       y       z     vdW  Elec       q    Type
REMARK                         _______ _______ _______ _____ _____    ______ ____
ROOT
ATOM      1  C   LIG A   1      -4.431   5.105 131.103  0.00  0.00    +0.147 C 
ATOM      2  C   LIG A   1      -3.908   6.533 131.289  0.00  0.00    +0.137 C 
ATOM      3  C   LIG A   1      -3.333   7.224 130.278  0.00  0.00    +0.095 C 
ATOM      4  C   LIG A   1      -3.163   6.645 128.933  0.00  0.00    +0.185 C 
ATOM      5  O   LIG A   1      -2.666   7.321 128.053  0.00  0.00    -0.287 OA
ATOM      6  C   LIG A   1      -3.572   5.215 128.738  0.00  0.00    +0.002 C 
ATOM      7  C   LIG A   1      -4.105   4.532 129.745  0.00  0.00    +0.023 C 
ENDROOT
BRANCH   1   8
ATOM      8  C   LIG A   1      -5.999   5.085 131.352  0.00  0.00    +0.034 C 
ATOM      9  C   LIG A   1      -6.676   3.952 130.548  0.00  0.00    +0.011 C 
BRANCH   8  10
ATOM     10  C   LIG A   1      -6.672   6.469 131.092  0.00  0.00    +0.042 C 
BRANCH  10  11
ATOM     11  C   LIG A   1      -8.171   6.512 131.335  0.00  0.00    -0.043 A 
ATOM     12  C   LIG A   1      -9.011   7.030 130.334  0.00  0.00    +0.053 A 
ATOM     13  C   LIG A   1     -10.399   6.992 130.459  0.00  0.00    +0.162 A 
ATOM     14  C   LIG A   1     -10.950   6.443 131.621  0.00  0.00    +0.159 A 
ATOM     15  C   LIG A   1     -10.140   6.000 132.663  0.00  0.00    +0.049 A 
ATOM     16  C   LIG A   1      -8.748   6.025 132.516  0.00  0.00    +0.007 A 
BRANCH  13  17
ATOM     17  O   LIG A   1     -11.283   7.372 129.483  0.00  0.00    -0.491 OA
ATOM     18  C   LIG A   1     -10.822   8.373 128.576  0.00  0.00    +0.277 C 
ENDBRANCH  13  17
BRANCH  14  19
ATOM     19  O   LIG A   1     -12.305   6.300 131.751  0.00  0.00    -0.503 OA
ATOM     20  H   LIG A   1     -12.642   6.190 130.840  0.00  0.00    +0.292 HD
ENDBRANCH  14  19
ENDBRANCH  10  11
ENDBRANCH   8  10
ENDBRANCH   1   8
BRANCH   1  21
ATOM     21  O   LIG A   1      -3.836   4.246 132.104  0.00  0.00    -0.364 OA
ATOM     22  C   LIG A   1      -3.515   2.919 131.693  0.00  0.00    +0.195 C 
ENDBRANCH   1  21
BRANCH   2  23
ATOM     23  O   LIG A   1      -4.028   6.991 132.588  0.00  0.00    -0.496 OA
ATOM     24  C   LIG A   1      -2.865   7.494 133.228  0.00  0.00    +0.277 C 
ENDBRANCH   2  23
BRANCH   6  25
ATOM     25  C   LIG A   1      -3.288   4.604 127.377  0.00  0.00    +0.065 C 
BRANCH  25  26
ATOM     26  C   LIG A   1      -2.422   3.380 127.499  0.00  0.00    -0.030 C 
ATOM     27  C   LIG A   1      -1.557   2.983 126.558  0.00  0.00    +0.004 C 
ENDBRANCH  25  26
ENDBRANCH   6  25
TORSDOF 9
ENDMDL
MODEL 9
REMARK VINA RESULT:      -6.8      8.390     10.230
REMARK  Name = NuBBE_2179
REMARK  13 active torsions:
REMARK  status: ('A' for Active; 'I' for Inactive)
REMARK    1  A    between atoms: C_1  and  C_3
REMARK    2  A    between atoms: C_1  and  C_13
REMARK    3  A    between atoms: C_1  and  C_14
REMARK    4  A    between atoms: C_3  and  C_4
REMARK    5  A    between atoms: C_6  and  O_7
REMARK    6  A    between atoms: O_7  and  C_8
REMARK    7  A    between atoms: C_9  and  O_12
REMARK    8  A    between atoms: C_14  and  O_15
REMARK    9  A    between atoms: O_15  and  C_16
REMARK   10  A    between atoms: C_17  and  O_26
REMARK   11  A    between atoms: C_21  and  C_23
REMARK   12  A    between atoms: C_23  and  C_24
REMARK   13  A    between atoms: O_26  and  C_27
REMARK                            x       y       z     vdW  Elec       q    Type
REMARK                         _______ _______ _______ _____ _____    ______ ____
ROOT
ATOM      1  C   LIG A   1      -6.462   3.913 134.213  0.00  0.00    +0.147 C 
ATOM      2  C   LIG A   1      -5.382   4.124 133.146  0.00  0.00    +0.137 C 
ATOM      3  C   LIG A   1      -5.423   3.495 131.950  0.00  0.00    +0.095 C 
ATOM      4  C   LIG A   1      -6.505   2.557 131.595  0.00  0.00    +0.185 C 
ATOM      5  O   LIG A   1      -6.508   2.042 130.494  0.00  0.00    -0.287 OA
ATOM      6  C   LIG A   1      -7.527   2.248 132.649  0.00  0.00    +0.002 C 
ATOM      7  C   LIG A   1      -7.460   2.845 133.835  0.00  0.00    +0.023 C 
ENDROOT
BRANCH   1   8
ATOM      8  C   LIG A   1      -7.200   5.291 134.488  0.00  0.00    +0.034 C 
ATOM      9  C   LIG A   1      -7.075   5.701 135.973  0.00  0.00    +0.011 C 
BRANCH   8  10
ATOM     10  C   LIG A   1      -8.684   5.291 134.005  0.00  0.00    +0.042 C 
BRANCH  10  11
ATOM     11  C   LIG A   1      -8.915   5.907 132.636  0.00  0.00    -0.043 A 
ATOM     12  C   LIG A   1     -10.230   6.032 132.154  0.00  0.00    +0.053 A 
ATOM     13  C   LIG A   1     -10.505   6.688 130.955  0.00  0.00    +0.162 A 
ATOM     14  C   LIG A   1      -9.438   7.208 130.218  0.00  0.00    +0.159 A 
ATOM     15  C   LIG A   1      -8.121   7.025 130.630  0.00  0.00    +0.049 A 
ATOM     16  C   LIG A   1      -7.858   6.383 131.845  0.00  0.00    +0.007 A 
BRANCH  13  17
ATOM     17  O   LIG A   1     -11.764   6.948 130.478  0.00  0.00    -0.491 OA
ATOM     18  C   LIG A   1     -12.737   7.325 131.450  0.00  0.00    +0.277 C 
ENDBRANCH  13  17
BRANCH  14  19
ATOM     19  O   LIG A   1      -9.663   7.939 129.083  0.00  0.00    -0.503 OA
ATOM     20  H   LIG A   1      -9.126   8.749 129.186  0.00  0.00    +0.292 HD
ENDBRANCH  14  19
ENDBRANCH  10  11
ENDBRANCH   8  10
ENDBRANCH   1   8
BRANCH   1  21
ATOM     21  O   LIG A   1      -5.834   3.517 135.455  0.00  0.00    -0.364 OA
ATOM     22  C   LIG A   1      -5.194   2.243 135.465  0.00  0.00    +0.195 C 
ENDBRANCH   1  21
BRANCH   2  23
ATOM     23  O   LIG A   1      -4.359   4.953 133.565  0.00  0.00    -0.496 OA
ATOM     24  C   LIG A   1      -3.022   4.524 133.352  0.00  0.00    +0.277 C 
ENDBRANCH   2  23
BRANCH   6  25
ATOM     25  C   LIG A   1      -8.568   1.199 132.303  0.00  0.00    +0.065 C 
BRANCH  25  26
ATOM     26  C   LIG A   1      -9.902   1.831 132.016  0.00  0.00    -0.030 C 
ATOM     27  C   LIG A   1     -10.121   2.682 131.007  0.00  0.00    +0.004 C 
ENDBRANCH  25  26
ENDBRANCH   6  25
TORSDOF 9
ENDMDL
