MODEL 1
REMARK VINA RESULT:     -11.8      0.000      0.000
REMARK  Name = NuBBE_437
REMARK  12 active torsions:
REMARK  status: ('A' for Active; 'I' for Inactive)
REMARK    1  A    between atoms: C_1  and  C_2
REMARK    2  A    between atoms: C_3  and  C_46
REMARK    3  A    between atoms: C_8  and  C_9
REMARK    4  A    between atoms: C_8  and  C_45
REMARK    5  A    between atoms: C_10  and  O_34
REMARK    6  A    between atoms: C_13  and  C_33
REMARK    7  A    between atoms: C_22  and  C_23
REMARK    8  A    between atoms: C_28  and  C_30
REMARK    9  A    between atoms: C_30  and  C_31
REMARK   10  A    between atoms: O_34  and  C_35
REMARK   11  A    between atoms: C_35  and  C_36
REMARK   12  A    between atoms: C_37  and  C_38
REMARK                            x       y       z     vdW  Elec       q    Type
REMARK                         _______ _______ _______ _____ _____    ______ ____
ROOT
ATOM      1  C   LIG A   1      -6.324  -1.476 128.433  0.00  0.00    +0.012 C 
ATOM      2  C   LIG A   1      -7.156  -0.775 127.339  0.00  0.00    -0.023 C 
ATOM      3  C   LIG A   1      -7.297   0.842 127.766  0.00  0.00    -0.023 C 
ATOM      4  C   LIG A   1      -7.862   1.452 129.406  0.00  0.00    +0.008 C 
ATOM      5  C   LIG A   1      -7.691   3.295 129.852  0.00  0.00    +0.005 C 
ATOM      6  C   LIG A   1      -6.078   4.249 129.176  0.00  0.00    +0.004 C 
ATOM      7  C   LIG A   1      -5.252   4.019 130.333  0.00  0.00    +0.005 C 
ATOM      8  C   LIG A   1      -3.972   4.875 130.225  0.00  0.00    +0.015 C 
ATOM      9  C   LIG A   1      -5.558   2.605 129.693  0.00  0.00    +0.183 C 
ATOM     10  C   LIG A   1      -4.154   1.988 129.523  0.00  0.00    +0.046 C 
ATOM     11  C   LIG A   1      -3.615   2.736 128.359  0.00  0.00    +0.011 C 
ATOM     12  C   LIG A   1      -4.941   3.328 127.778  0.00  0.00    -0.025 C 
ATOM     13  C   LIG A   1      -5.612   1.578 127.230  0.00  0.00    +0.002 C 
ATOM     14  C   LIG A   1      -4.975   1.135 125.902  0.00  0.00    +0.005 C 
ATOM     15  C   LIG A   1      -5.015  -0.387 125.829  0.00  0.00    +0.005 C 
ATOM     16  C   LIG A   1      -6.488  -0.759 125.902  0.00  0.00    -0.000 C 
ATOM     17  C   LIG A   1      -6.913  -1.707 124.771  0.00  0.00    +0.006 C 
ATOM     18  C   LIG A   1      -8.421  -1.589 124.493  0.00  0.00    -0.028 C 
ATOM     19  C   LIG A   1      -8.716  -0.353 123.603  0.00  0.00    +0.011 C 
ATOM     20  C   LIG A   1      -9.245  -1.573 125.811  0.00  0.00    +0.007 C 
ATOM     21  C   LIG A   1      -8.448  -1.663 127.151  0.00  0.00    +0.008 C 
ATOM     22  C   LIG A   1      -8.681  -2.841 123.645  0.00  0.00    +0.007 C 
ATOM     23  C   LIG A   1      -7.869  -3.923 124.339  0.00  0.00    +0.009 C 
ATOM     24  C   LIG A   1      -6.565  -3.220 124.791  0.00  0.00    +0.018 C 
ATOM     25  C   LIG A   1      -4.479   4.310 126.674  0.00  0.00    +0.012 C 
ATOM     26  C   LIG A   1      -5.760   4.240 131.759  0.00  0.00    +0.015 C 
ATOM     27  C   LIG A   1      -8.652   1.229 127.057  0.00  0.00    +0.012 C 
ENDROOT
BRANCH  24  28
ATOM     28  C   LIG A   1      -5.412  -3.643 123.867  0.00  0.00    -0.076 C 
ATOM     29  C   LIG A   1      -4.986  -2.632 122.834  0.00  0.00    +0.038 C 
ATOM     30  C   LIG A   1      -4.743  -4.810 123.938  0.00  0.00    +0.007 C 
ENDBRANCH  24  28
BRANCH   9  31
ATOM     31  O   LIG A   1      -6.800   2.832 128.206  0.00  0.00    -0.458 OA
BRANCH  31  32
ATOM     32  C   LIG A   1      -7.576   3.727 127.303  0.00  0.00    +0.332 C 
ATOM     33  O   LIG A   1      -8.346   4.583 127.705  0.00  0.00    -0.246 OA
BRANCH  32  34
ATOM     34  C   LIG A   1      -7.266   3.932 125.866  0.00  0.00    +0.092 C 
ATOM     35  C   LIG A   1      -7.519   3.188 124.805  0.00  0.00    +0.015 C 
BRANCH  35  36
ATOM     36  C   LIG A   1      -7.273   3.568 123.416  0.00  0.00    -0.025 A 
ATOM     37  C   LIG A   1      -5.978   3.965 123.063  0.00  0.00    +0.008 A 
ATOM     38  C   LIG A   1      -5.625   4.077 121.722  0.00  0.00    +0.001 A 
ATOM     39  C   LIG A   1      -6.569   3.806 120.733  0.00  0.00    +0.000 A 
ATOM     40  C   LIG A   1      -7.875   3.461 121.081  0.00  0.00    +0.001 A 
ATOM     41  C   LIG A   1      -8.232   3.347 122.425  0.00  0.00    +0.008 A 
ENDBRANCH  35  36
ENDBRANCH  32  34
ENDBRANCH  31  32
ENDBRANCH   9  31
TORSDOF 5
ENDMDL
MODEL 2
REMARK VINA RESULT:     -10.8      2.165      4.155
REMARK  Name = NuBBE_437
REMARK  12 active torsions:
REMARK  status: ('A' for Active; 'I' for Inactive)
REMARK    1  A    between atoms: C_1  and  C_2
REMARK    2  A    between atoms: C_3  and  C_46
REMARK    3  A    between atoms: C_8  and  C_9
REMARK    4  A    between atoms: C_8  and  C_45
REMARK    5  A    between atoms: C_10  and  O_34
REMARK    6  A    between atoms: C_13  and  C_33
REMARK    7  A    between atoms: C_22  and  C_23
REMARK    8  A    between atoms: C_28  and  C_30
REMARK    9  A    between atoms: C_30  and  C_31
REMARK   10  A    between atoms: O_34  and  C_35
REMARK   11  A    between atoms: C_35  and  C_36
REMARK   12  A    between atoms: C_37  and  C_38
REMARK                            x       y       z     vdW  Elec       q    Type
REMARK                         _______ _______ _______ _____ _____    ______ ____
ROOT
ATOM      1  C   LIG A   1      -5.515  -1.310 128.411  0.00  0.00    +0.012 C 
ATOM      2  C   LIG A   1      -6.681  -0.648 127.649  0.00  0.00    -0.023 C 
ATOM      3  C   LIG A   1      -6.917   0.878 128.307  0.00  0.00    -0.023 C 
ATOM      4  C   LIG A   1      -7.119   1.232 130.100  0.00  0.00    +0.008 C 
ATOM      5  C   LIG A   1      -7.080   3.027 130.731  0.00  0.00    +0.005 C 
ATOM      6  C   LIG A   1      -5.830   4.284 129.822  0.00  0.00    +0.004 C 
ATOM      7  C   LIG A   1      -4.714   4.078 130.709  0.00  0.00    +0.005 C 
ATOM      8  C   LIG A   1      -3.625   5.132 130.413  0.00  0.00    +0.015 C 
ATOM      9  C   LIG A   1      -4.988   2.701 129.979  0.00  0.00    +0.183 C 
ATOM     10  C   LIG A   1      -3.605   2.333 129.400  0.00  0.00    +0.046 C 
ATOM     11  C   LIG A   1      -3.483   3.264 128.250  0.00  0.00    +0.011 C 
ATOM     12  C   LIG A   1      -4.978   3.692 128.084  0.00  0.00    -0.025 C 
ATOM     13  C   LIG A   1      -5.534   1.919 127.487  0.00  0.00    +0.002 C 
ATOM     14  C   LIG A   1      -5.205   1.711 125.999  0.00  0.00    +0.005 C 
ATOM     15  C   LIG A   1      -5.065   0.216 125.738  0.00  0.00    +0.005 C 
ATOM     16  C   LIG A   1      -6.410  -0.390 126.110  0.00  0.00    -0.000 C 
ATOM     17  C   LIG A   1      -6.983  -1.281 124.998  0.00  0.00    +0.006 C 
ATOM     18  C   LIG A   1      -8.514  -1.376 125.104  0.00  0.00    -0.028 C 
ATOM     19  C   LIG A   1      -9.183  -0.124 124.481  0.00  0.00    +0.011 C 
ATOM     20  C   LIG A   1      -8.970  -1.617 126.571  0.00  0.00    +0.007 C 
ATOM     21  C   LIG A   1      -7.853  -1.707 127.659  0.00  0.00    +0.008 C 
ATOM     22  C   LIG A   1      -8.818  -2.567 124.186  0.00  0.00    +0.007 C 
ATOM     23  C   LIG A   1      -7.723  -3.568 124.518  0.00  0.00    +0.009 C 
ATOM     24  C   LIG A   1      -6.449  -2.715 124.735  0.00  0.00    +0.018 C 
ATOM     25  C   LIG A   1      -4.944   4.835 127.042  0.00  0.00    +0.012 C 
ATOM     26  C   LIG A   1      -4.866   4.079 132.231  0.00  0.00    +0.015 C 
ATOM     27  C   LIG A   1      -8.446   1.112 127.998  0.00  0.00    +0.012 C 
ENDROOT
BRANCH  24  28
ATOM     28  C   LIG A   1      -5.524  -2.861 123.515  0.00  0.00    -0.076 C 
ATOM     29  C   LIG A   1      -4.478  -3.942 123.604  0.00  0.00    +0.038 C 
ATOM     30  C   LIG A   1      -5.605  -2.135 122.383  0.00  0.00    +0.007 C 
ENDBRANCH  24  28
BRANCH   9  31
ATOM     31  O   LIG A   1      -6.586   2.870 128.874  0.00  0.00    -0.458 OA
BRANCH  31  32
ATOM     32  C   LIG A   1      -7.686   3.710 128.322  0.00  0.00    +0.332 C 
ATOM     33  O   LIG A   1      -8.084   3.624 127.174  0.00  0.00    -0.246 OA
BRANCH  32  34
ATOM     34  C   LIG A   1      -8.643   4.480 129.154  0.00  0.00    +0.092 C 
ATOM     35  C   LIG A   1      -9.082   5.721 129.055  0.00  0.00    +0.015 C 
BRANCH  35  36
ATOM     36  C   LIG A   1     -10.133   6.325 129.872  0.00  0.00    -0.025 A 
ATOM     37  C   LIG A   1     -11.155   7.021 129.217  0.00  0.00    +0.008 A 
ATOM     38  C   LIG A   1     -12.308   7.380 129.909  0.00  0.00    +0.001 A 
ATOM     39  C   LIG A   1     -12.432   7.057 131.259  0.00  0.00    +0.000 A 
ATOM     40  C   LIG A   1     -11.393   6.410 131.928  0.00  0.00    +0.001 A 
ATOM     41  C   LIG A   1     -10.237   6.049 131.236  0.00  0.00    +0.008 A 
ENDBRANCH  35  36
ENDBRANCH  32  34
ENDBRANCH  31  32
ENDBRANCH   9  31
TORSDOF 5
ENDMDL
MODEL 3
REMARK VINA RESULT:     -10.4      4.552      6.282
REMARK  Name = NuBBE_437
REMARK  12 active torsions:
REMARK  status: ('A' for Active; 'I' for Inactive)
REMARK    1  A    between atoms: C_1  and  C_2
REMARK    2  A    between atoms: C_3  and  C_46
REMARK    3  A    between atoms: C_8  and  C_9
REMARK    4  A    between atoms: C_8  and  C_45
REMARK    5  A    between atoms: C_10  and  O_34
REMARK    6  A    between atoms: C_13  and  C_33
REMARK    7  A    between atoms: C_22  and  C_23
REMARK    8  A    between atoms: C_28  and  C_30
REMARK    9  A    between atoms: C_30  and  C_31
REMARK   10  A    between atoms: O_34  and  C_35
REMARK   11  A    between atoms: C_35  and  C_36
REMARK   12  A    between atoms: C_37  and  C_38
REMARK                            x       y       z     vdW  Elec       q    Type
REMARK                         _______ _______ _______ _____ _____    ______ ____
ROOT
ATOM      1  C   LIG A   1      -5.992   0.182 133.891  0.00  0.00    +0.012 C 
ATOM      2  C   LIG A   1      -6.627   0.613 132.553  0.00  0.00    -0.023 C 
ATOM      3  C   LIG A   1      -6.582   2.290 132.486  0.00  0.00    -0.023 C 
ATOM      4  C   LIG A   1      -7.193   3.413 133.807  0.00  0.00    +0.008 C 
ATOM      5  C   LIG A   1      -6.811   5.276 133.731  0.00  0.00    +0.005 C 
ATOM      6  C   LIG A   1      -5.033   5.812 133.011  0.00  0.00    +0.004 C 
ATOM      7  C   LIG A   1      -4.345   5.848 134.275  0.00  0.00    +0.005 C 
ATOM      8  C   LIG A   1      -2.956   6.494 134.083  0.00  0.00    +0.015 C 
ATOM      9  C   LIG A   1      -4.786   4.348 134.029  0.00  0.00    +0.183 C 
ATOM     10  C   LIG A   1      -3.470   3.564 134.209  0.00  0.00    +0.046 C 
ATOM     11  C   LIG A   1      -2.740   3.873 132.954  0.00  0.00    +0.011 C 
ATOM     12  C   LIG A   1      -3.919   4.404 132.075  0.00  0.00    -0.025 C 
ATOM     13  C   LIG A   1      -4.774   2.652 131.969  0.00  0.00    +0.002 C 
ATOM     14  C   LIG A   1      -4.095   1.773 130.905  0.00  0.00    +0.005 C 
ATOM     15  C   LIG A   1      -4.335   0.310 131.261  0.00  0.00    +0.005 C 
ATOM     16  C   LIG A   1      -5.846   0.134 131.261  0.00  0.00    -0.000 C 
ATOM     17  C   LIG A   1      -6.300  -1.055 130.402  0.00  0.00    +0.006 C 
ATOM     18  C   LIG A   1      -7.749  -0.866 129.923  0.00  0.00    -0.028 C 
ATOM     19  C   LIG A   1      -7.798   0.076 128.692  0.00  0.00    +0.011 C 
ATOM     20  C   LIG A   1      -8.671  -0.374 131.075  0.00  0.00    +0.007 C 
ATOM     21  C   LIG A   1      -8.007  -0.148 132.471  0.00  0.00    +0.008 C 
ATOM     22  C   LIG A   1      -8.106  -2.277 129.439  0.00  0.00    +0.007 C 
ATOM     23  C   LIG A   1      -7.509  -3.186 130.502  0.00  0.00    +0.009 C 
ATOM     24  C   LIG A   1      -6.164  -2.523 130.889  0.00  0.00    +0.018 C 
ATOM     25  C   LIG A   1      -3.238   4.962 130.802  0.00  0.00    +0.012 C 
ATOM     26  C   LIG A   1      -4.935   6.533 135.509  0.00  0.00    +0.015 C 
ATOM     27  C   LIG A   1      -7.808   2.592 131.540  0.00  0.00    +0.012 C 
ENDROOT
BRANCH  24  28
ATOM     28  C   LIG A   1      -5.006  -3.320 130.267  0.00  0.00    -0.076 C 
ATOM     29  C   LIG A   1      -4.885  -4.758 130.700  0.00  0.00    +0.038 C 
ATOM     30  C   LIG A   1      -4.136  -2.848 129.353  0.00  0.00    +0.007 C 
ENDBRANCH  24  28
BRANCH   9  31
ATOM     31  O   LIG A   1      -5.857   4.257 132.402  0.00  0.00    -0.458 OA
BRANCH  31  32
ATOM     32  C   LIG A   1      -6.477   4.935 131.229  0.00  0.00    +0.332 C 
ATOM     33  O   LIG A   1      -6.179   4.685 130.074  0.00  0.00    -0.246 OA
BRANCH  32  34
ATOM     34  C   LIG A   1      -7.738   5.716 131.289  0.00  0.00    +0.092 C 
ATOM     35  C   LIG A   1      -8.589   6.073 130.345  0.00  0.00    +0.015 C 
BRANCH  35  36
ATOM     36  C   LIG A   1      -9.872   6.738 130.556  0.00  0.00    -0.025 A 
ATOM     37  C   LIG A   1     -10.346   7.587 129.549  0.00  0.00    +0.008 A 
ATOM     38  C   LIG A   1     -11.665   8.029 129.574  0.00  0.00    +0.001 A 
ATOM     39  C   LIG A   1     -12.506   7.636 130.614  0.00  0.00    +0.000 A 
ATOM     40  C   LIG A   1     -12.023   6.834 131.646  0.00  0.00    +0.001 A 
ATOM     41  C   LIG A   1     -10.701   6.388 131.623  0.00  0.00    +0.008 A 
ENDBRANCH  35  36
ENDBRANCH  32  34
ENDBRANCH  31  32
ENDBRANCH   9  31
TORSDOF 5
ENDMDL
MODEL 4
REMARK VINA RESULT:     -10.3      2.808      5.252
REMARK  Name = NuBBE_437
REMARK  12 active torsions:
REMARK  status: ('A' for Active; 'I' for Inactive)
REMARK    1  A    between atoms: C_1  and  C_2
REMARK    2  A    between atoms: C_3  and  C_46
REMARK    3  A    between atoms: C_8  and  C_9
REMARK    4  A    between atoms: C_8  and  C_45
REMARK    5  A    between atoms: C_10  and  O_34
REMARK    6  A    between atoms: C_13  and  C_33
REMARK    7  A    between atoms: C_22  and  C_23
REMARK    8  A    between atoms: C_28  and  C_30
REMARK    9  A    between atoms: C_30  and  C_31
REMARK   10  A    between atoms: O_34  and  C_35
REMARK   11  A    between atoms: C_35  and  C_36
REMARK   12  A    between atoms: C_37  and  C_38
REMARK                            x       y       z     vdW  Elec       q    Type
REMARK                         _______ _______ _______ _____ _____    ______ ____
ROOT
ATOM      1  C   LIG A   1      -8.230  -3.222 127.947  0.00  0.00    +0.012 C 
ATOM      2  C   LIG A   1      -7.735  -1.770 127.788  0.00  0.00    -0.023 C 
ATOM      3  C   LIG A   1      -7.375  -1.185 129.320  0.00  0.00    -0.023 C 
ATOM      4  C   LIG A   1      -8.506  -1.257 130.767  0.00  0.00    +0.008 C 
ATOM      5  C   LIG A   1      -7.862  -0.830 132.507  0.00  0.00    +0.005 C 
ATOM      6  C   LIG A   1      -5.996  -1.372 132.945  0.00  0.00    +0.004 C 
ATOM      7  C   LIG A   1      -6.325  -2.653 133.515  0.00  0.00    +0.005 C 
ATOM      8  C   LIG A   1      -5.074  -3.242 134.202  0.00  0.00    +0.015 C 
ATOM      9  C   LIG A   1      -6.737  -2.705 131.988  0.00  0.00    +0.183 C 
ATOM     10  C   LIG A   1      -6.027  -3.977 131.479  0.00  0.00    +0.046 C 
ATOM     11  C   LIG A   1      -4.610  -3.539 131.394  0.00  0.00    +0.011 C 
ATOM     12  C   LIG A   1      -4.801  -1.988 131.431  0.00  0.00    -0.025 C 
ATOM     13  C   LIG A   1      -5.650  -1.939 129.674  0.00  0.00    +0.002 C 
ATOM     14  C   LIG A   1      -4.599  -1.998 128.553  0.00  0.00    +0.005 C 
ATOM     15  C   LIG A   1      -5.257  -2.568 127.302  0.00  0.00    +0.005 C 
ATOM     16  C   LIG A   1      -6.390  -1.610 126.966  0.00  0.00    -0.000 C 
ATOM     17  C   LIG A   1      -6.354  -1.146 125.502  0.00  0.00    +0.006 C 
ATOM     18  C   LIG A   1      -7.064   0.208 125.338  0.00  0.00    -0.028 C 
ATOM     19  C   LIG A   1      -6.126   1.370 125.757  0.00  0.00    +0.011 C 
ATOM     20  C   LIG A   1      -8.416   0.240 126.104  0.00  0.00    +0.007 C 
ATOM     21  C   LIG A   1      -8.818  -1.046 126.895  0.00  0.00    +0.008 C 
ATOM     22  C   LIG A   1      -7.242   0.285 123.816  0.00  0.00    +0.007 C 
ATOM     23  C   LIG A   1      -7.663  -1.124 123.429  0.00  0.00    +0.009 C 
ATOM     24  C   LIG A   1      -6.825  -2.058 124.337  0.00  0.00    +0.018 C 
ATOM     25  C   LIG A   1      -3.367  -1.421 131.564  0.00  0.00    +0.012 C 
ATOM     26  C   LIG A   1      -7.457  -2.832 134.528  0.00  0.00    +0.015 C 
ATOM     27  C   LIG A   1      -7.593   0.364 129.115  0.00  0.00    +0.012 C 
ENDROOT
BRANCH  24  28
ATOM     28  C   LIG A   1      -5.701  -2.701 123.507  0.00  0.00    -0.076 C 
ATOM     29  C   LIG A   1      -5.550  -2.195 122.095  0.00  0.00    +0.038 C 
ATOM     30  C   LIG A   1      -4.837  -3.632 123.953  0.00  0.00    +0.007 C 
ENDBRANCH  24  28
BRANCH   9  31
ATOM     31  O   LIG A   1      -6.458  -0.947 131.191  0.00  0.00    -0.458 OA
BRANCH  31  32
ATOM     32  C   LIG A   1      -6.092   0.489 131.338  0.00  0.00    +0.332 C 
ATOM     33  O   LIG A   1      -6.224   1.113 132.377  0.00  0.00    -0.246 OA
BRANCH  32  34
ATOM     34  C   LIG A   1      -5.225   1.230 130.388  0.00  0.00    +0.092 C 
ATOM     35  C   LIG A   1      -4.811   2.483 130.381  0.00  0.00    +0.015 C 
BRANCH  35  36
ATOM     36  C   LIG A   1      -3.846   3.060 129.447  0.00  0.00    -0.025 A 
ATOM     37  C   LIG A   1      -3.601   2.377 128.251  0.00  0.00    +0.008 A 
ATOM     38  C   LIG A   1      -2.907   3.005 127.220  0.00  0.00    +0.001 A 
ATOM     39  C   LIG A   1      -2.445   4.308 127.391  0.00  0.00    +0.000 A 
ATOM     40  C   LIG A   1      -2.642   4.973 128.601  0.00  0.00    +0.001 A 
ATOM     41  C   LIG A   1      -3.337   4.347 129.636  0.00  0.00    +0.008 A 
ENDBRANCH  35  36
ENDBRANCH  32  34
ENDBRANCH  31  32
ENDBRANCH   9  31
TORSDOF 5
ENDMDL
MODEL 5
REMARK VINA RESULT:     -10.0      3.484      7.327
REMARK  Name = NuBBE_437
REMARK  12 active torsions:
REMARK  status: ('A' for Active; 'I' for Inactive)
REMARK    1  A    between atoms: C_1  and  C_2
REMARK    2  A    between atoms: C_3  and  C_46
REMARK    3  A    between atoms: C_8  and  C_9
REMARK    4  A    between atoms: C_8  and  C_45
REMARK    5  A    between atoms: C_10  and  O_34
REMARK    6  A    between atoms: C_13  and  C_33
REMARK    7  A    between atoms: C_22  and  C_23
REMARK    8  A    between atoms: C_28  and  C_30
REMARK    9  A    between atoms: C_30  and  C_31
REMARK   10  A    between atoms: O_34  and  C_35
REMARK   11  A    between atoms: C_35  and  C_36
REMARK   12  A    between atoms: C_37  and  C_38
REMARK                            x       y       z     vdW  Elec       q    Type
REMARK                         _______ _______ _______ _____ _____    ______ ____
ROOT
ATOM      1  C   LIG A   1      -5.154   0.577 126.342  0.00  0.00    +0.012 C 
ATOM      2  C   LIG A   1      -6.145  -0.556 126.678  0.00  0.00    -0.023 C 
ATOM      3  C   LIG A   1      -6.079  -0.815 128.336  0.00  0.00    -0.023 C 
ATOM      4  C   LIG A   1      -4.536  -1.089 129.297  0.00  0.00    +0.008 C 
ATOM      5  C   LIG A   1      -4.580  -1.072 131.200  0.00  0.00    +0.005 C 
ATOM      6  C   LIG A   1      -5.825   0.216 132.070  0.00  0.00    +0.004 C 
ATOM      7  C   LIG A   1      -4.880   1.295 132.205  0.00  0.00    +0.005 C 
ATOM      8  C   LIG A   1      -5.488   2.397 133.100  0.00  0.00    +0.015 C 
ATOM      9  C   LIG A   1      -5.086   1.049 130.655  0.00  0.00    +0.183 C 
ATOM     10  C   LIG A   1      -5.444   2.453 130.124  0.00  0.00    +0.046 C 
ATOM     11  C   LIG A   1      -6.844   2.623 130.590  0.00  0.00    +0.011 C 
ATOM     12  C   LIG A   1      -7.207   1.137 130.913  0.00  0.00    -0.025 C 
ATOM     13  C   LIG A   1      -7.160   0.602 129.036  0.00  0.00    +0.002 C 
ATOM     14  C   LIG A   1      -8.465   0.990 128.321  0.00  0.00    +0.005 C 
ATOM     15  C   LIG A   1      -8.175   1.138 126.831  0.00  0.00    +0.005 C 
ATOM     16  C   LIG A   1      -7.665  -0.222 126.380  0.00  0.00    -0.000 C 
ATOM     17  C   LIG A   1      -8.411  -0.751 125.146  0.00  0.00    +0.006 C 
ATOM     18  C   LIG A   1      -8.337  -2.286 125.075  0.00  0.00    -0.028 C 
ATOM     19  C   LIG A   1      -9.388  -2.927 126.018  0.00  0.00    +0.011 C 
ATOM     20  C   LIG A   1      -6.899  -2.801 125.363  0.00  0.00    +0.007 C 
ATOM     21  C   LIG A   1      -5.807  -1.729 125.676  0.00  0.00    +0.008 C 
ATOM     22  C   LIG A   1      -8.786  -2.554 123.633  0.00  0.00    +0.007 C 
ATOM     23  C   LIG A   1      -8.080  -1.475 122.827  0.00  0.00    +0.009 C 
ATOM     24  C   LIG A   1      -8.130  -0.210 123.718  0.00  0.00    +0.018 C 
ATOM     25  C   LIG A   1      -8.584   1.215 131.615  0.00  0.00    +0.012 C 
ATOM     26  C   LIG A   1      -3.464   1.082 132.742  0.00  0.00    +0.015 C 
ATOM     27  C   LIG A   1      -6.509  -2.330 128.426  0.00  0.00    +0.012 C 
ENDROOT
BRANCH  24  28
ATOM     28  C   LIG A   1      -9.183   0.764 123.163  0.00  0.00    -0.076 C 
ATOM     29  C   LIG A   1      -8.937   2.226 123.429  0.00  0.00    +0.038 C 
ATOM     30  C   LIG A   1     -10.263   0.414 122.438  0.00  0.00    +0.007 C 
ENDBRANCH  24  28
BRANCH   9  31
ATOM     31  O   LIG A   1      -6.240  -0.503 130.403  0.00  0.00    -0.458 OA
BRANCH  31  32
ATOM     32  C   LIG A   1      -7.111  -1.566 130.978  0.00  0.00    +0.332 C 
ATOM     33  O   LIG A   1      -8.228  -1.819 130.560  0.00  0.00    -0.246 OA
BRANCH  32  34
ATOM     34  C   LIG A   1      -6.625  -2.652 131.866  0.00  0.00    +0.092 C 
ATOM     35  C   LIG A   1      -7.146  -3.187 132.954  0.00  0.00    +0.015 C 
BRANCH  35  36
ATOM     36  C   LIG A   1      -6.625  -4.349 133.670  0.00  0.00    -0.025 A 
ATOM     37  C   LIG A   1      -5.367  -4.838 133.301  0.00  0.00    +0.008 A 
ATOM     38  C   LIG A   1      -4.711  -5.759 134.113  0.00  0.00    +0.001 A 
ATOM     39  C   LIG A   1      -5.320  -6.203 135.285  0.00  0.00    +0.000 A 
ATOM     40  C   LIG A   1      -6.595  -5.758 135.629  0.00  0.00    +0.001 A 
ATOM     41  C   LIG A   1      -7.255  -4.835 134.818  0.00  0.00    +0.008 A 
ENDBRANCH  35  36
ENDBRANCH  32  34
ENDBRANCH  31  32
ENDBRANCH   9  31
TORSDOF 5
ENDMDL
MODEL 6
REMARK VINA RESULT:     -10.0      3.227      6.822
REMARK  Name = NuBBE_437
REMARK  12 active torsions:
REMARK  status: ('A' for Active; 'I' for Inactive)
REMARK    1  A    between atoms: C_1  and  C_2
REMARK    2  A    between atoms: C_3  and  C_46
REMARK    3  A    between atoms: C_8  and  C_9
REMARK    4  A    between atoms: C_8  and  C_45
REMARK    5  A    between atoms: C_10  and  O_34
REMARK    6  A    between atoms: C_13  and  C_33
REMARK    7  A    between atoms: C_22  and  C_23
REMARK    8  A    between atoms: C_28  and  C_30
REMARK    9  A    between atoms: C_30  and  C_31
REMARK   10  A    between atoms: O_34  and  C_35
REMARK   11  A    between atoms: C_35  and  C_36
REMARK   12  A    between atoms: C_37  and  C_38
REMARK                            x       y       z     vdW  Elec       q    Type
REMARK                         _______ _______ _______ _____ _____    ______ ____
ROOT
ATOM      1  C   LIG A   1      -8.247  -3.336 127.921  0.00  0.00    +0.012 C 
ATOM      2  C   LIG A   1      -7.672  -1.906 127.859  0.00  0.00    -0.023 C 
ATOM      3  C   LIG A   1      -7.293  -1.441 129.427  0.00  0.00    -0.023 C 
ATOM      4  C   LIG A   1      -8.440  -1.544 130.860  0.00  0.00    +0.008 C 
ATOM      5  C   LIG A   1      -7.789  -1.265 132.627  0.00  0.00    +0.005 C 
ATOM      6  C   LIG A   1      -5.960  -1.936 133.040  0.00  0.00    +0.004 C 
ATOM      7  C   LIG A   1      -6.364  -3.231 133.525  0.00  0.00    +0.005 C 
ATOM      8  C   LIG A   1      -5.153  -3.931 134.179  0.00  0.00    +0.015 C 
ATOM      9  C   LIG A   1      -6.764  -3.162 131.996  0.00  0.00    +0.183 C 
ATOM     10  C   LIG A   1      -6.121  -4.437 131.409  0.00  0.00    +0.046 C 
ATOM     11  C   LIG A   1      -4.682  -4.074 131.360  0.00  0.00    +0.011 C 
ATOM     12  C   LIG A   1      -4.787  -2.519 131.496  0.00  0.00    -0.025 C 
ATOM     13  C   LIG A   1      -5.617  -2.311 129.741  0.00  0.00    +0.002 C 
ATOM     14  C   LIG A   1      -4.560  -2.357 128.625  0.00  0.00    +0.005 C 
ATOM     15  C   LIG A   1      -5.237  -2.808 127.336  0.00  0.00    +0.005 C 
ATOM     16  C   LIG A   1      -6.313  -1.770 127.056  0.00  0.00    -0.000 C 
ATOM     17  C   LIG A   1      -6.238  -1.215 125.625  0.00  0.00    +0.006 C 
ATOM     18  C   LIG A   1      -6.871   0.184 125.545  0.00  0.00    -0.028 C 
ATOM     19  C   LIG A   1      -5.874   1.263 126.043  0.00  0.00    +0.011 C 
ATOM     20  C   LIG A   1      -8.226   0.242 126.304  0.00  0.00    +0.007 C 
ATOM     21  C   LIG A   1      -8.705  -1.068 127.008  0.00  0.00    +0.008 C 
ATOM     22  C   LIG A   1      -7.031   0.368 124.030  0.00  0.00    +0.007 C 
ATOM     23  C   LIG A   1      -7.525  -0.988 123.551  0.00  0.00    +0.009 C 
ATOM     24  C   LIG A   1      -6.748  -2.023 124.401  0.00  0.00    +0.018 C 
ATOM     25  C   LIG A   1      -3.325  -2.043 131.673  0.00  0.00    +0.012 C 
ATOM     26  C   LIG A   1      -7.513  -3.411 134.518  0.00  0.00    +0.015 C 
ATOM     27  C   LIG A   1      -7.425   0.127 129.321  0.00  0.00    +0.012 C 
ENDROOT
BRANCH  24  28
ATOM     28  C   LIG A   1      -5.654  -2.673 123.538  0.00  0.00    -0.076 C 
ATOM     29  C   LIG A   1      -5.548  -2.175 122.120  0.00  0.00    +0.038 C 
ATOM     30  C   LIG A   1      -4.778  -3.605 123.960  0.00  0.00    +0.007 C 
ENDBRANCH  24  28
BRANCH   9  31
ATOM     31  O   LIG A   1      -6.382  -1.375 131.315  0.00  0.00    -0.458 OA
BRANCH  31  32
ATOM     32  C   LIG A   1      -5.846  -0.003 131.532  0.00  0.00    +0.332 C 
ATOM     33  O   LIG A   1      -5.016   0.517 130.806  0.00  0.00    -0.246 OA
BRANCH  32  34
ATOM     34  C   LIG A   1      -6.479   1.009 132.414  0.00  0.00    +0.092 C 
ATOM     35  C   LIG A   1      -5.990   1.730 133.406  0.00  0.00    +0.015 C 
BRANCH  35  36
ATOM     36  C   LIG A   1      -6.693   2.795 134.117  0.00  0.00    -0.025 A 
ATOM     37  C   LIG A   1      -5.949   3.618 134.970  0.00  0.00    +0.008 A 
ATOM     38  C   LIG A   1      -6.502   4.798 135.457  0.00  0.00    +0.001 A 
ATOM     39  C   LIG A   1      -7.805   5.148 135.105  0.00  0.00    +0.000 A 
ATOM     40  C   LIG A   1      -8.568   4.304 134.299  0.00  0.00    +0.001 A 
ATOM     41  C   LIG A   1      -8.015   3.121 133.808  0.00  0.00    +0.008 A 
ENDBRANCH  35  36
ENDBRANCH  32  34
ENDBRANCH  31  32
ENDBRANCH   9  31
TORSDOF 5
ENDMDL
MODEL 7
REMARK VINA RESULT:      -9.9      4.115      8.119
REMARK  Name = NuBBE_437
REMARK  12 active torsions:
REMARK  status: ('A' for Active; 'I' for Inactive)
REMARK    1  A    between atoms: C_1  and  C_2
REMARK    2  A    between atoms: C_3  and  C_46
REMARK    3  A    between atoms: C_8  and  C_9
REMARK    4  A    between atoms: C_8  and  C_45
REMARK    5  A    between atoms: C_10  and  O_34
REMARK    6  A    between atoms: C_13  and  C_33
REMARK    7  A    between atoms: C_22  and  C_23
REMARK    8  A    between atoms: C_28  and  C_30
REMARK    9  A    between atoms: C_30  and  C_31
REMARK   10  A    between atoms: O_34  and  C_35
REMARK   11  A    between atoms: C_35  and  C_36
REMARK   12  A    between atoms: C_37  and  C_38
REMARK                            x       y       z     vdW  Elec       q    Type
REMARK                         _______ _______ _______ _____ _____    ______ ____
ROOT
ATOM      1  C   LIG A   1     -10.051   1.216 131.745  0.00  0.00    +0.012 C 
ATOM      2  C   LIG A   1      -8.871   2.170 132.024  0.00  0.00    -0.023 C 
ATOM      3  C   LIG A   1      -7.459   1.263 131.961  0.00  0.00    -0.023 C 
ATOM      4  C   LIG A   1      -7.171  -0.302 132.882  0.00  0.00    +0.008 C 
ATOM      5  C   LIG A   1      -5.650  -1.376 132.491  0.00  0.00    +0.005 C 
ATOM      6  C   LIG A   1      -5.067  -1.470 130.588  0.00  0.00    +0.004 C 
ATOM      7  C   LIG A   1      -5.830  -2.641 130.239  0.00  0.00    +0.005 C 
ATOM      8  C   LIG A   1      -5.391  -3.139 128.845  0.00  0.00    +0.015 C 
ATOM      9  C   LIG A   1      -6.867  -1.503 130.606  0.00  0.00    +0.183 C 
ATOM     10  C   LIG A   1      -7.800  -1.473 129.378  0.00  0.00    +0.046 C 
ATOM     11  C   LIG A   1      -6.961  -0.797 128.356  0.00  0.00    +0.011 C 
ATOM     12  C   LIG A   1      -5.873  -0.155 129.278  0.00  0.00    -0.025 C 
ATOM     13  C   LIG A   1      -7.135   1.099 130.081  0.00  0.00    +0.002 C 
ATOM     14  C   LIG A   1      -7.374   2.307 129.159  0.00  0.00    +0.005 C 
ATOM     15  C   LIG A   1      -8.739   2.902 129.482  0.00  0.00    +0.005 C 
ATOM     16  C   LIG A   1      -8.668   3.312 130.945  0.00  0.00    -0.000 C 
ATOM     17  C   LIG A   1      -9.111   4.765 131.171  0.00  0.00    +0.006 C 
ATOM     18  C   LIG A   1      -8.485   5.337 132.454  0.00  0.00    -0.028 C 
ATOM     19  C   LIG A   1      -7.027   5.795 132.193  0.00  0.00    +0.011 C 
ATOM     20  C   LIG A   1      -8.581   4.328 133.634  0.00  0.00    +0.007 C 
ATOM     21  C   LIG A   1      -9.256   2.951 133.341  0.00  0.00    +0.008 C 
ATOM     22  C   LIG A   1      -9.331   6.597 132.681  0.00  0.00    +0.007 C 
ATOM     23  C   LIG A   1     -10.748   6.141 132.370  0.00  0.00    +0.009 C 
ATOM     24  C   LIG A   1     -10.607   5.180 131.164  0.00  0.00    +0.018 C 
ATOM     25  C   LIG A   1      -4.812   0.405 128.299  0.00  0.00    +0.012 C 
ATOM     26  C   LIG A   1      -5.859  -3.892 131.118  0.00  0.00    +0.015 C 
ATOM     27  C   LIG A   1      -6.516   2.098 132.911  0.00  0.00    +0.012 C 
ENDROOT
BRANCH  24  28
ATOM     28  C   LIG A   1     -11.088   5.891 129.887  0.00  0.00    -0.076 C 
ATOM     29  C   LIG A   1     -10.008   6.399 128.967  0.00  0.00    +0.038 C 
ATOM     30  C   LIG A   1     -12.373   6.052 129.521  0.00  0.00    +0.007 C 
ENDBRANCH  24  28
BRANCH   9  31
ATOM     31  O   LIG A   1      -5.896   0.066 131.236  0.00  0.00    -0.458 OA
BRANCH  31  32
ATOM     32  C   LIG A   1      -4.608   0.732 131.578  0.00  0.00    +0.332 C 
ATOM     33  O   LIG A   1      -3.805   0.273 132.372  0.00  0.00    -0.246 OA
BRANCH  32  34
ATOM     34  C   LIG A   1      -3.989   1.813 130.771  0.00  0.00    +0.092 C 
ATOM     35  C   LIG A   1      -4.086   3.127 130.855  0.00  0.00    +0.015 C 
BRANCH  35  36
ATOM     36  C   LIG A   1      -3.317   4.093 130.074  0.00  0.00    -0.025 A 
ATOM     37  C   LIG A   1      -3.261   3.921 128.686  0.00  0.00    +0.008 A 
ATOM     38  C   LIG A   1      -2.778   4.944 127.876  0.00  0.00    +0.001 A 
ATOM     39  C   LIG A   1      -2.335   6.132 128.454  0.00  0.00    +0.000 A 
ATOM     40  C   LIG A   1      -2.340   6.287 129.839  0.00  0.00    +0.001 A 
ATOM     41  C   LIG A   1      -2.825   5.264 130.654  0.00  0.00    +0.008 A 
ENDBRANCH  35  36
ENDBRANCH  32  34
ENDBRANCH  31  32
ENDBRANCH   9  31
TORSDOF 5
ENDMDL
MODEL 8
REMARK VINA RESULT:      -9.8      5.793     10.155
REMARK  Name = NuBBE_437
REMARK  12 active torsions:
REMARK  status: ('A' for Active; 'I' for Inactive)
REMARK    1  A    between atoms: C_1  and  C_2
REMARK    2  A    between atoms: C_3  and  C_46
REMARK    3  A    between atoms: C_8  and  C_9
REMARK    4  A    between atoms: C_8  and  C_45
REMARK    5  A    between atoms: C_10  and  O_34
REMARK    6  A    between atoms: C_13  and  C_33
REMARK    7  A    between atoms: C_22  and  C_23
REMARK    8  A    between atoms: C_28  and  C_30
REMARK    9  A    between atoms: C_30  and  C_31
REMARK   10  A    between atoms: O_34  and  C_35
REMARK   11  A    between atoms: C_35  and  C_36
REMARK   12  A    between atoms: C_37  and  C_38
REMARK                            x       y       z     vdW  Elec       q    Type
REMARK                         _______ _______ _______ _____ _____    ______ ____
ROOT
ATOM      1  C   LIG A   1      -2.688   3.729 133.182  0.00  0.00    +0.012 C 
ATOM      2  C   LIG A   1      -2.983   5.148 132.654  0.00  0.00    -0.023 C 
ATOM      3  C   LIG A   1      -4.475   5.105 131.887  0.00  0.00    -0.023 C 
ATOM      4  C   LIG A   1      -4.958   3.891 130.593  0.00  0.00    +0.008 C 
ATOM      5  C   LIG A   1      -6.772   3.770 130.026  0.00  0.00    +0.005 C 
ATOM      6  C   LIG A   1      -8.178   4.039 131.409  0.00  0.00    +0.004 C 
ATOM      7  C   LIG A   1      -8.326   2.652 131.768  0.00  0.00    +0.005 C 
ATOM      8  C   LIG A   1      -9.565   2.489 132.676  0.00  0.00    +0.015 C 
ATOM      9  C   LIG A   1      -6.855   3.079 132.162  0.00  0.00    +0.183 C 
ATOM     10  C   LIG A   1      -6.753   2.654 133.642  0.00  0.00    +0.046 C 
ATOM     11  C   LIG A   1      -7.563   3.693 134.329  0.00  0.00    +0.011 C 
ATOM     12  C   LIG A   1      -7.618   4.781 133.208  0.00  0.00    -0.025 C 
ATOM     13  C   LIG A   1      -5.712   5.180 133.347  0.00  0.00    +0.002 C 
ATOM     14  C   LIG A   1      -5.431   6.114 134.536  0.00  0.00    +0.005 C 
ATOM     15  C   LIG A   1      -3.988   5.908 134.984  0.00  0.00    +0.005 C 
ATOM     16  C   LIG A   1      -3.134   6.258 133.775  0.00  0.00    -0.000 C 
ATOM     17  C   LIG A   1      -2.025   7.266 134.110  0.00  0.00    +0.006 C 
ATOM     18  C   LIG A   1      -1.594   8.046 132.856  0.00  0.00    -0.028 C 
ATOM     19  C   LIG A   1      -2.589   9.199 132.563  0.00  0.00    +0.011 C 
ATOM     20  C   LIG A   1      -1.410   7.104 131.633  0.00  0.00    +0.007 C 
ATOM     21  C   LIG A   1      -1.691   5.583 131.856  0.00  0.00    +0.008 C 
ATOM     22  C   LIG A   1      -0.276   8.680 133.320  0.00  0.00    +0.007 C 
ATOM     23  C   LIG A   1       0.409   7.565 134.095  0.00  0.00    +0.009 C 
ATOM     24  C   LIG A   1      -0.731   6.847 134.859  0.00  0.00    +0.018 C 
ATOM     25  C   LIG A   1      -8.624   5.833 133.734  0.00  0.00    +0.012 C 
ATOM     26  C   LIG A   1      -8.452   1.545 130.721  0.00  0.00    +0.015 C 
ATOM     27  C   LIG A   1      -4.321   6.282 130.849  0.00  0.00    +0.012 C 
ENDROOT
BRANCH  24  28
ATOM     28  C   LIG A   1      -0.674   7.239 136.345  0.00  0.00    -0.076 C 
ATOM     29  C   LIG A   1      -1.791   8.121 136.840  0.00  0.00    +0.038 C 
ATOM     30  C   LIG A   1       0.259   6.828 137.225  0.00  0.00    +0.007 C 
ENDBRANCH  24  28
BRANCH   9  31
ATOM     31  O   LIG A   1      -6.538   4.908 131.564  0.00  0.00    -0.458 OA
BRANCH  31  32
ATOM     32  C   LIG A   1      -7.065   6.204 131.052  0.00  0.00    +0.332 C 
ATOM     33  O   LIG A   1      -6.376   7.199 130.907  0.00  0.00    -0.246 OA
BRANCH  32  34
ATOM     34  C   LIG A   1      -8.361   6.355 130.344  0.00  0.00    +0.092 C 
ATOM     35  C   LIG A   1      -9.308   7.270 130.445  0.00  0.00    +0.015 C 
BRANCH  35  36
ATOM     36  C   LIG A   1     -10.489   7.377 129.591  0.00  0.00    -0.025 A 
ATOM     37  C   LIG A   1     -10.382   8.126 128.414  0.00  0.00    +0.008 A 
ATOM     38  C   LIG A   1     -11.375   8.042 127.442  0.00  0.00    +0.001 A 
ATOM     39  C   LIG A   1     -12.481   7.221 127.654  0.00  0.00    +0.000 A 
ATOM     40  C   LIG A   1     -12.616   6.514 128.848  0.00  0.00    +0.001 A 
ATOM     41  C   LIG A   1     -11.623   6.596 129.823  0.00  0.00    +0.008 A 
ENDBRANCH  35  36
ENDBRANCH  32  34
ENDBRANCH  31  32
ENDBRANCH   9  31
TORSDOF 5
ENDMDL
MODEL 9
REMARK VINA RESULT:      -9.7      3.243      7.905
REMARK  Name = NuBBE_437
REMARK  12 active torsions:
REMARK  status: ('A' for Active; 'I' for Inactive)
REMARK    1  A    between atoms: C_1  and  C_2
REMARK    2  A    between atoms: C_3  and  C_46
REMARK    3  A    between atoms: C_8  and  C_9
REMARK    4  A    between atoms: C_8  and  C_45
REMARK    5  A    between atoms: C_10  and  O_34
REMARK    6  A    between atoms: C_13  and  C_33
REMARK    7  A    between atoms: C_22  and  C_23
REMARK    8  A    between atoms: C_28  and  C_30
REMARK    9  A    between atoms: C_30  and  C_31
REMARK   10  A    between atoms: O_34  and  C_35
REMARK   11  A    between atoms: C_35  and  C_36
REMARK   12  A    between atoms: C_37  and  C_38
REMARK                            x       y       z     vdW  Elec       q    Type
REMARK                         _______ _______ _______ _____ _____    ______ ____
ROOT
ATOM      1  C   LIG A   1      -4.468   2.255 131.177  0.00  0.00    +0.012 C 
ATOM      2  C   LIG A   1      -5.895   2.116 130.607  0.00  0.00    -0.023 C 
ATOM      3  C   LIG A   1      -6.030   0.578 129.947  0.00  0.00    -0.023 C 
ATOM      4  C   LIG A   1      -4.850  -0.160 128.747  0.00  0.00    +0.008 C 
ATOM      5  C   LIG A   1      -4.959  -2.010 128.312  0.00  0.00    +0.005 C 
ATOM      6  C   LIG A   1      -5.469  -3.260 129.776  0.00  0.00    +0.004 C 
ATOM      7  C   LIG A   1      -4.130  -3.567 130.207  0.00  0.00    +0.005 C 
ATOM      8  C   LIG A   1      -4.171  -4.745 131.205  0.00  0.00    +0.015 C 
ATOM      9  C   LIG A   1      -4.364  -2.026 130.478  0.00  0.00    +0.183 C 
ATOM     10  C   LIG A   1      -3.981  -1.873 131.966  0.00  0.00    +0.046 C 
ATOM     11  C   LIG A   1      -5.146  -2.481 132.658  0.00  0.00    +0.011 C 
ATOM     12  C   LIG A   1      -6.191  -2.473 131.495  0.00  0.00    -0.025 C 
ATOM     13  C   LIG A   1      -6.328  -0.525 131.484  0.00  0.00    +0.002 C 
ATOM     14  C   LIG A   1      -7.255  -0.032 132.608  0.00  0.00    +0.005 C 
ATOM     15  C   LIG A   1      -6.868   1.399 132.963  0.00  0.00    +0.005 C 
ATOM     16  C   LIG A   1      -7.054   2.200 131.683  0.00  0.00    -0.000 C 
ATOM     17  C   LIG A   1      -7.910   3.457 131.895  0.00  0.00    +0.006 C 
ATOM     18  C   LIG A   1      -8.578   3.894 130.581  0.00  0.00    -0.028 C 
ATOM     19  C   LIG A   1      -9.847   3.045 130.304  0.00  0.00    +0.011 C 
ATOM     20  C   LIG A   1      -7.577   3.857 129.392  0.00  0.00    +0.007 C 
ATOM     21  C   LIG A   1      -6.119   3.391 129.703  0.00  0.00    +0.008 C 
ATOM     22  C   LIG A   1      -9.040   5.317 130.923  0.00  0.00    +0.007 C 
ATOM     23  C   LIG A   1      -7.870   5.900 131.699  0.00  0.00    +0.009 C 
ATOM     24  C   LIG A   1      -7.344   4.735 132.572  0.00  0.00    +0.018 C 
ATOM     25  C   LIG A   1      -7.390  -3.285 132.041  0.00  0.00    +0.012 C 
ATOM     26  C   LIG A   1      -3.013  -3.919 129.222  0.00  0.00    +0.015 C 
ATOM     27  C   LIG A   1      -7.138   0.812 128.849  0.00  0.00    +0.012 C 
ENDROOT
BRANCH  24  28
ATOM     28  C   LIG A   1      -7.777   4.955 134.031  0.00  0.00    -0.076 C 
ATOM     29  C   LIG A   1      -9.013   4.214 134.473  0.00  0.00    +0.038 C 
ATOM     30  C   LIG A   1      -7.124   5.713 134.932  0.00  0.00    +0.007 C 
ENDBRANCH  24  28
BRANCH   9  31
ATOM     31  O   LIG A   1      -6.109  -1.511 129.777  0.00  0.00    -0.458 OA
BRANCH  31  32
ATOM     32  C   LIG A   1      -7.394  -1.884 129.122  0.00  0.00    +0.332 C 
ATOM     33  O   LIG A   1      -8.487  -1.648 129.606  0.00  0.00    -0.246 OA
BRANCH  32  34
ATOM     34  C   LIG A   1      -7.522  -2.259 127.692  0.00  0.00    +0.092 C 
ATOM     35  C   LIG A   1      -8.391  -1.890 126.769  0.00  0.00    +0.015 C 
BRANCH  35  36
ATOM     36  C   LIG A   1      -8.330  -2.235 125.350  0.00  0.00    -0.025 A 
ATOM     37  C   LIG A   1      -9.281  -3.132 124.851  0.00  0.00    +0.008 A 
ATOM     38  C   LIG A   1      -9.439  -3.287 123.477  0.00  0.00    +0.001 A 
ATOM     39  C   LIG A   1      -8.635  -2.559 122.602  0.00  0.00    +0.000 A 
ATOM     40  C   LIG A   1      -7.650  -1.704 123.097  0.00  0.00    +0.001 A 
ATOM     41  C   LIG A   1      -7.491  -1.546 124.473  0.00  0.00    +0.008 A 
ENDBRANCH  35  36
ENDBRANCH  32  34
ENDBRANCH  31  32
ENDBRANCH   9  31
TORSDOF 5
ENDMDL
