MODEL 1
REMARK VINA RESULT:      -6.6      0.000      0.000
REMARK  Name = NuBBE_1214
REMARK  7 active torsions:
REMARK  status: ('A' for Active; 'I' for Inactive)
REMARK    1  A    between atoms: C_9  and  C_10
REMARK    2  A    between atoms: C_10  and  C_11
REMARK    3  A    between atoms: C_11  and  O_12
REMARK    4  A    between atoms: C_11  and  C_13
REMARK    5  A    between atoms: C_13  and  C_14
REMARK    6  A    between atoms: C_16  and  O_17
REMARK    7  A    between atoms: O_17  and  C_18
REMARK                            x       y       z     vdW  Elec       q    Type
REMARK                         _______ _______ _______ _____ _____    ______ ____
ROOT
ATOM      1  O   LIG A   1      -7.471   4.355 118.606  0.00  0.00    -0.245 OA
ATOM      2  C   LIG A   1      -7.048   4.205 119.742  0.00  0.00    +0.337 A 
ATOM      3  C   LIG A   1      -5.657   4.562 120.082  0.00  0.00    +0.092 A 
ATOM      4  C   LIG A   1      -5.159   4.410 121.311  0.00  0.00    +0.018 A 
ATOM      5  O   LIG A   1      -7.832   3.695 120.769  0.00  0.00    -0.422 OA
ATOM      6  C   LIG A   1      -7.328   3.565 122.081  0.00  0.00    +0.142 A 
ATOM      7  C   LIG A   1      -6.013   3.906 122.374  0.00  0.00    +0.018 A 
ATOM      8  C   LIG A   1      -5.572   3.797 123.692  0.00  0.00    +0.018 A 
ATOM      9  C   LIG A   1      -6.448   3.385 124.717  0.00  0.00    -0.002 A 
ATOM     10  C   LIG A   1      -7.765   3.010 124.389  0.00  0.00    +0.127 A 
ATOM     11  C   LIG A   1      -8.208   3.109 123.065  0.00  0.00    +0.092 A 
ENDROOT
BRANCH  10  12
ATOM     12  O   LIG A   1      -8.564   2.620 125.432  0.00  0.00    -0.495 OA
ATOM     13  C   LIG A   1      -9.171   1.339 125.307  0.00  0.00    +0.277 C 
ENDBRANCH  10  12
BRANCH   9  14
ATOM     14  C   LIG A   1      -5.943   3.391 126.152  0.00  0.00    +0.074 C 
BRANCH  14  15
ATOM     15  C   LIG A   1      -4.622   4.156 126.355  0.00  0.00    +0.144 C 
BRANCH  15  16
ATOM     16  C   LIG A   1      -3.570   3.360 127.116  0.00  0.00    -0.051 C 
ATOM     17  C   LIG A   1      -2.180   3.299 126.534  0.00  0.00    +0.041 C 
ATOM     18  C   LIG A   1      -3.858   2.700 128.251  0.00  0.00    +0.010 C 
ENDBRANCH  15  16
BRANCH  15  19
ATOM     19  O   LIG A   1      -4.872   5.345 127.112  0.00  0.00    -0.387 OA
ATOM     20  H   LIG A   1      -4.459   6.073 126.619  0.00  0.00    +0.210 HD
ENDBRANCH  15  19
ENDBRANCH  14  15
ENDBRANCH   9  14
TORSDOF 5
ENDMDL
MODEL 2
REMARK VINA RESULT:      -6.6      2.907      5.826
REMARK  Name = NuBBE_1214
REMARK  7 active torsions:
REMARK  status: ('A' for Active; 'I' for Inactive)
REMARK    1  A    between atoms: C_9  and  C_10
REMARK    2  A    between atoms: C_10  and  C_11
REMARK    3  A    between atoms: C_11  and  O_12
REMARK    4  A    between atoms: C_11  and  C_13
REMARK    5  A    between atoms: C_13  and  C_14
REMARK    6  A    between atoms: C_16  and  O_17
REMARK    7  A    between atoms: O_17  and  C_18
REMARK                            x       y       z     vdW  Elec       q    Type
REMARK                         _______ _______ _______ _____ _____    ______ ____
ROOT
ATOM      1  O   LIG A   1      -9.997  -3.549 123.950  0.00  0.00    -0.245 OA
ATOM      2  C   LIG A   1      -9.258  -2.601 123.727  0.00  0.00    +0.337 A 
ATOM      3  C   LIG A   1      -7.966  -2.798 123.042  0.00  0.00    +0.092 A 
ATOM      4  C   LIG A   1      -7.132  -1.788 122.784  0.00  0.00    +0.018 A 
ATOM      5  O   LIG A   1      -9.577  -1.302 124.102  0.00  0.00    -0.422 OA
ATOM      6  C   LIG A   1      -8.721  -0.221 123.802  0.00  0.00    +0.142 A 
ATOM      7  C   LIG A   1      -7.508  -0.433 123.157  0.00  0.00    +0.018 A 
ATOM      8  C   LIG A   1      -6.714   0.670 122.847  0.00  0.00    +0.018 A 
ATOM      9  C   LIG A   1      -7.144   1.978 123.145  0.00  0.00    -0.002 A 
ATOM     10  C   LIG A   1      -8.359   2.165 123.832  0.00  0.00    +0.127 A 
ATOM     11  C   LIG A   1      -9.154   1.059 124.153  0.00  0.00    +0.092 A 
ENDROOT
BRANCH  10  12
ATOM     12  O   LIG A   1      -8.719   3.462 124.091  0.00  0.00    -0.495 OA
ATOM     13  C   LIG A   1      -8.262   4.001 125.326  0.00  0.00    +0.277 C 
ENDBRANCH  10  12
BRANCH   9  14
ATOM     14  C   LIG A   1      -6.288   3.149 122.685  0.00  0.00    +0.074 C 
BRANCH  14  15
ATOM     15  C   LIG A   1      -6.485   3.534 121.207  0.00  0.00    +0.144 C 
BRANCH  15  16
ATOM     16  C   LIG A   1      -5.492   4.578 120.715  0.00  0.00    -0.051 C 
ATOM     17  C   LIG A   1      -4.363   4.963 121.638  0.00  0.00    +0.041 C 
ATOM     18  C   LIG A   1      -5.617   5.173 119.515  0.00  0.00    +0.010 C 
ENDBRANCH  15  16
BRANCH  15  19
ATOM     19  O   LIG A   1      -7.792   4.087 121.029  0.00  0.00    -0.387 OA
ATOM     20  H   LIG A   1      -7.771   4.572 120.188  0.00  0.00    +0.210 HD
ENDBRANCH  15  19
ENDBRANCH  14  15
ENDBRANCH   9  14
TORSDOF 5
ENDMDL
MODEL 3
REMARK VINA RESULT:      -6.5      2.860      4.572
REMARK  Name = NuBBE_1214
REMARK  7 active torsions:
REMARK  status: ('A' for Active; 'I' for Inactive)
REMARK    1  A    between atoms: C_9  and  C_10
REMARK    2  A    between atoms: C_10  and  C_11
REMARK    3  A    between atoms: C_11  and  O_12
REMARK    4  A    between atoms: C_11  and  C_13
REMARK    5  A    between atoms: C_13  and  C_14
REMARK    6  A    between atoms: C_16  and  O_17
REMARK    7  A    between atoms: O_17  and  C_18
REMARK                            x       y       z     vdW  Elec       q    Type
REMARK                         _______ _______ _______ _____ _____    ______ ____
ROOT
ATOM      1  O   LIG A   1      -4.225   6.187 120.858  0.00  0.00    -0.245 OA
ATOM      2  C   LIG A   1      -4.876   5.251 121.298  0.00  0.00    +0.337 A 
ATOM      3  C   LIG A   1      -5.621   4.359 120.389  0.00  0.00    +0.092 A 
ATOM      4  C   LIG A   1      -6.345   3.328 120.832  0.00  0.00    +0.018 A 
ATOM      5  O   LIG A   1      -4.960   4.974 122.657  0.00  0.00    -0.422 OA
ATOM      6  C   LIG A   1      -5.691   3.865 123.135  0.00  0.00    +0.142 A 
ATOM      7  C   LIG A   1      -6.386   3.041 122.257  0.00  0.00    +0.018 A 
ATOM      8  C   LIG A   1      -7.062   1.935 122.772  0.00  0.00    +0.018 A 
ATOM      9  C   LIG A   1      -7.014   1.635 124.148  0.00  0.00    -0.002 A 
ATOM     10  C   LIG A   1      -6.334   2.505 125.022  0.00  0.00    +0.127 A 
ATOM     11  C   LIG A   1      -5.662   3.620 124.509  0.00  0.00    +0.092 A 
ENDROOT
BRANCH  10  12
ATOM     12  O   LIG A   1      -6.325   2.154 126.346  0.00  0.00    -0.495 OA
ATOM     13  C   LIG A   1      -5.059   1.791 126.887  0.00  0.00    +0.277 C 
ENDBRANCH  10  12
BRANCH   9  14
ATOM     14  C   LIG A   1      -7.677   0.356 124.637  0.00  0.00    +0.074 C 
BRANCH  14  15
ATOM     15  C   LIG A   1      -6.781  -0.894 124.556  0.00  0.00    +0.144 C 
BRANCH  15  16
ATOM     16  C   LIG A   1      -7.090  -1.786 123.362  0.00  0.00    -0.051 C 
ATOM     17  C   LIG A   1      -8.435  -2.466 123.323  0.00  0.00    +0.041 C 
ATOM     18  C   LIG A   1      -6.196  -2.001 122.381  0.00  0.00    +0.010 C 
ENDBRANCH  15  16
BRANCH  15  19
ATOM     19  O   LIG A   1      -6.968  -1.691 125.730  0.00  0.00    -0.387 OA
ATOM     20  H   LIG A   1      -6.080  -1.944 126.031  0.00  0.00    +0.210 HD
ENDBRANCH  15  19
ENDBRANCH  14  15
ENDBRANCH   9  14
TORSDOF 5
ENDMDL
MODEL 4
REMARK VINA RESULT:      -6.5      7.472      9.243
REMARK  Name = NuBBE_1214
REMARK  7 active torsions:
REMARK  status: ('A' for Active; 'I' for Inactive)
REMARK    1  A    between atoms: C_9  and  C_10
REMARK    2  A    between atoms: C_10  and  C_11
REMARK    3  A    between atoms: C_11  and  O_12
REMARK    4  A    between atoms: C_11  and  C_13
REMARK    5  A    between atoms: C_13  and  C_14
REMARK    6  A    between atoms: C_16  and  O_17
REMARK    7  A    between atoms: O_17  and  C_18
REMARK                            x       y       z     vdW  Elec       q    Type
REMARK                         _______ _______ _______ _____ _____    ______ ____
ROOT
ATOM      1  O   LIG A   1     -12.476   6.430 131.845  0.00  0.00    -0.245 OA
ATOM      2  C   LIG A   1     -11.283   6.525 131.596  0.00  0.00    +0.337 A 
ATOM      3  C   LIG A   1     -10.822   7.161 130.347  0.00  0.00    +0.092 A 
ATOM      4  C   LIG A   1      -9.528   7.282 130.040  0.00  0.00    +0.018 A 
ATOM      5  O   LIG A   1     -10.302   6.045 132.454  0.00  0.00    -0.422 OA
ATOM      6  C   LIG A   1      -8.930   6.200 132.158  0.00  0.00    +0.142 A 
ATOM      7  C   LIG A   1      -8.522   6.801 130.974  0.00  0.00    +0.018 A 
ATOM      8  C   LIG A   1      -7.157   6.967 130.743  0.00  0.00    +0.018 A 
ATOM      9  C   LIG A   1      -6.208   6.567 131.706  0.00  0.00    -0.002 A 
ATOM     10  C   LIG A   1      -6.644   5.927 132.881  0.00  0.00    +0.127 A 
ATOM     11  C   LIG A   1      -8.013   5.751 133.110  0.00  0.00    +0.092 A 
ENDROOT
BRANCH  10  12
ATOM     12  O   LIG A   1      -5.670   5.565 133.774  0.00  0.00    -0.495 OA
ATOM     13  C   LIG A   1      -6.013   5.678 135.151  0.00  0.00    +0.277 C 
ENDBRANCH  10  12
BRANCH   9  14
ATOM     14  C   LIG A   1      -4.739   6.872 131.449  0.00  0.00    +0.074 C 
BRANCH  14  15
ATOM     15  C   LIG A   1      -4.381   7.057 129.962  0.00  0.00    +0.144 C 
BRANCH  15  16
ATOM     16  C   LIG A   1      -2.950   6.660 129.628  0.00  0.00    -0.051 C 
ATOM     17  C   LIG A   1      -2.043   6.278 130.771  0.00  0.00    +0.041 C 
ATOM     18  C   LIG A   1      -2.481   6.673 128.368  0.00  0.00    +0.010 C 
ENDBRANCH  15  16
BRANCH  15  19
ATOM     19  O   LIG A   1      -4.524   8.436 129.606  0.00  0.00    -0.387 OA
ATOM     20  H   LIG A   1      -4.995   8.450 128.757  0.00  0.00    +0.210 HD
ENDBRANCH  15  19
ENDBRANCH  14  15
ENDBRANCH   9  14
TORSDOF 5
ENDMDL
MODEL 5
REMARK VINA RESULT:      -6.4      6.985      9.114
REMARK  Name = NuBBE_1214
REMARK  7 active torsions:
REMARK  status: ('A' for Active; 'I' for Inactive)
REMARK    1  A    between atoms: C_9  and  C_10
REMARK    2  A    between atoms: C_10  and  C_11
REMARK    3  A    between atoms: C_11  and  O_12
REMARK    4  A    between atoms: C_11  and  C_13
REMARK    5  A    between atoms: C_13  and  C_14
REMARK    6  A    between atoms: C_16  and  O_17
REMARK    7  A    between atoms: O_17  and  C_18
REMARK                            x       y       z     vdW  Elec       q    Type
REMARK                         _______ _______ _______ _____ _____    ______ ____
ROOT
ATOM      1  O   LIG A   1     -13.659   7.216 128.116  0.00  0.00    -0.245 OA
ATOM      2  C   LIG A   1     -12.869   6.998 129.023  0.00  0.00    +0.337 A 
ATOM      3  C   LIG A   1     -13.208   7.344 130.416  0.00  0.00    +0.092 A 
ATOM      4  C   LIG A   1     -12.371   7.123 131.433  0.00  0.00    +0.018 A 
ATOM      5  O   LIG A   1     -11.622   6.427 128.804  0.00  0.00    -0.422 OA
ATOM      6  C   LIG A   1     -10.743   6.154 129.875  0.00  0.00    +0.142 A 
ATOM      7  C   LIG A   1     -11.086   6.492 131.179  0.00  0.00    +0.018 A 
ATOM      8  C   LIG A   1     -10.202   6.168 132.208  0.00  0.00    +0.018 A 
ATOM      9  C   LIG A   1      -9.001   5.480 131.940  0.00  0.00    -0.002 A 
ATOM     10  C   LIG A   1      -8.659   5.182 130.607  0.00  0.00    +0.127 A 
ATOM     11  C   LIG A   1      -9.540   5.514 129.572  0.00  0.00    +0.092 A 
ENDROOT
BRANCH  10  12
ATOM     12  O   LIG A   1      -7.479   4.511 130.417  0.00  0.00    -0.495 OA
ATOM     13  C   LIG A   1      -7.523   3.419 129.506  0.00  0.00    +0.277 C 
ENDBRANCH  10  12
BRANCH   9  14
ATOM     14  C   LIG A   1      -8.129   5.055 133.112  0.00  0.00    +0.074 C 
BRANCH  14  15
ATOM     15  C   LIG A   1      -8.635   3.807 133.859  0.00  0.00    +0.144 C 
BRANCH  15  16
ATOM     16  C   LIG A   1      -8.475   2.518 133.065  0.00  0.00    -0.051 C 
ATOM     17  C   LIG A   1      -9.679   1.995 132.323  0.00  0.00    +0.041 C 
ATOM     18  C   LIG A   1      -7.316   1.835 133.039  0.00  0.00    +0.010 C 
ENDBRANCH  15  16
BRANCH  15  19
ATOM     19  O   LIG A   1     -10.031   3.952 134.138  0.00  0.00    -0.387 OA
ATOM     20  H   LIG A   1     -10.392   4.519 133.436  0.00  0.00    +0.210 HD
ENDBRANCH  15  19
ENDBRANCH  14  15
ENDBRANCH   9  14
TORSDOF 5
ENDMDL
MODEL 6
REMARK VINA RESULT:      -6.3      7.768      8.068
REMARK  Name = NuBBE_1214
REMARK  7 active torsions:
REMARK  status: ('A' for Active; 'I' for Inactive)
REMARK    1  A    between atoms: C_9  and  C_10
REMARK    2  A    between atoms: C_10  and  C_11
REMARK    3  A    between atoms: C_11  and  O_12
REMARK    4  A    between atoms: C_11  and  C_13
REMARK    5  A    between atoms: C_13  and  C_14
REMARK    6  A    between atoms: C_16  and  O_17
REMARK    7  A    between atoms: O_17  and  C_18
REMARK                            x       y       z     vdW  Elec       q    Type
REMARK                         _______ _______ _______ _____ _____    ______ ____
ROOT
ATOM      1  O   LIG A   1     -13.876   7.250 127.597  0.00  0.00    -0.245 OA
ATOM      2  C   LIG A   1     -12.798   7.236 128.174  0.00  0.00    +0.337 A 
ATOM      3  C   LIG A   1     -11.856   8.363 128.037  0.00  0.00    +0.092 A 
ATOM      4  C   LIG A   1     -10.669   8.382 128.649  0.00  0.00    +0.018 A 
ATOM      5  O   LIG A   1     -12.396   6.177 128.977  0.00  0.00    -0.422 OA
ATOM      6  C   LIG A   1     -11.161   6.202 129.660  0.00  0.00    +0.142 A 
ATOM      7  C   LIG A   1     -10.290   7.275 129.512  0.00  0.00    +0.018 A 
ATOM      8  C   LIG A   1      -9.098   7.273 130.237  0.00  0.00    +0.018 A 
ATOM      9  C   LIG A   1      -8.797   6.225 131.130  0.00  0.00    -0.002 A 
ATOM     10  C   LIG A   1      -9.678   5.132 131.234  0.00  0.00    +0.127 A 
ATOM     11  C   LIG A   1     -10.870   5.127 130.501  0.00  0.00    +0.092 A 
ENDROOT
BRANCH  10  12
ATOM     12  O   LIG A   1      -9.325   4.148 132.121  0.00  0.00    -0.495 OA
ATOM     13  C   LIG A   1      -9.295   2.824 131.603  0.00  0.00    +0.277 C 
ENDBRANCH  10  12
BRANCH   9  14
ATOM     14  C   LIG A   1      -7.536   6.331 131.976  0.00  0.00    +0.074 C 
BRANCH  14  15
ATOM     15  C   LIG A   1      -6.276   5.747 131.309  0.00  0.00    +0.144 C 
BRANCH  15  16
ATOM     16  C   LIG A   1      -5.050   6.639 131.445  0.00  0.00    -0.051 C 
ATOM     17  C   LIG A   1      -4.747   7.593 130.317  0.00  0.00    +0.041 C 
ATOM     18  C   LIG A   1      -4.232   6.572 132.510  0.00  0.00    +0.010 C 
ENDBRANCH  15  16
BRANCH  15  19
ATOM     19  O   LIG A   1      -6.514   5.577 129.909  0.00  0.00    -0.387 OA
ATOM     20  H   LIG A   1      -7.231   4.926 129.832  0.00  0.00    +0.210 HD
ENDBRANCH  15  19
ENDBRANCH  14  15
ENDBRANCH   9  14
TORSDOF 5
ENDMDL
MODEL 7
REMARK VINA RESULT:      -6.1      8.511      9.183
REMARK  Name = NuBBE_1214
REMARK  7 active torsions:
REMARK  status: ('A' for Active; 'I' for Inactive)
REMARK    1  A    between atoms: C_9  and  C_10
REMARK    2  A    between atoms: C_10  and  C_11
REMARK    3  A    between atoms: C_11  and  O_12
REMARK    4  A    between atoms: C_11  and  C_13
REMARK    5  A    between atoms: C_13  and  C_14
REMARK    6  A    between atoms: C_16  and  O_17
REMARK    7  A    between atoms: O_17  and  C_18
REMARK                            x       y       z     vdW  Elec       q    Type
REMARK                         _______ _______ _______ _____ _____    ______ ____
ROOT
ATOM      1  O   LIG A   1     -13.795   6.677 128.109  0.00  0.00    -0.245 OA
ATOM      2  C   LIG A   1     -12.786   6.643 128.798  0.00  0.00    +0.337 A 
ATOM      3  C   LIG A   1     -12.101   7.888 129.194  0.00  0.00    +0.092 A 
ATOM      4  C   LIG A   1     -10.996   7.891 129.944  0.00  0.00    +0.018 A 
ATOM      5  O   LIG A   1     -12.226   5.451 129.242  0.00  0.00    -0.422 OA
ATOM      6  C   LIG A   1     -11.079   5.443 130.066  0.00  0.00    +0.142 A 
ATOM      7  C   LIG A   1     -10.452   6.630 130.422  0.00  0.00    +0.018 A 
ATOM      8  C   LIG A   1      -9.346   6.574 131.270  0.00  0.00    +0.018 A 
ATOM      9  C   LIG A   1      -8.893   5.343 131.786  0.00  0.00    -0.002 A 
ATOM     10  C   LIG A   1      -9.522   4.151 131.380  0.00  0.00    +0.127 A 
ATOM     11  C   LIG A   1     -10.626   4.204 130.523  0.00  0.00    +0.092 A 
ENDROOT
BRANCH  10  12
ATOM     12  O   LIG A   1      -9.032   2.990 131.920  0.00  0.00    -0.495 OA
ATOM     13  C   LIG A   1      -9.952   1.908 132.010  0.00  0.00    +0.277 C 
ENDBRANCH  10  12
BRANCH   9  14
ATOM     14  C   LIG A   1      -7.752   5.352 132.793  0.00  0.00    +0.074 C 
BRANCH  14  15
ATOM     15  C   LIG A   1      -8.200   5.520 134.257  0.00  0.00    +0.144 C 
BRANCH  15  16
ATOM     16  C   LIG A   1      -7.042   5.693 135.230  0.00  0.00    -0.051 C 
ATOM     17  C   LIG A   1      -7.370   6.079 136.650  0.00  0.00    +0.041 C 
ATOM     18  C   LIG A   1      -5.761   5.544 134.849  0.00  0.00    +0.010 C 
ENDBRANCH  15  16
BRANCH  15  19
ATOM     19  O   LIG A   1      -8.921   4.356 134.670  0.00  0.00    -0.387 OA
ATOM     20  H   LIG A   1      -9.201   3.906 133.856  0.00  0.00    +0.210 HD
ENDBRANCH  15  19
ENDBRANCH  14  15
ENDBRANCH   9  14
TORSDOF 5
ENDMDL
MODEL 8
REMARK VINA RESULT:      -6.1      6.589      9.777
REMARK  Name = NuBBE_1214
REMARK  7 active torsions:
REMARK  status: ('A' for Active; 'I' for Inactive)
REMARK    1  A    between atoms: C_9  and  C_10
REMARK    2  A    between atoms: C_10  and  C_11
REMARK    3  A    between atoms: C_11  and  O_12
REMARK    4  A    between atoms: C_11  and  C_13
REMARK    5  A    between atoms: C_13  and  C_14
REMARK    6  A    between atoms: C_16  and  O_17
REMARK    7  A    between atoms: O_17  and  C_18
REMARK                            x       y       z     vdW  Elec       q    Type
REMARK                         _______ _______ _______ _____ _____    ______ ____
ROOT
ATOM      1  O   LIG A   1      -7.826   1.997 133.709  0.00  0.00    -0.245 OA
ATOM      2  C   LIG A   1      -8.292   2.965 133.126  0.00  0.00    +0.337 A 
ATOM      3  C   LIG A   1      -8.903   4.077 133.879  0.00  0.00    +0.092 A 
ATOM      4  C   LIG A   1      -9.424   5.149 133.277  0.00  0.00    +0.018 A 
ATOM      5  O   LIG A   1      -8.281   3.077 131.741  0.00  0.00    -0.422 OA
ATOM      6  C   LIG A   1      -8.795   4.222 131.095  0.00  0.00    +0.142 A 
ATOM      7  C   LIG A   1      -9.367   5.255 131.828  0.00  0.00    +0.018 A 
ATOM      8  C   LIG A   1      -9.825   6.383 131.148  0.00  0.00    +0.018 A 
ATOM      9  C   LIG A   1      -9.680   6.494 129.750  0.00  0.00    -0.002 A 
ATOM     10  C   LIG A   1      -9.131   5.418 129.026  0.00  0.00    +0.127 A 
ATOM     11  C   LIG A   1      -8.679   4.282 129.705  0.00  0.00    +0.092 A 
ENDROOT
BRANCH  10  12
ATOM     12  O   LIG A   1      -9.018   5.592 127.671  0.00  0.00    -0.495 OA
ATOM     13  C   LIG A   1      -8.131   4.703 127.001  0.00  0.00    +0.277 C 
ENDBRANCH  10  12
BRANCH   9  14
ATOM     14  C   LIG A   1     -10.098   7.793 129.076  0.00  0.00    +0.074 C 
BRANCH  14  15
ATOM     15  C   LIG A   1     -11.611   8.073 129.125  0.00  0.00    +0.144 C 
BRANCH  15  16
ATOM     16  C   LIG A   1     -12.410   7.275 128.104  0.00  0.00    -0.051 C 
ATOM     17  C   LIG A   1     -11.926   7.279 126.676  0.00  0.00    +0.041 C 
ATOM     18  C   LIG A   1     -13.530   6.608 128.436  0.00  0.00    +0.010 C 
ENDBRANCH  15  16
BRANCH  15  19
ATOM     19  O   LIG A   1     -11.848   9.457 128.849  0.00  0.00    -0.387 OA
ATOM     20  H   LIG A   1     -12.214   9.838 129.664  0.00  0.00    +0.210 HD
ENDBRANCH  15  19
ENDBRANCH  14  15
ENDBRANCH   9  14
TORSDOF 5
ENDMDL
MODEL 9
REMARK VINA RESULT:      -6.1      6.743      7.651
REMARK  Name = NuBBE_1214
REMARK  7 active torsions:
REMARK  status: ('A' for Active; 'I' for Inactive)
REMARK    1  A    between atoms: C_9  and  C_10
REMARK    2  A    between atoms: C_10  and  C_11
REMARK    3  A    between atoms: C_11  and  O_12
REMARK    4  A    between atoms: C_11  and  C_13
REMARK    5  A    between atoms: C_13  and  C_14
REMARK    6  A    between atoms: C_16  and  O_17
REMARK    7  A    between atoms: O_17  and  C_18
REMARK                            x       y       z     vdW  Elec       q    Type
REMARK                         _______ _______ _______ _____ _____    ______ ____
ROOT
ATOM      1  O   LIG A   1      -9.957  -3.157 123.360  0.00  0.00    -0.245 OA
ATOM      2  C   LIG A   1      -9.009  -2.989 124.112  0.00  0.00    +0.337 A 
ATOM      3  C   LIG A   1      -7.651  -2.777 123.576  0.00  0.00    +0.092 A 
ATOM      4  C   LIG A   1      -6.590  -2.593 124.366  0.00  0.00    +0.018 A 
ATOM      5  O   LIG A   1      -9.144  -2.993 125.495  0.00  0.00    -0.422 OA
ATOM      6  C   LIG A   1      -8.037  -2.763 126.340  0.00  0.00    +0.142 A 
ATOM      7  C   LIG A   1      -6.767  -2.567 125.809  0.00  0.00    +0.018 A 
ATOM      8  C   LIG A   1      -5.711  -2.304 126.682  0.00  0.00    +0.018 A 
ATOM      9  C   LIG A   1      -5.930  -2.202 128.071  0.00  0.00    -0.002 A 
ATOM     10  C   LIG A   1      -7.218  -2.441 128.586  0.00  0.00    +0.127 A 
ATOM     11  C   LIG A   1      -8.277  -2.714 127.714  0.00  0.00    +0.092 A 
ENDROOT
BRANCH  10  12
ATOM     12  O   LIG A   1      -7.361  -2.325 129.945  0.00  0.00    -0.495 OA
ATOM     13  C   LIG A   1      -8.035  -1.158 130.403  0.00  0.00    +0.277 C 
ENDBRANCH  10  12
BRANCH   9  14
ATOM     14  C   LIG A   1      -4.763  -1.805 128.963  0.00  0.00    +0.074 C 
BRANCH  14  15
ATOM     15  C   LIG A   1      -3.878  -2.983 129.411  0.00  0.00    +0.144 C 
BRANCH  15  16
ATOM     16  C   LIG A   1      -4.333  -3.621 130.716  0.00  0.00    -0.051 C 
ATOM     17  C   LIG A   1      -3.955  -2.932 132.003  0.00  0.00    +0.041 C 
ATOM     18  C   LIG A   1      -5.019  -4.777 130.745  0.00  0.00    +0.010 C 
ENDBRANCH  15  16
BRANCH  15  19
ATOM     19  O   LIG A   1      -2.539  -2.523 129.616  0.00  0.00    -0.387 OA
ATOM     20  H   LIG A   1      -2.328  -2.707 130.546  0.00  0.00    +0.210 HD
ENDBRANCH  15  19
ENDBRANCH  14  15
ENDBRANCH   9  14
TORSDOF 5
ENDMDL
