MODEL 1
REMARK VINA RESULT:      -7.4      0.000      0.000
REMARK  Name = NuBBE_232
REMARK  20 active torsions:
REMARK  status: ('A' for Active; 'I' for Inactive)
REMARK    1  A    between atoms: C_1  and  C_2
REMARK    2  A    between atoms: C_4  and  O_6
REMARK    3  A    between atoms: O_6  and  C_7
REMARK    4  A    between atoms: C_7  and  C_8
REMARK    5  A    between atoms: C_10  and  O_12
REMARK    6  A    between atoms: O_12  and  C_13
REMARK    7  A    between atoms: C_13  and  C_14
REMARK    8  A    between atoms: C_18  and  O_20
REMARK    9  A    between atoms: O_20  and  C_21
REMARK   10  A    between atoms: C_21  and  C_22
REMARK   11  A    between atoms: C_25  and  O_27
REMARK   12  A    between atoms: O_27  and  C_28
REMARK   13  A    between atoms: C_28  and  C_29
REMARK   14  A    between atoms: C_32  and  O_34
REMARK   15  A    between atoms: O_34  and  C_35
REMARK   16  A    between atoms: C_39  and  C_40
REMARK   17  A    between atoms: C_39  and  C_41
REMARK   18  A    between atoms: C_41  and  C_42
REMARK   19  A    between atoms: C_43  and  C_44
REMARK   20  A    between atoms: C_43  and  C_46
REMARK                            x       y       z     vdW  Elec       q    Type
REMARK                         _______ _______ _______ _____ _____    ______ ____
ROOT
ATOM      1  C   LIG A   1      -4.093   1.558 132.456  0.00  0.00    +0.012 C 
ATOM      2  C   LIG A   1      -4.964   2.721 131.932  0.00  0.00    +0.037 C 
ATOM      3  C   LIG A   1      -6.451   2.384 132.178  0.00  0.00    +0.221 C 
ATOM      4  C   LIG A   1      -7.553   2.939 131.244  0.00  0.00    +0.234 C 
ATOM      5  C   LIG A   1      -7.163   3.998 130.151  0.00  0.00    +0.104 C 
ATOM      6  C   LIG A   1      -8.037   5.207 130.477  0.00  0.00    +0.013 C 
ATOM      7  C   LIG A   1      -9.444   4.883 130.045  0.00  0.00    +0.343 C 
ATOM      8  O   LIG A   1      -9.275   3.940 128.969  0.00  0.00    -0.297 OA
ATOM      9  C   LIG A   1      -7.856   3.744 128.761  0.00  0.00    +0.328 C 
ATOM     10  C   LIG A   1      -7.610   6.379 130.959  0.00  0.00    +0.010 C 
ATOM     11  C   LIG A   1      -6.198   6.747 131.178  0.00  0.00    +0.141 C 
ATOM     12  C   LIG A   1      -5.198   5.671 130.776  0.00  0.00    +0.041 C 
ATOM     13  C   LIG A   1      -5.630   4.347 130.075  0.00  0.00    +0.018 C 
ATOM     14  C   LIG A   1      -4.596   3.196 130.484  0.00  0.00    -0.018 C 
ATOM     15  C   LIG A   1      -3.125   3.764 130.550  0.00  0.00    +0.012 C 
ENDROOT
BRANCH  11  16
ATOM     16  O   LIG A   1      -6.009   7.950 130.422  0.00  0.00    -0.376 OA
ATOM     17  C   LIG A   1      -4.654   8.217 130.087  0.00  0.00    +0.194 C 
ENDBRANCH  11  16
BRANCH   3  18
ATOM     18  O   LIG A   1      -6.818   2.697 133.572  0.00  0.00    -0.458 OA
BRANCH  18  19
ATOM     19  C   LIG A   1      -7.072   4.000 133.892  0.00  0.00    +0.304 C 
ATOM     20  C   LIG A   1      -8.550   4.224 134.106  0.00  0.00    +0.136 C 
ATOM     21  O   LIG A   1      -6.240   4.899 133.923  0.00  0.00    -0.251 OA
ENDBRANCH  18  19
ENDBRANCH   3  18
BRANCH   4  22
ATOM     22  O   LIG A   1      -8.388   1.844 130.720  0.00  0.00    -0.457 OA
BRANCH  22  23
ATOM     23  C   LIG A   1      -9.233   1.242 131.614  0.00  0.00    +0.304 C 
ATOM     24  C   LIG A   1      -8.901  -0.208 131.836  0.00  0.00    +0.136 C 
ATOM     25  O   LIG A   1     -10.199   1.769 132.154  0.00  0.00    -0.251 OA
ENDBRANCH  22  23
ENDBRANCH   4  22
BRANCH   7  26
ATOM     26  O   LIG A   1     -10.174   6.031 129.623  0.00  0.00    -0.431 OA
BRANCH  26  27
ATOM     27  C   LIG A   1     -11.488   5.993 129.971  0.00  0.00    +0.306 C 
ATOM     28  C   LIG A   1     -11.669   6.314 131.417  0.00  0.00    +0.136 C 
ATOM     29  O   LIG A   1     -12.419   5.690 129.227  0.00  0.00    -0.251 OA
ENDBRANCH  26  27
ENDBRANCH   7  26
BRANCH   9  30
ATOM     30  O   LIG A   1      -7.427   4.734 127.800  0.00  0.00    -0.434 OA
BRANCH  30  31
ATOM     31  C   LIG A   1      -8.073   4.710 126.596  0.00  0.00    +0.306 C 
ATOM     32  C   LIG A   1      -7.796   3.373 125.939  0.00  0.00    +0.136 C 
ATOM     33  O   LIG A   1      -8.730   5.600 126.113  0.00  0.00    -0.251 OA
ENDBRANCH  30  31
ENDBRANCH   9  30
BRANCH  14  34
ATOM     34  C   LIG A   1      -4.546   2.013 129.451  0.00  0.00    +0.034 C 
BRANCH  34  35
ATOM     35  C   LIG A   1      -4.810   2.390 128.004  0.00  0.00    -0.023 C 
ATOM     36  C   LIG A   1      -3.906   2.802 127.094  0.00  0.00    -0.055 C 
ATOM     37  C   LIG A   1      -4.298   3.125 125.669  0.00  0.00    +0.043 C 
BRANCH  36  38
ATOM     38  C   LIG A   1      -2.507   3.014 127.407  0.00  0.00    -0.005 C 
ATOM     39  C   LIG A   1      -1.588   3.115 126.439  0.00  0.00    +0.008 C 
ENDBRANCH  36  38
ENDBRANCH  34  35
ENDBRANCH  14  34
TORSDOF 12
ENDMDL
MODEL 2
REMARK VINA RESULT:      -7.3      2.289      6.401
REMARK  Name = NuBBE_232
REMARK  20 active torsions:
REMARK  status: ('A' for Active; 'I' for Inactive)
REMARK    1  A    between atoms: C_1  and  C_2
REMARK    2  A    between atoms: C_4  and  O_6
REMARK    3  A    between atoms: O_6  and  C_7
REMARK    4  A    between atoms: C_7  and  C_8
REMARK    5  A    between atoms: C_10  and  O_12
REMARK    6  A    between atoms: O_12  and  C_13
REMARK    7  A    between atoms: C_13  and  C_14
REMARK    8  A    between atoms: C_18  and  O_20
REMARK    9  A    between atoms: O_20  and  C_21
REMARK   10  A    between atoms: C_21  and  C_22
REMARK   11  A    between atoms: C_25  and  O_27
REMARK   12  A    between atoms: O_27  and  C_28
REMARK   13  A    between atoms: C_28  and  C_29
REMARK   14  A    between atoms: C_32  and  O_34
REMARK   15  A    between atoms: O_34  and  C_35
REMARK   16  A    between atoms: C_39  and  C_40
REMARK   17  A    between atoms: C_39  and  C_41
REMARK   18  A    between atoms: C_41  and  C_42
REMARK   19  A    between atoms: C_43  and  C_44
REMARK   20  A    between atoms: C_43  and  C_46
REMARK                            x       y       z     vdW  Elec       q    Type
REMARK                         _______ _______ _______ _____ _____    ______ ____
ROOT
ATOM      1  C   LIG A   1      -2.825   6.096 128.821  0.00  0.00    +0.012 C 
ATOM      2  C   LIG A   1      -3.687   4.814 128.812  0.00  0.00    +0.037 C 
ATOM      3  C   LIG A   1      -4.465   4.743 127.480  0.00  0.00    +0.221 C 
ATOM      4  C   LIG A   1      -5.838   4.032 127.403  0.00  0.00    +0.234 C 
ATOM      5  C   LIG A   1      -6.348   3.223 128.649  0.00  0.00    +0.104 C 
ATOM      6  C   LIG A   1      -6.553   1.807 128.115  0.00  0.00    +0.013 C 
ATOM      7  C   LIG A   1      -7.802   1.814 127.272  0.00  0.00    +0.343 C 
ATOM      8  O   LIG A   1      -8.599   2.877 127.829  0.00  0.00    -0.297 OA
ATOM      9  C   LIG A   1      -7.877   3.441 128.950  0.00  0.00    +0.328 C 
ATOM     10  C   LIG A   1      -5.818   0.735 128.428  0.00  0.00    +0.010 C 
ATOM     11  C   LIG A   1      -4.726   0.709 129.421  0.00  0.00    +0.141 C 
ATOM     12  C   LIG A   1      -4.489   2.037 130.129  0.00  0.00    +0.041 C 
ATOM     13  C   LIG A   1      -5.409   3.277 129.912  0.00  0.00    +0.018 C 
ATOM     14  C   LIG A   1      -4.532   4.601 130.116  0.00  0.00    -0.018 C 
ATOM     15  C   LIG A   1      -3.505   4.413 131.300  0.00  0.00    +0.012 C 
ENDROOT
BRANCH  11  16
ATOM     16  O   LIG A   1      -5.092  -0.322 130.346  0.00  0.00    -0.376 OA
ATOM     17  C   LIG A   1      -4.740  -0.044 131.694  0.00  0.00    +0.194 C 
ENDBRANCH  11  16
BRANCH   3  18
ATOM     18  O   LIG A   1      -3.598   4.204 126.415  0.00  0.00    -0.458 OA
BRANCH  18  19
ATOM     19  C   LIG A   1      -3.114   2.935 126.561  0.00  0.00    +0.304 C 
ATOM     20  C   LIG A   1      -1.660   2.956 126.966  0.00  0.00    +0.136 C 
ATOM     21  O   LIG A   1      -3.734   1.907 126.318  0.00  0.00    -0.251 OA
ENDBRANCH  18  19
ENDBRANCH   3  18
BRANCH   4  22
ATOM     22  O   LIG A   1      -6.856   4.932 126.837  0.00  0.00    -0.457 OA
BRANCH  22  23
ATOM     23  C   LIG A   1      -6.796   5.148 125.487  0.00  0.00    +0.304 C 
ATOM     24  C   LIG A   1      -7.418   4.031 124.694  0.00  0.00    +0.136 C 
ATOM     25  O   LIG A   1      -6.256   6.101 124.936  0.00  0.00    -0.251 OA
ENDBRANCH  22  23
ENDBRANCH   4  22
BRANCH   7  26
ATOM     26  O   LIG A   1      -8.497   0.571 127.299  0.00  0.00    -0.431 OA
BRANCH  26  27
ATOM     27  C   LIG A   1      -8.938   0.173 126.075  0.00  0.00    +0.306 C 
ATOM     28  C   LIG A   1      -7.827  -0.408 125.267  0.00  0.00    +0.136 C 
ATOM     29  O   LIG A   1     -10.084   0.308 125.648  0.00  0.00    -0.251 OA
ENDBRANCH  26  27
ENDBRANCH   7  26
BRANCH   9  30
ATOM     30  O   LIG A   1      -8.267   2.695 130.125  0.00  0.00    -0.434 OA
BRANCH  30  31
ATOM     31  C   LIG A   1      -9.505   2.985 130.627  0.00  0.00    +0.306 C 
ATOM     32  C   LIG A   1      -9.601   2.387 132.016  0.00  0.00    +0.136 C 
ATOM     33  O   LIG A   1     -10.388   3.585 130.065  0.00  0.00    -0.251 OA
ENDBRANCH  30  31
ENDBRANCH   9  30
BRANCH  14  34
ATOM     34  C   LIG A   1      -5.390   5.860 130.496  0.00  0.00    +0.034 C 
BRANCH  34  35
ATOM     35  C   LIG A   1      -6.320   5.689 131.685  0.00  0.00    -0.023 C 
ATOM     36  C   LIG A   1      -7.595   6.113 131.787  0.00  0.00    -0.055 C 
ATOM     37  C   LIG A   1      -8.425   5.855 133.025  0.00  0.00    +0.043 C 
BRANCH  36  38
ATOM     38  C   LIG A   1      -8.258   6.881 130.752  0.00  0.00    -0.005 C 
ATOM     39  C   LIG A   1      -9.594   6.914 130.664  0.00  0.00    +0.008 C 
ENDBRANCH  36  38
ENDBRANCH  34  35
ENDBRANCH  14  34
TORSDOF 12
ENDMDL
MODEL 3
REMARK VINA RESULT:      -7.2      2.709      4.776
REMARK  Name = NuBBE_232
REMARK  20 active torsions:
REMARK  status: ('A' for Active; 'I' for Inactive)
REMARK    1  A    between atoms: C_1  and  C_2
REMARK    2  A    between atoms: C_4  and  O_6
REMARK    3  A    between atoms: O_6  and  C_7
REMARK    4  A    between atoms: C_7  and  C_8
REMARK    5  A    between atoms: C_10  and  O_12
REMARK    6  A    between atoms: O_12  and  C_13
REMARK    7  A    between atoms: C_13  and  C_14
REMARK    8  A    between atoms: C_18  and  O_20
REMARK    9  A    between atoms: O_20  and  C_21
REMARK   10  A    between atoms: C_21  and  C_22
REMARK   11  A    between atoms: C_25  and  O_27
REMARK   12  A    between atoms: O_27  and  C_28
REMARK   13  A    between atoms: C_28  and  C_29
REMARK   14  A    between atoms: C_32  and  O_34
REMARK   15  A    between atoms: O_34  and  C_35
REMARK   16  A    between atoms: C_39  and  C_40
REMARK   17  A    between atoms: C_39  and  C_41
REMARK   18  A    between atoms: C_41  and  C_42
REMARK   19  A    between atoms: C_43  and  C_44
REMARK   20  A    between atoms: C_43  and  C_46
REMARK                            x       y       z     vdW  Elec       q    Type
REMARK                         _______ _______ _______ _____ _____    ______ ____
ROOT
ATOM      1  C   LIG A   1      -7.224  -1.752 128.672  0.00  0.00    +0.012 C 
ATOM      2  C   LIG A   1      -6.674  -0.309 128.685  0.00  0.00    +0.037 C 
ATOM      3  C   LIG A   1      -7.243   0.433 129.914  0.00  0.00    +0.221 C 
ATOM      4  C   LIG A   1      -7.456   1.966 129.885  0.00  0.00    +0.234 C 
ATOM      5  C   LIG A   1      -6.917   2.786 128.659  0.00  0.00    +0.104 C 
ATOM      6  C   LIG A   1      -5.958   3.799 129.282  0.00  0.00    +0.013 C 
ATOM      7  C   LIG A   1      -6.790   4.854 129.964  0.00  0.00    +0.343 C 
ATOM      8  O   LIG A   1      -8.028   4.861 129.227  0.00  0.00    -0.297 OA
ATOM      9  C   LIG A   1      -7.920   3.890 128.158  0.00  0.00    +0.328 C 
ATOM     10  C   LIG A   1      -4.628   3.805 129.152  0.00  0.00    +0.010 C 
ATOM     11  C   LIG A   1      -3.849   2.881 128.304  0.00  0.00    +0.141 C 
ATOM     12  C   LIG A   1      -4.693   1.885 127.520  0.00  0.00    +0.041 C 
ATOM     13  C   LIG A   1      -6.252   1.928 127.519  0.00  0.00    +0.018 C 
ATOM     14  C   LIG A   1      -6.800   0.437 127.312  0.00  0.00    -0.018 C 
ATOM     15  C   LIG A   1      -5.900  -0.349 126.280  0.00  0.00    +0.012 C 
ENDROOT
BRANCH  11  16
ATOM     16  O   LIG A   1      -3.092   3.730 127.433  0.00  0.00    -0.376 OA
ATOM     17  C   LIG A   1      -1.929   3.117 126.893  0.00  0.00    +0.194 C 
ENDBRANCH  11  16
BRANCH   3  18
ATOM     18  O   LIG A   1      -6.460   0.092 131.118  0.00  0.00    -0.458 OA
BRANCH  18  19
ATOM     19  C   LIG A   1      -5.269   0.730 131.312  0.00  0.00    +0.304 C 
ATOM     20  C   LIG A   1      -4.139  -0.026 130.658  0.00  0.00    +0.136 C 
ATOM     21  O   LIG A   1      -5.105   1.735 131.994  0.00  0.00    -0.251 OA
ENDBRANCH  18  19
ENDBRANCH   3  18
BRANCH   4  22
ATOM     22  O   LIG A   1      -8.844   2.302 130.245  0.00  0.00    -0.457 OA
BRANCH  22  23
ATOM     23  C   LIG A   1      -9.225   2.020 131.529  0.00  0.00    +0.304 C 
ATOM     24  C   LIG A   1      -8.431   2.787 132.551  0.00  0.00    +0.136 C 
ATOM     25  O   LIG A   1     -10.073   1.200 131.861  0.00  0.00    -0.251 OA
ENDBRANCH  22  23
ENDBRANCH   4  22
BRANCH   7  26
ATOM     26  O   LIG A   1      -6.173   6.138 129.959  0.00  0.00    -0.431 OA
BRANCH  26  27
ATOM     27  C   LIG A   1      -5.740   6.534 131.187  0.00  0.00    +0.306 C 
ATOM     28  C   LIG A   1      -6.722   6.159 132.246  0.00  0.00    +0.136 C 
ATOM     29  O   LIG A   1      -4.708   7.161 131.415  0.00  0.00    -0.251 OA
ENDBRANCH  26  27
ENDBRANCH   7  26
BRANCH   9  30
ATOM     30  O   LIG A   1      -7.374   4.580 127.012  0.00  0.00    -0.434 OA
BRANCH  30  31
ATOM     31  C   LIG A   1      -8.257   4.844 126.003  0.00  0.00    +0.306 C 
ATOM     32  C   LIG A   1      -8.094   3.774 124.942  0.00  0.00    +0.136 C 
ATOM     33  O   LIG A   1      -9.018   5.778 125.938  0.00  0.00    -0.251 OA
ENDBRANCH  30  31
ENDBRANCH   9  30
BRANCH  14  34
ATOM     34  C   LIG A   1      -8.256   0.389 126.725  0.00  0.00    +0.034 C 
BRANCH  34  35
ATOM     35  C   LIG A   1      -8.368  -0.048 125.275  0.00  0.00    -0.023 C 
ATOM     36  C   LIG A   1      -8.837  -1.225 124.814  0.00  0.00    -0.055 C 
ATOM     37  C   LIG A   1      -8.918  -1.527 123.335  0.00  0.00    +0.043 C 
BRANCH  36  38
ATOM     38  C   LIG A   1      -9.254  -2.306 125.685  0.00  0.00    -0.005 C 
ATOM     39  C   LIG A   1      -8.609  -3.479 125.691  0.00  0.00    +0.008 C 
ENDBRANCH  36  38
ENDBRANCH  34  35
ENDBRANCH  14  34
TORSDOF 12
ENDMDL
MODEL 4
REMARK VINA RESULT:      -7.2      1.769      5.109
REMARK  Name = NuBBE_232
REMARK  20 active torsions:
REMARK  status: ('A' for Active; 'I' for Inactive)
REMARK    1  A    between atoms: C_1  and  C_2
REMARK    2  A    between atoms: C_4  and  O_6
REMARK    3  A    between atoms: O_6  and  C_7
REMARK    4  A    between atoms: C_7  and  C_8
REMARK    5  A    between atoms: C_10  and  O_12
REMARK    6  A    between atoms: O_12  and  C_13
REMARK    7  A    between atoms: C_13  and  C_14
REMARK    8  A    between atoms: C_18  and  O_20
REMARK    9  A    between atoms: O_20  and  C_21
REMARK   10  A    between atoms: C_21  and  C_22
REMARK   11  A    between atoms: C_25  and  O_27
REMARK   12  A    between atoms: O_27  and  C_28
REMARK   13  A    between atoms: C_28  and  C_29
REMARK   14  A    between atoms: C_32  and  O_34
REMARK   15  A    between atoms: O_34  and  C_35
REMARK   16  A    between atoms: C_39  and  C_40
REMARK   17  A    between atoms: C_39  and  C_41
REMARK   18  A    between atoms: C_41  and  C_42
REMARK   19  A    between atoms: C_43  and  C_44
REMARK   20  A    between atoms: C_43  and  C_46
REMARK                            x       y       z     vdW  Elec       q    Type
REMARK                         _______ _______ _______ _____ _____    ______ ____
ROOT
ATOM      1  C   LIG A   1      -5.313   0.887 127.704  0.00  0.00    +0.012 C 
ATOM      2  C   LIG A   1      -6.354   1.588 128.605  0.00  0.00    +0.037 C 
ATOM      3  C   LIG A   1      -7.304   2.422 127.719  0.00  0.00    +0.221 C 
ATOM      4  C   LIG A   1      -7.980   3.701 128.268  0.00  0.00    +0.234 C 
ATOM      5  C   LIG A   1      -7.836   4.043 129.795  0.00  0.00    +0.104 C 
ATOM      6  C   LIG A   1      -9.277   4.104 130.299  0.00  0.00    +0.013 C 
ATOM      7  C   LIG A   1      -9.882   5.389 129.794  0.00  0.00    +0.343 C 
ATOM      8  O   LIG A   1      -8.757   6.277 129.648  0.00  0.00    -0.297 OA
ATOM      9  C   LIG A   1      -7.567   5.569 130.070  0.00  0.00    +0.328 C 
ATOM     10  C   LIG A   1      -9.857   3.230 131.127  0.00  0.00    +0.010 C 
ATOM     11  C   LIG A   1      -9.180   2.091 131.778  0.00  0.00    +0.141 C 
ATOM     12  C   LIG A   1      -7.695   1.978 131.459  0.00  0.00    +0.041 C 
ATOM     13  C   LIG A   1      -6.935   3.051 130.620  0.00  0.00    +0.018 C 
ATOM     14  C   LIG A   1      -5.737   2.329 129.841  0.00  0.00    -0.018 C 
ATOM     15  C   LIG A   1      -5.066   1.225 130.748  0.00  0.00    +0.012 C 
ENDROOT
BRANCH  11  16
ATOM     16  O   LIG A   1      -9.405   2.280 133.180  0.00  0.00    -0.376 OA
ATOM     17  C   LIG A   1      -8.740   3.412 133.726  0.00  0.00    +0.194 C 
ENDBRANCH  11  16
BRANCH   3  18
ATOM     18  O   LIG A   1      -8.347   1.555 127.137  0.00  0.00    -0.458 OA
BRANCH  18  19
ATOM     19  C   LIG A   1      -8.067   0.910 125.966  0.00  0.00    +0.304 C 
ATOM     20  C   LIG A   1      -8.461  -0.545 126.045  0.00  0.00    +0.136 C 
ATOM     21  O   LIG A   1      -7.494   1.405 125.003  0.00  0.00    -0.251 OA
ENDBRANCH  18  19
ENDBRANCH   3  18
BRANCH   4  22
ATOM     22  O   LIG A   1      -7.709   4.850 127.387  0.00  0.00    -0.457 OA
BRANCH  22  23
ATOM     23  C   LIG A   1      -7.906   4.650 126.048  0.00  0.00    +0.304 C 
ATOM     24  C   LIG A   1      -6.654   4.862 125.241  0.00  0.00    +0.136 C 
ATOM     25  O   LIG A   1      -8.976   4.382 125.513  0.00  0.00    -0.251 OA
ENDBRANCH  22  23
ENDBRANCH   4  22
BRANCH   7  26
ATOM     26  O   LIG A   1     -10.861   5.927 130.679  0.00  0.00    -0.431 OA
BRANCH  26  27
ATOM     27  C   LIG A   1     -11.986   6.353 130.044  0.00  0.00    +0.306 C 
ATOM     28  C   LIG A   1     -12.789   7.253 130.923  0.00  0.00    +0.136 C 
ATOM     29  O   LIG A   1     -12.343   6.018 128.916  0.00  0.00    -0.251 OA
ENDBRANCH  26  27
ENDBRANCH   7  26
BRANCH   9  30
ATOM     30  O   LIG A   1      -7.413   5.802 131.488  0.00  0.00    -0.434 OA
BRANCH  30  31
ATOM     31  C   LIG A   1      -6.198   6.289 131.880  0.00  0.00    +0.306 C 
ATOM     32  C   LIG A   1      -5.695   7.225 130.799  0.00  0.00    +0.136 C 
ATOM     33  O   LIG A   1      -5.603   6.011 132.891  0.00  0.00    -0.251 OA
ENDBRANCH  30  31
ENDBRANCH   9  30
BRANCH  14  34
ATOM     34  C   LIG A   1      -4.577   3.311 129.443  0.00  0.00    +0.034 C 
BRANCH  34  35
ATOM     35  C   LIG A   1      -3.797   3.913 130.599  0.00  0.00    -0.023 C 
ATOM     36  C   LIG A   1      -2.812   4.829 130.525  0.00  0.00    -0.055 C 
ATOM     37  C   LIG A   1      -2.128   5.368 131.762  0.00  0.00    +0.043 C 
BRANCH  36  38
ATOM     38  C   LIG A   1      -2.296   5.337 129.269  0.00  0.00    -0.005 C 
ATOM     39  C   LIG A   1      -2.549   6.592 128.874  0.00  0.00    +0.008 C 
ENDBRANCH  36  38
ENDBRANCH  34  35
ENDBRANCH  14  34
TORSDOF 12
ENDMDL
MODEL 5
REMARK VINA RESULT:      -7.1      2.196      6.444
REMARK  Name = NuBBE_232
REMARK  20 active torsions:
REMARK  status: ('A' for Active; 'I' for Inactive)
REMARK    1  A    between atoms: C_1  and  C_2
REMARK    2  A    between atoms: C_4  and  O_6
REMARK    3  A    between atoms: O_6  and  C_7
REMARK    4  A    between atoms: C_7  and  C_8
REMARK    5  A    between atoms: C_10  and  O_12
REMARK    6  A    between atoms: O_12  and  C_13
REMARK    7  A    between atoms: C_13  and  C_14
REMARK    8  A    between atoms: C_18  and  O_20
REMARK    9  A    between atoms: O_20  and  C_21
REMARK   10  A    between atoms: C_21  and  C_22
REMARK   11  A    between atoms: C_25  and  O_27
REMARK   12  A    between atoms: O_27  and  C_28
REMARK   13  A    between atoms: C_28  and  C_29
REMARK   14  A    between atoms: C_32  and  O_34
REMARK   15  A    between atoms: O_34  and  C_35
REMARK   16  A    between atoms: C_39  and  C_40
REMARK   17  A    between atoms: C_39  and  C_41
REMARK   18  A    between atoms: C_41  and  C_42
REMARK   19  A    between atoms: C_43  and  C_44
REMARK   20  A    between atoms: C_43  and  C_46
REMARK                            x       y       z     vdW  Elec       q    Type
REMARK                         _______ _______ _______ _____ _____    ______ ____
ROOT
ATOM      1  C   LIG A   1      -6.296   5.977 135.155  0.00  0.00    +0.012 C 
ATOM      2  C   LIG A   1      -6.027   4.953 134.030  0.00  0.00    +0.037 C 
ATOM      3  C   LIG A   1      -4.743   5.364 133.276  0.00  0.00    +0.221 C 
ATOM      4  C   LIG A   1      -4.556   5.009 131.781  0.00  0.00    +0.234 C 
ATOM      5  C   LIG A   1      -5.603   4.067 131.085  0.00  0.00    +0.104 C 
ATOM      6  C   LIG A   1      -4.767   2.893 130.579  0.00  0.00    +0.013 C 
ATOM      7  C   LIG A   1      -3.995   3.369 129.375  0.00  0.00    +0.343 C 
ATOM      8  O   LIG A   1      -4.810   4.423 128.825  0.00  0.00    -0.297 OA
ATOM      9  C   LIG A   1      -6.002   4.539 129.638  0.00  0.00    +0.328 C 
ATOM     10  C   LIG A   1      -4.799   1.643 131.052  0.00  0.00    +0.010 C 
ATOM     11  C   LIG A   1      -5.719   1.149 132.095  0.00  0.00    +0.141 C 
ATOM     12  C   LIG A   1      -6.702   2.192 132.611  0.00  0.00    +0.041 C 
ATOM     13  C   LIG A   1      -6.809   3.620 131.993  0.00  0.00    +0.018 C 
ATOM     14  C   LIG A   1      -7.277   4.635 133.139  0.00  0.00    -0.018 C 
ATOM     15  C   LIG A   1      -8.348   3.957 134.081  0.00  0.00    +0.012 C 
ENDROOT
BRANCH  11  16
ATOM     16  O   LIG A   1      -6.396   0.039 131.495  0.00  0.00    -0.376 OA
ATOM     17  C   LIG A   1      -7.187   0.383 130.366  0.00  0.00    +0.194 C 
ENDBRANCH  11  16
BRANCH   3  18
ATOM     18  O   LIG A   1      -3.551   4.908 134.017  0.00  0.00    -0.458 OA
BRANCH  18  19
ATOM     19  C   LIG A   1      -3.077   3.654 133.762  0.00  0.00    +0.304 C 
ATOM     20  C   LIG A   1      -3.682   2.646 134.709  0.00  0.00    +0.136 C 
ATOM     21  O   LIG A   1      -2.213   3.376 132.939  0.00  0.00    -0.251 OA
ENDBRANCH  18  19
ENDBRANCH   3  18
BRANCH   4  22
ATOM     22  O   LIG A   1      -4.249   6.217 130.996  0.00  0.00    -0.457 OA
BRANCH  22  23
ATOM     23  C   LIG A   1      -2.976   6.707 131.105  0.00  0.00    +0.304 C 
ATOM     24  C   LIG A   1      -2.934   8.079 131.719  0.00  0.00    +0.136 C 
ATOM     25  O   LIG A   1      -1.958   6.151 130.709  0.00  0.00    -0.251 OA
ENDBRANCH  22  23
ENDBRANCH   4  22
BRANCH   7  26
ATOM     26  O   LIG A   1      -3.763   2.337 128.420  0.00  0.00    -0.431 OA
BRANCH  26  27
ATOM     27  C   LIG A   1      -3.461   2.807 127.180  0.00  0.00    +0.306 C 
ATOM     28  C   LIG A   1      -2.039   3.251 127.107  0.00  0.00    +0.136 C 
ATOM     29  O   LIG A   1      -4.249   2.909 126.241  0.00  0.00    -0.251 OA
ENDBRANCH  26  27
ENDBRANCH   7  26
BRANCH   9  30
ATOM     30  O   LIG A   1      -6.989   3.647 129.074  0.00  0.00    -0.434 OA
BRANCH  30  31
ATOM     31  C   LIG A   1      -8.202   4.209 128.788  0.00  0.00    +0.306 C 
ATOM     32  C   LIG A   1      -9.254   3.511 129.625  0.00  0.00    +0.136 C 
ATOM     33  O   LIG A   1      -8.417   5.088 127.990  0.00  0.00    -0.251 OA
ENDBRANCH  30  31
ENDBRANCH   9  30
BRANCH  14  34
ATOM     34  C   LIG A   1      -7.967   5.929 132.577  0.00  0.00    +0.034 C 
BRANCH  34  35
ATOM     35  C   LIG A   1      -9.484   5.892 132.511  0.00  0.00    -0.023 C 
ATOM     36  C   LIG A   1     -10.268   6.405 131.544  0.00  0.00    -0.055 C 
ATOM     37  C   LIG A   1     -11.775   6.278 131.586  0.00  0.00    +0.043 C 
BRANCH  36  38
ATOM     38  C   LIG A   1      -9.748   7.153 130.417  0.00  0.00    -0.005 C 
ATOM     39  C   LIG A   1     -10.546   7.537 129.412  0.00  0.00    +0.008 C 
ENDBRANCH  36  38
ENDBRANCH  34  35
ENDBRANCH  14  34
TORSDOF 12
ENDMDL
MODEL 6
REMARK VINA RESULT:      -7.0      2.042      3.950
REMARK  Name = NuBBE_232
REMARK  20 active torsions:
REMARK  status: ('A' for Active; 'I' for Inactive)
REMARK    1  A    between atoms: C_1  and  C_2
REMARK    2  A    between atoms: C_4  and  O_6
REMARK    3  A    between atoms: O_6  and  C_7
REMARK    4  A    between atoms: C_7  and  C_8
REMARK    5  A    between atoms: C_10  and  O_12
REMARK    6  A    between atoms: O_12  and  C_13
REMARK    7  A    between atoms: C_13  and  C_14
REMARK    8  A    between atoms: C_18  and  O_20
REMARK    9  A    between atoms: O_20  and  C_21
REMARK   10  A    between atoms: C_21  and  C_22
REMARK   11  A    between atoms: C_25  and  O_27
REMARK   12  A    between atoms: O_27  and  C_28
REMARK   13  A    between atoms: C_28  and  C_29
REMARK   14  A    between atoms: C_32  and  O_34
REMARK   15  A    between atoms: O_34  and  C_35
REMARK   16  A    between atoms: C_39  and  C_40
REMARK   17  A    between atoms: C_39  and  C_41
REMARK   18  A    between atoms: C_41  and  C_42
REMARK   19  A    between atoms: C_43  and  C_44
REMARK   20  A    between atoms: C_43  and  C_46
REMARK                            x       y       z     vdW  Elec       q    Type
REMARK                         _______ _______ _______ _____ _____    ______ ____
ROOT
ATOM      1  C   LIG A   1      -5.392   3.195 134.847  0.00  0.00    +0.012 C 
ATOM      2  C   LIG A   1      -6.052   3.626 133.519  0.00  0.00    +0.037 C 
ATOM      3  C   LIG A   1      -6.579   2.369 132.791  0.00  0.00    +0.221 C 
ATOM      4  C   LIG A   1      -6.670   2.329 131.246  0.00  0.00    +0.234 C 
ATOM      5  C   LIG A   1      -6.395   3.644 130.433  0.00  0.00    +0.104 C 
ATOM      6  C   LIG A   1      -7.681   3.868 129.642  0.00  0.00    +0.013 C 
ATOM      7  C   LIG A   1      -7.709   2.861 128.521  0.00  0.00    +0.343 C 
ATOM      8  O   LIG A   1      -6.319   2.590 128.255  0.00  0.00    -0.297 OA
ATOM      9  C   LIG A   1      -5.523   3.409 129.144  0.00  0.00    +0.328 C 
ATOM     10  C   LIG A   1      -8.567   4.849 129.844  0.00  0.00    +0.010 C 
ATOM     11  C   LIG A   1      -8.414   5.951 130.814  0.00  0.00    +0.141 C 
ATOM     12  C   LIG A   1      -7.107   5.923 131.595  0.00  0.00    +0.041 C 
ATOM     13  C   LIG A   1      -5.976   4.891 131.298  0.00  0.00    +0.018 C 
ATOM     14  C   LIG A   1      -5.181   4.605 132.658  0.00  0.00    -0.018 C 
ATOM     15  C   LIG A   1      -5.019   5.931 133.499  0.00  0.00    +0.012 C 
ENDROOT
BRANCH  11  16
ATOM     16  O   LIG A   1      -8.537   7.148 130.036  0.00  0.00    -0.376 OA
ATOM     17  C   LIG A   1      -9.873   7.466 129.671  0.00  0.00    +0.194 C 
ENDBRANCH  11  16
BRANCH   3  18
ATOM     18  O   LIG A   1      -7.887   1.973 133.348  0.00  0.00    -0.458 OA
BRANCH  18  19
ATOM     19  C   LIG A   1      -9.001   2.619 132.893  0.00  0.00    +0.304 C 
ATOM     20  C   LIG A   1      -9.293   3.842 133.726  0.00  0.00    +0.136 C 
ATOM     21  O   LIG A   1      -9.728   2.228 131.987  0.00  0.00    -0.251 OA
ENDBRANCH  18  19
ENDBRANCH   3  18
BRANCH   4  22
ATOM     22  O   LIG A   1      -5.954   1.156 130.716  0.00  0.00    -0.457 OA
BRANCH  22  23
ATOM     23  C   LIG A   1      -6.509  -0.067 130.981  0.00  0.00    +0.304 C 
ATOM     24  C   LIG A   1      -7.866  -0.234 130.354  0.00  0.00    +0.136 C 
ATOM     25  O   LIG A   1      -6.019  -0.938 131.690  0.00  0.00    -0.251 OA
ENDBRANCH  22  23
ENDBRANCH   4  22
BRANCH   7  26
ATOM     26  O   LIG A   1      -8.379   3.342 127.359  0.00  0.00    -0.431 OA
BRANCH  26  27
ATOM     27  C   LIG A   1      -8.259   2.515 126.286  0.00  0.00    +0.306 C 
ATOM     28  C   LIG A   1      -8.944   1.213 126.534  0.00  0.00    +0.136 C 
ATOM     29  O   LIG A   1      -7.634   2.762 125.256  0.00  0.00    -0.251 OA
ENDBRANCH  26  27
ENDBRANCH   7  26
BRANCH   9  30
ATOM     30  O   LIG A   1      -5.283   4.662 128.466  0.00  0.00    -0.434 OA
BRANCH  30  31
ATOM     31  C   LIG A   1      -4.688   4.568 127.239  0.00  0.00    +0.306 C 
ATOM     32  C   LIG A   1      -3.276   4.056 127.438  0.00  0.00    +0.136 C 
ATOM     33  O   LIG A   1      -5.177   4.865 126.177  0.00  0.00    -0.251 OA
ENDBRANCH  30  31
ENDBRANCH   9  30
BRANCH  14  34
ATOM     34  C   LIG A   1      -3.722   4.073 132.422  0.00  0.00    +0.034 C 
BRANCH  34  35
ATOM     35  C   LIG A   1      -2.604   5.047 132.751  0.00  0.00    -0.023 C 
ATOM     36  C   LIG A   1      -1.981   5.886 131.901  0.00  0.00    -0.055 C 
ATOM     37  C   LIG A   1      -0.892   6.828 132.365  0.00  0.00    +0.043 C 
BRANCH  36  38
ATOM     38  C   LIG A   1      -2.262   5.926 130.480  0.00  0.00    -0.005 C 
ATOM     39  C   LIG A   1      -3.048   6.876 129.957  0.00  0.00    +0.008 C 
ENDBRANCH  36  38
ENDBRANCH  34  35
ENDBRANCH  14  34
TORSDOF 12
ENDMDL
MODEL 7
REMARK VINA RESULT:      -7.0      2.653      4.493
REMARK  Name = NuBBE_232
REMARK  20 active torsions:
REMARK  status: ('A' for Active; 'I' for Inactive)
REMARK    1  A    between atoms: C_1  and  C_2
REMARK    2  A    between atoms: C_4  and  O_6
REMARK    3  A    between atoms: O_6  and  C_7
REMARK    4  A    between atoms: C_7  and  C_8
REMARK    5  A    between atoms: C_10  and  O_12
REMARK    6  A    between atoms: O_12  and  C_13
REMARK    7  A    between atoms: C_13  and  C_14
REMARK    8  A    between atoms: C_18  and  O_20
REMARK    9  A    between atoms: O_20  and  C_21
REMARK   10  A    between atoms: C_21  and  C_22
REMARK   11  A    between atoms: C_25  and  O_27
REMARK   12  A    between atoms: O_27  and  C_28
REMARK   13  A    between atoms: C_28  and  C_29
REMARK   14  A    between atoms: C_32  and  O_34
REMARK   15  A    between atoms: O_34  and  C_35
REMARK   16  A    between atoms: C_39  and  C_40
REMARK   17  A    between atoms: C_39  and  C_41
REMARK   18  A    between atoms: C_41  and  C_42
REMARK   19  A    between atoms: C_43  and  C_44
REMARK   20  A    between atoms: C_43  and  C_46
REMARK                            x       y       z     vdW  Elec       q    Type
REMARK                         _______ _______ _______ _____ _____    ______ ____
ROOT
ATOM      1  C   LIG A   1      -4.016   1.300 132.291  0.00  0.00    +0.012 C 
ATOM      2  C   LIG A   1      -5.209   1.634 131.369  0.00  0.00    +0.037 C 
ATOM      3  C   LIG A   1      -5.567   0.381 130.539  0.00  0.00    +0.221 C 
ATOM      4  C   LIG A   1      -6.197   0.518 129.131  0.00  0.00    +0.234 C 
ATOM      5  C   LIG A   1      -6.639   1.939 128.630  0.00  0.00    +0.104 C 
ATOM      6  C   LIG A   1      -8.130   1.783 128.337  0.00  0.00    +0.013 C 
ATOM      7  C   LIG A   1      -8.263   0.995 127.058  0.00  0.00    +0.343 C 
ATOM      8  O   LIG A   1      -7.051   1.287 126.335  0.00  0.00    -0.297 OA
ATOM      9  C   LIG A   1      -6.268   2.213 127.125  0.00  0.00    +0.328 C 
ATOM     10  C   LIG A   1      -9.129   2.336 129.030  0.00  0.00    +0.010 C 
ATOM     11  C   LIG A   1      -8.968   3.278 130.156  0.00  0.00    +0.141 C 
ATOM     12  C   LIG A   1      -7.522   3.624 130.483  0.00  0.00    +0.041 C 
ATOM     13  C   LIG A   1      -6.325   3.125 129.616  0.00  0.00    +0.018 C 
ATOM     14  C   LIG A   1      -5.044   2.969 130.564  0.00  0.00    -0.018 C 
ATOM     15  C   LIG A   1      -4.988   4.137 131.624  0.00  0.00    +0.012 C 
ENDROOT
BRANCH  11  16
ATOM     16  O   LIG A   1      -9.715   4.440 129.775  0.00  0.00    -0.376 OA
ATOM     17  C   LIG A   1     -10.889   4.652 130.547  0.00  0.00    +0.194 C 
ENDBRANCH  11  16
BRANCH   3  18
ATOM     18  O   LIG A   1      -6.402  -0.535 131.338  0.00  0.00    -0.458 OA
BRANCH  18  19
ATOM     19  C   LIG A   1      -7.745  -0.559 131.093  0.00  0.00    +0.304 C 
ATOM     20  C   LIG A   1      -8.488   0.311 132.077  0.00  0.00    +0.136 C 
ATOM     21  O   LIG A   1      -8.300  -1.253 130.249  0.00  0.00    -0.251 OA
ENDBRANCH  18  19
ENDBRANCH   3  18
BRANCH   4  22
ATOM     22  O   LIG A   1      -5.409  -0.231 128.137  0.00  0.00    -0.457 OA
BRANCH  22  23
ATOM     23  C   LIG A   1      -5.704  -1.561 128.003  0.00  0.00    +0.304 C 
ATOM     24  C   LIG A   1      -4.675  -2.448 128.649  0.00  0.00    +0.136 C 
ATOM     25  O   LIG A   1      -6.656  -2.026 127.387  0.00  0.00    -0.251 OA
ENDBRANCH  22  23
ENDBRANCH   4  22
BRANCH   7  26
ATOM     26  O   LIG A   1      -9.419   1.349 126.306  0.00  0.00    -0.431 OA
BRANCH  26  27
ATOM     27  C   LIG A   1      -9.639   0.535 125.238  0.00  0.00    +0.306 C 
ATOM     28  C   LIG A   1     -10.083   1.319 124.049  0.00  0.00    +0.136 C 
ATOM     29  O   LIG A   1      -9.540  -0.691 125.239  0.00  0.00    -0.251 OA
ENDBRANCH  26  27
ENDBRANCH   7  26
BRANCH   9  30
ATOM     30  O   LIG A   1      -6.674   3.546 126.744  0.00  0.00    -0.434 OA
BRANCH  30  31
ATOM     31  C   LIG A   1      -6.789   3.770 125.400  0.00  0.00    +0.306 C 
ATOM     32  C   LIG A   1      -5.394   3.849 124.815  0.00  0.00    +0.136 C 
ATOM     33  O   LIG A   1      -7.814   3.910 124.779  0.00  0.00    -0.251 OA
ENDBRANCH  30  31
ENDBRANCH   9  30
BRANCH  14  34
ATOM     34  C   LIG A   1      -3.683   3.043 129.782  0.00  0.00    +0.034 C 
BRANCH  34  35
ATOM     35  C   LIG A   1      -3.147   4.439 129.523  0.00  0.00    -0.023 C 
ATOM     36  C   LIG A   1      -2.768   4.958 128.338  0.00  0.00    -0.055 C 
ATOM     37  C   LIG A   1      -2.271   6.380 128.211  0.00  0.00    +0.043 C 
BRANCH  36  38
ATOM     38  C   LIG A   1      -2.760   4.193 127.106  0.00  0.00    -0.005 C 
ATOM     39  C   LIG A   1      -1.827   3.261 126.876  0.00  0.00    +0.008 C 
ENDBRANCH  36  38
ENDBRANCH  34  35
ENDBRANCH  14  34
TORSDOF 12
ENDMDL
MODEL 8
REMARK VINA RESULT:      -6.9      2.880      6.398
REMARK  Name = NuBBE_232
REMARK  20 active torsions:
REMARK  status: ('A' for Active; 'I' for Inactive)
REMARK    1  A    between atoms: C_1  and  C_2
REMARK    2  A    between atoms: C_4  and  O_6
REMARK    3  A    between atoms: O_6  and  C_7
REMARK    4  A    between atoms: C_7  and  C_8
REMARK    5  A    between atoms: C_10  and  O_12
REMARK    6  A    between atoms: O_12  and  C_13
REMARK    7  A    between atoms: C_13  and  C_14
REMARK    8  A    between atoms: C_18  and  O_20
REMARK    9  A    between atoms: O_20  and  C_21
REMARK   10  A    between atoms: C_21  and  C_22
REMARK   11  A    between atoms: C_25  and  O_27
REMARK   12  A    between atoms: O_27  and  C_28
REMARK   13  A    between atoms: C_28  and  C_29
REMARK   14  A    between atoms: C_32  and  O_34
REMARK   15  A    between atoms: O_34  and  C_35
REMARK   16  A    between atoms: C_39  and  C_40
REMARK   17  A    between atoms: C_39  and  C_41
REMARK   18  A    between atoms: C_41  and  C_42
REMARK   19  A    between atoms: C_43  and  C_44
REMARK   20  A    between atoms: C_43  and  C_46
REMARK                            x       y       z     vdW  Elec       q    Type
REMARK                         _______ _______ _______ _____ _____    ______ ____
ROOT
ATOM      1  C   LIG A   1      -5.671  -0.119 125.320  0.00  0.00    +0.012 C 
ATOM      2  C   LIG A   1      -6.101   0.843 126.450  0.00  0.00    +0.037 C 
ATOM      3  C   LIG A   1      -5.068   1.985 126.555  0.00  0.00    +0.221 C 
ATOM      4  C   LIG A   1      -4.806   2.694 127.907  0.00  0.00    +0.234 C 
ATOM      5  C   LIG A   1      -5.734   2.364 129.131  0.00  0.00    +0.104 C 
ATOM      6  C   LIG A   1      -6.328   3.716 129.522  0.00  0.00    +0.013 C 
ATOM      7  C   LIG A   1      -5.246   4.507 130.212  0.00  0.00    +0.343 C 
ATOM      8  O   LIG A   1      -4.388   3.504 130.790  0.00  0.00    -0.297 OA
ATOM      9  C   LIG A   1      -4.946   2.204 130.484  0.00  0.00    +0.328 C 
ATOM     10  C   LIG A   1      -7.604   4.085 129.374  0.00  0.00    +0.010 C 
ATOM     11  C   LIG A   1      -8.693   3.216 128.889  0.00  0.00    +0.141 C 
ATOM     12  C   LIG A   1      -8.266   1.789 128.574  0.00  0.00    +0.041 C 
ATOM     13  C   LIG A   1      -6.827   1.263 128.865  0.00  0.00    +0.018 C 
ATOM     14  C   LIG A   1      -6.476   0.127 127.793  0.00  0.00    -0.018 C 
ATOM     15  C   LIG A   1      -7.741  -0.770 127.496  0.00  0.00    +0.012 C 
ENDROOT
BRANCH  11  16
ATOM     16  O   LIG A   1      -9.684   3.253 129.923  0.00  0.00    -0.376 OA
ATOM     17  C   LIG A   1     -10.031   4.565 130.347  0.00  0.00    +0.194 C 
ENDBRANCH  11  16
BRANCH   3  18
ATOM     18  O   LIG A   1      -5.343   3.014 125.534  0.00  0.00    -0.458 OA
BRANCH  18  19
ATOM     19  C   LIG A   1      -6.096   4.094 125.896  0.00  0.00    +0.304 C 
ATOM     20  C   LIG A   1      -7.547   3.883 125.538  0.00  0.00    +0.136 C 
ATOM     21  O   LIG A   1      -5.661   5.136 126.370  0.00  0.00    -0.251 OA
ENDBRANCH  18  19
ENDBRANCH   3  18
BRANCH   4  22
ATOM     22  O   LIG A   1      -3.372   2.662 128.239  0.00  0.00    -0.457 OA
BRANCH  22  23
ATOM     23  C   LIG A   1      -2.583   3.595 127.621  0.00  0.00    +0.304 C 
ATOM     24  C   LIG A   1      -1.591   2.977 126.673  0.00  0.00    +0.136 C 
ATOM     25  O   LIG A   1      -2.607   4.803 127.826  0.00  0.00    -0.251 OA
ENDBRANCH  22  23
ENDBRANCH   4  22
BRANCH   7  26
ATOM     26  O   LIG A   1      -5.754   5.394 131.204  0.00  0.00    -0.431 OA
BRANCH  26  27
ATOM     27  C   LIG A   1      -5.577   6.707 130.894  0.00  0.00    +0.306 C 
ATOM     28  C   LIG A   1      -4.168   7.131 131.142  0.00  0.00    +0.136 C 
ATOM     29  O   LIG A   1      -6.455   7.477 130.507  0.00  0.00    -0.251 OA
ENDBRANCH  26  27
ENDBRANCH   7  26
BRANCH   9  30
ATOM     30  O   LIG A   1      -5.856   1.870 131.556  0.00  0.00    -0.434 OA
BRANCH  30  31
ATOM     31  C   LIG A   1      -5.688   0.633 132.113  0.00  0.00    +0.306 C 
ATOM     32  C   LIG A   1      -4.302   0.139 131.752  0.00  0.00    +0.136 C 
ATOM     33  O   LIG A   1      -6.501   0.016 132.756  0.00  0.00    -0.251 OA
ENDBRANCH  30  31
ENDBRANCH   9  30
BRANCH  14  34
ATOM     34  C   LIG A   1      -5.361  -0.865 128.284  0.00  0.00    +0.034 C 
BRANCH  34  35
ATOM     35  C   LIG A   1      -5.856  -2.113 128.994  0.00  0.00    -0.023 C 
ATOM     36  C   LIG A   1      -5.109  -3.032 129.638  0.00  0.00    -0.055 C 
ATOM     37  C   LIG A   1      -5.732  -4.224 130.329  0.00  0.00    +0.043 C 
BRANCH  36  38
ATOM     38  C   LIG A   1      -3.661  -2.983 129.685  0.00  0.00    -0.005 C 
ATOM     39  C   LIG A   1      -2.917  -3.848 128.984  0.00  0.00    +0.008 C 
ENDBRANCH  36  38
ENDBRANCH  34  35
ENDBRANCH  14  34
TORSDOF 12
ENDMDL
MODEL 9
REMARK VINA RESULT:      -6.7      2.181      5.000
REMARK  Name = NuBBE_232
REMARK  20 active torsions:
REMARK  status: ('A' for Active; 'I' for Inactive)
REMARK    1  A    between atoms: C_1  and  C_2
REMARK    2  A    between atoms: C_4  and  O_6
REMARK    3  A    between atoms: O_6  and  C_7
REMARK    4  A    between atoms: C_7  and  C_8
REMARK    5  A    between atoms: C_10  and  O_12
REMARK    6  A    between atoms: O_12  and  C_13
REMARK    7  A    between atoms: C_13  and  C_14
REMARK    8  A    between atoms: C_18  and  O_20
REMARK    9  A    between atoms: O_20  and  C_21
REMARK   10  A    between atoms: C_21  and  C_22
REMARK   11  A    between atoms: C_25  and  O_27
REMARK   12  A    between atoms: O_27  and  C_28
REMARK   13  A    between atoms: C_28  and  C_29
REMARK   14  A    between atoms: C_32  and  O_34
REMARK   15  A    between atoms: O_34  and  C_35
REMARK   16  A    between atoms: C_39  and  C_40
REMARK   17  A    between atoms: C_39  and  C_41
REMARK   18  A    between atoms: C_41  and  C_42
REMARK   19  A    between atoms: C_43  and  C_44
REMARK   20  A    between atoms: C_43  and  C_46
REMARK                            x       y       z     vdW  Elec       q    Type
REMARK                         _______ _______ _______ _____ _____    ______ ____
ROOT
ATOM      1  C   LIG A   1     -10.122   1.554 131.862  0.00  0.00    +0.012 C 
ATOM      2  C   LIG A   1      -8.726   2.212 131.787  0.00  0.00    +0.037 C 
ATOM      3  C   LIG A   1      -8.892   3.693 131.385  0.00  0.00    +0.221 C 
ATOM      4  C   LIG A   1      -7.780   4.430 130.599  0.00  0.00    +0.234 C 
ATOM      5  C   LIG A   1      -6.403   3.709 130.373  0.00  0.00    +0.104 C 
ATOM      6  C   LIG A   1      -5.382   4.651 131.008  0.00  0.00    +0.013 C 
ATOM      7  C   LIG A   1      -5.219   5.834 130.087  0.00  0.00    +0.343 C 
ATOM      8  O   LIG A   1      -5.531   5.311 128.781  0.00  0.00    -0.297 OA
ATOM      9  C   LIG A   1      -5.830   3.901 128.921  0.00  0.00    +0.328 C 
ATOM     10  C   LIG A   1      -4.683   4.417 132.122  0.00  0.00    +0.010 C 
ATOM     11  C   LIG A   1      -4.704   3.159 132.894  0.00  0.00    +0.141 C 
ATOM     12  C   LIG A   1      -5.595   2.074 132.304  0.00  0.00    +0.041 C 
ATOM     13  C   LIG A   1      -6.317   2.240 130.931  0.00  0.00    +0.018 C 
ATOM     14  C   LIG A   1      -7.673   1.389 130.967  0.00  0.00    -0.018 C 
ATOM     15  C   LIG A   1      -7.458   0.027 131.735  0.00  0.00    +0.012 C 
ENDROOT
BRANCH  11  16
ATOM     16  O   LIG A   1      -3.335   2.741 132.957  0.00  0.00    -0.376 OA
ATOM     17  C   LIG A   1      -3.159   1.397 133.384  0.00  0.00    +0.194 C 
ENDBRANCH  11  16
BRANCH   3  18
ATOM     18  O   LIG A   1      -9.244   4.503 132.568  0.00  0.00    -0.458 OA
BRANCH  18  19
ATOM     19  C   LIG A   1      -8.229   4.949 133.365  0.00  0.00    +0.304 C 
ATOM     20  C   LIG A   1      -7.970   3.986 134.497  0.00  0.00    +0.136 C 
ATOM     21  O   LIG A   1      -7.653   6.024 133.246  0.00  0.00    -0.251 OA
ENDBRANCH  18  19
ENDBRANCH   3  18
BRANCH   4  22
ATOM     22  O   LIG A   1      -8.327   5.036 129.374  0.00  0.00    -0.457 OA
BRANCH  22  23
ATOM     23  C   LIG A   1      -9.389   5.885 129.536  0.00  0.00    +0.304 C 
ATOM     24  C   LIG A   1      -9.017   7.142 130.274  0.00  0.00    +0.136 C 
ATOM     25  O   LIG A   1     -10.543   5.665 129.186  0.00  0.00    -0.251 OA
ENDBRANCH  22  23
ENDBRANCH   4  22
BRANCH   7  26
ATOM     26  O   LIG A   1      -3.909   6.392 130.127  0.00  0.00    -0.431 OA
BRANCH  26  27
ATOM     27  C   LIG A   1      -3.900   7.729 130.376  0.00  0.00    +0.306 C 
ATOM     28  C   LIG A   1      -3.106   8.042 131.600  0.00  0.00    +0.136 C 
ATOM     29  O   LIG A   1      -4.499   8.584 129.724  0.00  0.00    -0.251 OA
ENDBRANCH  26  27
ENDBRANCH   7  26
BRANCH   9  30
ATOM     30  O   LIG A   1      -4.582   3.186 128.776  0.00  0.00    -0.434 OA
BRANCH  30  31
ATOM     31  C   LIG A   1      -3.967   3.307 127.561  0.00  0.00    +0.306 C 
ATOM     32  C   LIG A   1      -4.776   2.527 126.545  0.00  0.00    +0.136 C 
ATOM     33  O   LIG A   1      -2.943   3.901 127.328  0.00  0.00    -0.251 OA
ENDBRANCH  30  31
ENDBRANCH   9  30
BRANCH  14  34
ATOM     34  C   LIG A   1      -8.192   0.992 129.539  0.00  0.00    +0.034 C 
BRANCH  34  35
ATOM     35  C   LIG A   1      -7.141   0.460 128.580  0.00  0.00    -0.023 C 
ATOM     36  C   LIG A   1      -7.003  -0.808 128.146  0.00  0.00    -0.055 C 
ATOM     37  C   LIG A   1      -5.921  -1.203 127.165  0.00  0.00    +0.043 C 
BRANCH  36  38
ATOM     38  C   LIG A   1      -7.839  -1.898 128.608  0.00  0.00    -0.005 C 
ATOM     39  C   LIG A   1      -7.328  -2.906 129.326  0.00  0.00    +0.008 C 
ENDBRANCH  36  38
ENDBRANCH  34  35
ENDBRANCH  14  34
TORSDOF 12
ENDMDL
