MODEL 1
REMARK VINA RESULT:      -6.9      0.000      0.000
REMARK  Name = NuBBE_16
REMARK  14 active torsions:
REMARK  status: ('A' for Active; 'I' for Inactive)
REMARK    1  A    between atoms: O_1  and  C_2
REMARK    2  A    between atoms: C_3  and  C_21
REMARK    3  A    between atoms: C_5  and  C_8
REMARK    4  A    between atoms: C_8  and  C_9
REMARK    5  A    between atoms: C_9  and  C_10
REMARK    6  A    between atoms: C_10  and  C_11
REMARK    7  A    between atoms: C_11  and  C_12
REMARK    8  A    between atoms: C_12  and  C_13
REMARK    9  A    between atoms: C_13  and  C_14
REMARK   10  A    between atoms: C_14  and  C_15
REMARK   11  A    between atoms: C_15  and  C_16
REMARK   12  A    between atoms: C_16  and  C_17
REMARK   13  A    between atoms: C_17  and  C_18
REMARK   14  A    between atoms: C_18  and  C_19
REMARK                            x       y       z     vdW  Elec       q    Type
REMARK                         _______ _______ _______ _____ _____    ______ ____
ROOT
ATOM      1  C   LIG A   1      -8.995   2.267 122.688  0.00  0.00    +0.006 C 
ENDROOT
BRANCH   1   2
ATOM      2  C   LIG A   1      -7.624   2.614 123.244  0.00  0.00    +0.055 C 
BRANCH   2   6
ATOM      3  C   LIG A   1      -5.653   4.790 120.170  0.00  0.00    +0.138 A 
ATOM      4  C   LIG A   1      -6.941   4.297 120.029  0.00  0.00    +0.080 A 
ATOM      5  N   LIG A   1      -7.542   3.630 121.030  0.00  0.00    -0.253 NA
ATOM      6  C   LIG A   1      -6.886   3.425 122.200  0.00  0.00    +0.042 A 
ATOM      7  C   LIG A   1      -5.605   3.899 122.414  0.00  0.00    +0.027 A 
ATOM      8  C   LIG A   1      -4.984   4.593 121.377  0.00  0.00    +0.049 A 
ATOM      9  C   LIG A   1      -7.764   4.423 118.785  0.00  0.00    +0.069 C 
BRANCH   3  10
ATOM     10  O   LIG A   1      -4.983   5.455 119.186  0.00  0.00    -0.505 OA
ATOM     11  H   LIG A   1      -5.065   6.411 119.340  0.00  0.00    +0.292 HD
ENDBRANCH   3  10
ENDBRANCH   2   6
ENDBRANCH   1   2
BRANCH   1  12
ATOM     12  C   LIG A   1      -9.782   1.207 123.427  0.00  0.00    +0.000 C 
BRANCH  12  13
ATOM     13  C   LIG A   1     -10.079  -0.031 122.569  0.00  0.00    +0.000 C 
BRANCH  13  14
ATOM     14  C   LIG A   1      -9.033  -1.153 122.595  0.00  0.00    +0.007 C 
BRANCH  14  15
ATOM     15  C   LIG A   1      -9.384  -2.435 123.347  0.00  0.00    +0.074 C 
BRANCH  15  16
ATOM     16  C   LIG A   1      -9.030  -2.421 124.834  0.00  0.00    +0.133 C 
ATOM     17  O   LIG A   1      -9.711  -1.787 125.699  0.00  0.00    -0.297 OA
BRANCH  16  18
ATOM     18  C   LIG A   1      -7.766  -3.155 125.263  0.00  0.00    +0.074 C 
BRANCH  18  19
ATOM     19  C   LIG A   1      -6.813  -3.624 124.155  0.00  0.00    +0.007 C 
BRANCH  19  20
ATOM     20  C   LIG A   1      -5.660  -2.687 123.747  0.00  0.00    +0.000 C 
BRANCH  20  21
ATOM     21  C   LIG A   1      -4.322  -3.377 123.494  0.00  0.00    -0.003 C 
ATOM     22  C   LIG A   1      -4.357  -4.894 123.537  0.00  0.00    +0.004 C 
ENDBRANCH  20  21
ENDBRANCH  19  20
ENDBRANCH  18  19
ENDBRANCH  16  18
ENDBRANCH  15  16
ENDBRANCH  14  15
ENDBRANCH  13  14
ENDBRANCH  12  13
ENDBRANCH   1  12
TORSDOF 12
ENDMDL
MODEL 2
REMARK VINA RESULT:      -6.6      2.045      3.075
REMARK  Name = NuBBE_16
REMARK  14 active torsions:
REMARK  status: ('A' for Active; 'I' for Inactive)
REMARK    1  A    between atoms: O_1  and  C_2
REMARK    2  A    between atoms: C_3  and  C_21
REMARK    3  A    between atoms: C_5  and  C_8
REMARK    4  A    between atoms: C_8  and  C_9
REMARK    5  A    between atoms: C_9  and  C_10
REMARK    6  A    between atoms: C_10  and  C_11
REMARK    7  A    between atoms: C_11  and  C_12
REMARK    8  A    between atoms: C_12  and  C_13
REMARK    9  A    between atoms: C_13  and  C_14
REMARK   10  A    between atoms: C_14  and  C_15
REMARK   11  A    between atoms: C_15  and  C_16
REMARK   12  A    between atoms: C_16  and  C_17
REMARK   13  A    between atoms: C_17  and  C_18
REMARK   14  A    between atoms: C_18  and  C_19
REMARK                            x       y       z     vdW  Elec       q    Type
REMARK                         _______ _______ _______ _____ _____    ______ ____
ROOT
ATOM      1  C   LIG A   1      -8.663   0.932 123.330  0.00  0.00    +0.006 C 
ENDROOT
BRANCH   1   2
ATOM      2  C   LIG A   1      -8.511   2.419 123.610  0.00  0.00    +0.055 C 
BRANCH   2   6
ATOM      3  C   LIG A   1      -7.032   4.178 120.034  0.00  0.00    +0.138 A 
ATOM      4  C   LIG A   1      -8.385   3.974 120.263  0.00  0.00    +0.080 A 
ATOM      5  N   LIG A   1      -8.818   3.433 121.415  0.00  0.00    -0.253 NA
ATOM      6  C   LIG A   1      -7.929   3.072 122.374  0.00  0.00    +0.042 A 
ATOM      7  C   LIG A   1      -6.568   3.258 122.218  0.00  0.00    +0.027 A 
ATOM      8  C   LIG A   1      -6.119   3.822 121.025  0.00  0.00    +0.049 A 
ATOM      9  C   LIG A   1      -9.467   4.293 119.280  0.00  0.00    +0.069 C 
BRANCH   3  10
ATOM     10  O   LIG A   1      -6.529   4.702 118.880  0.00  0.00    -0.505 OA
ATOM     11  H   LIG A   1      -7.013   5.517 118.667  0.00  0.00    +0.292 HD
ENDBRANCH   3  10
ENDBRANCH   2   6
ENDBRANCH   1   2
BRANCH   1  12
ATOM     12  C   LIG A   1      -7.602   0.019 123.905  0.00  0.00    +0.000 C 
BRANCH  12  13
ATOM     13  C   LIG A   1      -7.398  -1.260 123.082  0.00  0.00    +0.000 C 
BRANCH  13  14
ATOM     14  C   LIG A   1      -6.708  -2.432 123.791  0.00  0.00    +0.007 C 
BRANCH  14  15
ATOM     15  C   LIG A   1      -7.577  -3.607 124.235  0.00  0.00    +0.074 C 
BRANCH  15  16
ATOM     16  C   LIG A   1      -9.062  -3.279 124.394  0.00  0.00    +0.133 C 
ATOM     17  O   LIG A   1      -9.878  -3.285 123.421  0.00  0.00    -0.297 OA
BRANCH  16  18
ATOM     18  C   LIG A   1      -9.547  -2.869 125.779  0.00  0.00    +0.074 C 
BRANCH  18  19
ATOM     19  C   LIG A   1      -8.499  -2.797 126.899  0.00  0.00    +0.007 C 
BRANCH  19  20
ATOM     20  C   LIG A   1      -8.695  -3.700 128.132  0.00  0.00    +0.000 C 
BRANCH  20  21
ATOM     21  C   LIG A   1      -8.100  -3.163 129.430  0.00  0.00    -0.003 C 
ATOM     22  C   LIG A   1      -6.776  -3.781 129.842  0.00  0.00    +0.004 C 
ENDBRANCH  20  21
ENDBRANCH  19  20
ENDBRANCH  18  19
ENDBRANCH  16  18
ENDBRANCH  15  16
ENDBRANCH  14  15
ENDBRANCH  13  14
ENDBRANCH  12  13
ENDBRANCH   1  12
TORSDOF 12
ENDMDL
MODEL 3
REMARK VINA RESULT:      -6.5      4.519      8.157
REMARK  Name = NuBBE_16
REMARK  14 active torsions:
REMARK  status: ('A' for Active; 'I' for Inactive)
REMARK    1  A    between atoms: O_1  and  C_2
REMARK    2  A    between atoms: C_3  and  C_21
REMARK    3  A    between atoms: C_5  and  C_8
REMARK    4  A    between atoms: C_8  and  C_9
REMARK    5  A    between atoms: C_9  and  C_10
REMARK    6  A    between atoms: C_10  and  C_11
REMARK    7  A    between atoms: C_11  and  C_12
REMARK    8  A    between atoms: C_12  and  C_13
REMARK    9  A    between atoms: C_13  and  C_14
REMARK   10  A    between atoms: C_14  and  C_15
REMARK   11  A    between atoms: C_15  and  C_16
REMARK   12  A    between atoms: C_16  and  C_17
REMARK   13  A    between atoms: C_17  and  C_18
REMARK   14  A    between atoms: C_18  and  C_19
REMARK                            x       y       z     vdW  Elec       q    Type
REMARK                         _______ _______ _______ _____ _____    ______ ____
ROOT
ATOM      1  C   LIG A   1      -8.157  -2.104 126.919  0.00  0.00    +0.006 C 
ENDROOT
BRANCH   1   2
ATOM      2  C   LIG A   1      -6.843  -2.459 127.596  0.00  0.00    +0.055 C 
BRANCH   2   6
ATOM      3  C   LIG A   1      -7.471  -2.208 131.792  0.00  0.00    +0.138 A 
ATOM      4  C   LIG A   1      -7.925  -1.240 130.909  0.00  0.00    +0.080 A 
ATOM      5  N   LIG A   1      -7.726  -1.362 129.585  0.00  0.00    -0.253 NA
ATOM      6  C   LIG A   1      -7.067  -2.441 129.093  0.00  0.00    +0.042 A 
ATOM      7  C   LIG A   1      -6.597  -3.449 129.914  0.00  0.00    +0.027 A 
ATOM      8  C   LIG A   1      -6.807  -3.324 131.287  0.00  0.00    +0.049 A 
ATOM      9  C   LIG A   1      -8.635   0.012 131.318  0.00  0.00    +0.069 C 
BRANCH   3  10
ATOM     10  O   LIG A   1      -7.622  -2.132 133.145  0.00  0.00    -0.505 OA
ATOM     11  H   LIG A   1      -7.267  -2.941 133.548  0.00  0.00    +0.292 HD
ENDBRANCH   3  10
ENDBRANCH   2   6
ENDBRANCH   1   2
BRANCH   1  12
ATOM     12  C   LIG A   1      -8.988  -3.257 126.397  0.00  0.00    +0.000 C 
BRANCH  12  13
ATOM     13  C   LIG A   1      -8.527  -3.757 125.021  0.00  0.00    +0.000 C 
BRANCH  13  14
ATOM     14  C   LIG A   1      -9.463  -3.475 123.838  0.00  0.00    +0.007 C 
BRANCH  14  15
ATOM     15  C   LIG A   1      -9.037  -2.409 122.832  0.00  0.00    +0.074 C 
BRANCH  15  16
ATOM     16  C   LIG A   1      -8.732  -1.041 123.442  0.00  0.00    +0.133 C 
ATOM     17  O   LIG A   1      -9.640  -0.229 123.804  0.00  0.00    -0.297 OA
BRANCH  16  18
ATOM     18  C   LIG A   1      -7.269  -0.630 123.552  0.00  0.00    +0.074 C 
BRANCH  18  19
ATOM     19  C   LIG A   1      -6.221  -1.608 123.003  0.00  0.00    +0.007 C 
BRANCH  19  20
ATOM     20  C   LIG A   1      -5.360  -2.390 124.015  0.00  0.00    +0.000 C 
BRANCH  20  21
ATOM     21  C   LIG A   1      -4.347  -3.350 123.398  0.00  0.00    -0.003 C 
ATOM     22  C   LIG A   1      -4.578  -4.820 123.702  0.00  0.00    +0.004 C 
ENDBRANCH  20  21
ENDBRANCH  19  20
ENDBRANCH  18  19
ENDBRANCH  16  18
ENDBRANCH  15  16
ENDBRANCH  14  15
ENDBRANCH  13  14
ENDBRANCH  12  13
ENDBRANCH   1  12
TORSDOF 12
ENDMDL
MODEL 4
REMARK VINA RESULT:      -6.4      5.503      9.675
REMARK  Name = NuBBE_16
REMARK  14 active torsions:
REMARK  status: ('A' for Active; 'I' for Inactive)
REMARK    1  A    between atoms: O_1  and  C_2
REMARK    2  A    between atoms: C_3  and  C_21
REMARK    3  A    between atoms: C_5  and  C_8
REMARK    4  A    between atoms: C_8  and  C_9
REMARK    5  A    between atoms: C_9  and  C_10
REMARK    6  A    between atoms: C_10  and  C_11
REMARK    7  A    between atoms: C_11  and  C_12
REMARK    8  A    between atoms: C_12  and  C_13
REMARK    9  A    between atoms: C_13  and  C_14
REMARK   10  A    between atoms: C_14  and  C_15
REMARK   11  A    between atoms: C_15  and  C_16
REMARK   12  A    between atoms: C_16  and  C_17
REMARK   13  A    between atoms: C_17  and  C_18
REMARK   14  A    between atoms: C_18  and  C_19
REMARK                            x       y       z     vdW  Elec       q    Type
REMARK                         _______ _______ _______ _____ _____    ______ ____
ROOT
ATOM      1  C   LIG A   1      -8.407  -3.080 129.031  0.00  0.00    +0.006 C 
ENDROOT
BRANCH   1   2
ATOM      2  C   LIG A   1      -6.891  -3.140 129.124  0.00  0.00    +0.055 C 
BRANCH   2   6
ATOM      3  C   LIG A   1      -5.901  -4.460 133.041  0.00  0.00    +0.138 A 
ATOM      4  C   LIG A   1      -6.819  -3.449 132.803  0.00  0.00    +0.080 A 
ATOM      5  N   LIG A   1      -7.123  -3.070 131.549  0.00  0.00    -0.253 NA
ATOM      6  C   LIG A   1      -6.525  -3.675 130.492  0.00  0.00    +0.042 A 
ATOM      7  C   LIG A   1      -5.610  -4.698 130.656  0.00  0.00    +0.027 A 
ATOM      8  C   LIG A   1      -5.297  -5.092 131.956  0.00  0.00    +0.049 A 
ATOM      9  C   LIG A   1      -7.526  -2.677 133.873  0.00  0.00    +0.069 C 
BRANCH   3  10
ATOM     10  O   LIG A   1      -5.535  -4.874 134.287  0.00  0.00    -0.505 OA
ATOM     11  H   LIG A   1      -4.575  -4.761 134.387  0.00  0.00    +0.292 HD
ENDBRANCH   3  10
ENDBRANCH   2   6
ENDBRANCH   1   2
BRANCH   1  12
ATOM     12  C   LIG A   1      -9.063  -3.976 128.003  0.00  0.00    +0.000 C 
BRANCH  12  13
ATOM     13  C   LIG A   1      -8.551  -3.732 126.577  0.00  0.00    +0.000 C 
BRANCH  13  14
ATOM     14  C   LIG A   1      -9.531  -3.074 125.597  0.00  0.00    +0.007 C 
BRANCH  14  15
ATOM     15  C   LIG A   1      -9.287  -3.276 124.103  0.00  0.00    +0.074 C 
BRANCH  15  16
ATOM     16  C   LIG A   1      -8.882  -2.012 123.345  0.00  0.00    +0.133 C 
ATOM     17  O   LIG A   1      -9.727  -1.210 122.839  0.00  0.00    -0.297 OA
BRANCH  16  18
ATOM     18  C   LIG A   1      -7.392  -1.758 123.148  0.00  0.00    +0.074 C 
BRANCH  18  19
ATOM     19  C   LIG A   1      -6.535  -1.586 124.410  0.00  0.00    +0.007 C 
BRANCH  19  20
ATOM     20  C   LIG A   1      -5.120  -2.196 124.412  0.00  0.00    +0.000 C 
BRANCH  20  21
ATOM     21  C   LIG A   1      -4.834  -3.176 123.278  0.00  0.00    -0.003 C 
ATOM     22  C   LIG A   1      -4.585  -4.611 123.708  0.00  0.00    +0.004 C 
ENDBRANCH  20  21
ENDBRANCH  19  20
ENDBRANCH  18  19
ENDBRANCH  16  18
ENDBRANCH  15  16
ENDBRANCH  14  15
ENDBRANCH  13  14
ENDBRANCH  12  13
ENDBRANCH   1  12
TORSDOF 12
ENDMDL
MODEL 5
REMARK VINA RESULT:      -6.4      5.118      8.966
REMARK  Name = NuBBE_16
REMARK  14 active torsions:
REMARK  status: ('A' for Active; 'I' for Inactive)
REMARK    1  A    between atoms: O_1  and  C_2
REMARK    2  A    between atoms: C_3  and  C_21
REMARK    3  A    between atoms: C_5  and  C_8
REMARK    4  A    between atoms: C_8  and  C_9
REMARK    5  A    between atoms: C_9  and  C_10
REMARK    6  A    between atoms: C_10  and  C_11
REMARK    7  A    between atoms: C_11  and  C_12
REMARK    8  A    between atoms: C_12  and  C_13
REMARK    9  A    between atoms: C_13  and  C_14
REMARK   10  A    between atoms: C_14  and  C_15
REMARK   11  A    between atoms: C_15  and  C_16
REMARK   12  A    between atoms: C_16  and  C_17
REMARK   13  A    between atoms: C_17  and  C_18
REMARK   14  A    between atoms: C_18  and  C_19
REMARK                            x       y       z     vdW  Elec       q    Type
REMARK                         _______ _______ _______ _____ _____    ______ ____
ROOT
ATOM      1  C   LIG A   1      -7.839  -2.811 128.572  0.00  0.00    +0.006 C 
ENDROOT
BRANCH   1   2
ATOM      2  C   LIG A   1      -8.002  -2.712 130.081  0.00  0.00    +0.055 C 
BRANCH   2   6
ATOM      3  C   LIG A   1      -4.231  -3.821 131.700  0.00  0.00    +0.138 A 
ATOM      4  C   LIG A   1      -4.404  -3.500 130.362  0.00  0.00    +0.080 A 
ATOM      5  N   LIG A   1      -5.608  -3.133 129.888  0.00  0.00    -0.253 NA
ATOM      6  C   LIG A   1      -6.679  -3.079 130.720  0.00  0.00    +0.042 A 
ATOM      7  C   LIG A   1      -6.576  -3.375 132.067  0.00  0.00    +0.027 A 
ATOM      8  C   LIG A   1      -5.327  -3.751 132.559  0.00  0.00    +0.049 A 
ATOM      9  C   LIG A   1      -3.321  -3.549 129.332  0.00  0.00    +0.069 C 
BRANCH   3  10
ATOM     10  O   LIG A   1      -3.042  -4.219 132.236  0.00  0.00    -0.505 OA
ATOM     11  H   LIG A   1      -3.135  -5.128 132.567  0.00  0.00    +0.292 HD
ENDBRANCH   3  10
ENDBRANCH   2   6
ENDBRANCH   1   2
BRANCH   1  12
ATOM     12  C   LIG A   1      -8.794  -3.731 127.843  0.00  0.00    +0.000 C 
BRANCH  12  13
ATOM     13  C   LIG A   1      -8.533  -3.793 126.331  0.00  0.00    +0.000 C 
BRANCH  13  14
ATOM     14  C   LIG A   1      -9.451  -2.949 125.439  0.00  0.00    +0.007 C 
BRANCH  14  15
ATOM     15  C   LIG A   1      -9.422  -3.213 123.935  0.00  0.00    +0.074 C 
BRANCH  15  16
ATOM     16  C   LIG A   1      -9.019  -2.010 123.083  0.00  0.00    +0.133 C 
ATOM     17  O   LIG A   1      -9.816  -1.057 122.814  0.00  0.00    -0.297 OA
BRANCH  16  18
ATOM     18  C   LIG A   1      -7.615  -2.005 122.491  0.00  0.00    +0.074 C 
BRANCH  18  19
ATOM     19  C   LIG A   1      -6.539  -1.208 123.240  0.00  0.00    +0.007 C 
BRANCH  19  20
ATOM     20  C   LIG A   1      -5.894  -1.850 124.483  0.00  0.00    +0.000 C 
BRANCH  20  21
ATOM     21  C   LIG A   1      -5.528  -3.324 124.335  0.00  0.00    -0.003 C 
ATOM     22  C   LIG A   1      -4.369  -3.614 123.399  0.00  0.00    +0.004 C 
ENDBRANCH  20  21
ENDBRANCH  19  20
ENDBRANCH  18  19
ENDBRANCH  16  18
ENDBRANCH  15  16
ENDBRANCH  14  15
ENDBRANCH  13  14
ENDBRANCH  12  13
ENDBRANCH   1  12
TORSDOF 12
ENDMDL
MODEL 6
REMARK VINA RESULT:      -6.3      2.161      3.719
REMARK  Name = NuBBE_16
REMARK  14 active torsions:
REMARK  status: ('A' for Active; 'I' for Inactive)
REMARK    1  A    between atoms: O_1  and  C_2
REMARK    2  A    between atoms: C_3  and  C_21
REMARK    3  A    between atoms: C_5  and  C_8
REMARK    4  A    between atoms: C_8  and  C_9
REMARK    5  A    between atoms: C_9  and  C_10
REMARK    6  A    between atoms: C_10  and  C_11
REMARK    7  A    between atoms: C_11  and  C_12
REMARK    8  A    between atoms: C_12  and  C_13
REMARK    9  A    between atoms: C_13  and  C_14
REMARK   10  A    between atoms: C_14  and  C_15
REMARK   11  A    between atoms: C_15  and  C_16
REMARK   12  A    between atoms: C_16  and  C_17
REMARK   13  A    between atoms: C_17  and  C_18
REMARK   14  A    between atoms: C_18  and  C_19
REMARK                            x       y       z     vdW  Elec       q    Type
REMARK                         _______ _______ _______ _____ _____    ______ ____
ROOT
ATOM      1  C   LIG A   1      -6.602   1.021 124.590  0.00  0.00    +0.006 C 
ENDROOT
BRANCH   1   2
ATOM      2  C   LIG A   1      -7.449   2.283 124.590  0.00  0.00    +0.055 C 
BRANCH   2   6
ATOM      3  C   LIG A   1      -7.508   3.831 120.631  0.00  0.00    +0.138 A 
ATOM      4  C   LIG A   1      -6.338   3.688 121.360  0.00  0.00    +0.080 A 
ATOM      5  N   LIG A   1      -6.354   3.175 122.603  0.00  0.00    -0.253 NA
ATOM      6  C   LIG A   1      -7.528   2.794 123.167  0.00  0.00    +0.042 A 
ATOM      7  C   LIG A   1      -8.731   2.898 122.493  0.00  0.00    +0.027 A 
ATOM      8  C   LIG A   1      -8.713   3.426 121.203  0.00  0.00    +0.049 A 
ATOM      9  C   LIG A   1      -4.983   4.097 120.875  0.00  0.00    +0.069 C 
BRANCH   3  10
ATOM     10  O   LIG A   1      -7.560   4.363 119.377  0.00  0.00    -0.505 OA
ATOM     11  H   LIG A   1      -6.699   4.759 119.167  0.00  0.00    +0.292 HD
ENDBRANCH   3  10
ENDBRANCH   2   6
ENDBRANCH   1   2
BRANCH   1  12
ATOM     12  C   LIG A   1      -6.079   0.552 125.931  0.00  0.00    +0.000 C 
BRANCH  12  13
ATOM     13  C   LIG A   1      -6.032  -0.977 126.057  0.00  0.00    +0.000 C 
BRANCH  13  14
ATOM     14  C   LIG A   1      -5.224  -1.731 124.993  0.00  0.00    +0.007 C 
BRANCH  14  15
ATOM     15  C   LIG A   1      -5.899  -2.903 124.285  0.00  0.00    +0.074 C 
BRANCH  15  16
ATOM     16  C   LIG A   1      -7.101  -2.522 123.420  0.00  0.00    +0.133 C 
ATOM     17  O   LIG A   1      -7.004  -1.786 122.389  0.00  0.00    -0.297 OA
BRANCH  16  18
ATOM     18  C   LIG A   1      -8.473  -3.006 123.872  0.00  0.00    +0.074 C 
BRANCH  18  19
ATOM     19  C   LIG A   1      -8.541  -3.818 125.172  0.00  0.00    +0.007 C 
BRANCH  19  20
ATOM     20  C   LIG A   1      -9.043  -3.108 126.444  0.00  0.00    +0.000 C 
BRANCH  20  21
ATOM     21  C   LIG A   1      -8.877  -3.901 127.737  0.00  0.00    -0.003 C 
ATOM     22  C   LIG A   1      -8.214  -3.150 128.878  0.00  0.00    +0.004 C 
ENDBRANCH  20  21
ENDBRANCH  19  20
ENDBRANCH  18  19
ENDBRANCH  16  18
ENDBRANCH  15  16
ENDBRANCH  14  15
ENDBRANCH  13  14
ENDBRANCH  12  13
ENDBRANCH   1  12
TORSDOF 12
ENDMDL
MODEL 7
REMARK VINA RESULT:      -6.2      2.082      3.093
REMARK  Name = NuBBE_16
REMARK  14 active torsions:
REMARK  status: ('A' for Active; 'I' for Inactive)
REMARK    1  A    between atoms: O_1  and  C_2
REMARK    2  A    between atoms: C_3  and  C_21
REMARK    3  A    between atoms: C_5  and  C_8
REMARK    4  A    between atoms: C_8  and  C_9
REMARK    5  A    between atoms: C_9  and  C_10
REMARK    6  A    between atoms: C_10  and  C_11
REMARK    7  A    between atoms: C_11  and  C_12
REMARK    8  A    between atoms: C_12  and  C_13
REMARK    9  A    between atoms: C_13  and  C_14
REMARK   10  A    between atoms: C_14  and  C_15
REMARK   11  A    between atoms: C_15  and  C_16
REMARK   12  A    between atoms: C_16  and  C_17
REMARK   13  A    between atoms: C_17  and  C_18
REMARK   14  A    between atoms: C_18  and  C_19
REMARK                            x       y       z     vdW  Elec       q    Type
REMARK                         _______ _______ _______ _____ _____    ______ ____
ROOT
ATOM      1  C   LIG A   1      -8.625   1.887 125.329  0.00  0.00    +0.006 C 
ENDROOT
BRANCH   1   2
ATOM      2  C   LIG A   1      -8.953   2.508 123.981  0.00  0.00    +0.055 C 
BRANCH   2   6
ATOM      3  C   LIG A   1      -5.453   4.269 122.333  0.00  0.00    +0.138 A 
ATOM      4  C   LIG A   1      -6.504   3.820 121.548  0.00  0.00    +0.080 A 
ATOM      5  N   LIG A   1      -7.606   3.286 122.105  0.00  0.00    -0.253 NA
ATOM      6  C   LIG A   1      -7.700   3.174 123.454  0.00  0.00    +0.042 A 
ATOM      7  C   LIG A   1      -6.696   3.612 124.297  0.00  0.00    +0.027 A 
ATOM      8  C   LIG A   1      -5.555   4.169 123.719  0.00  0.00    +0.049 A 
ATOM      9  C   LIG A   1      -6.518   3.852 120.052  0.00  0.00    +0.069 C 
BRANCH   3  10
ATOM     10  O   LIG A   1      -4.303   4.800 121.829  0.00  0.00    -0.505 OA
ATOM     11  H   LIG A   1      -3.715   4.076 121.556  0.00  0.00    +0.292 HD
ENDBRANCH   3  10
ENDBRANCH   2   6
ENDBRANCH   1   2
BRANCH   1  12
ATOM     12  C   LIG A   1      -8.554   0.376 125.384  0.00  0.00    +0.000 C 
BRANCH  12  13
ATOM     13  C   LIG A   1      -7.213  -0.182 124.890  0.00  0.00    +0.000 C 
BRANCH  13  14
ATOM     14  C   LIG A   1      -7.141  -0.598 123.415  0.00  0.00    +0.007 C 
BRANCH  14  15
ATOM     15  C   LIG A   1      -7.301  -2.081 123.085  0.00  0.00    +0.074 C 
BRANCH  15  16
ATOM     16  C   LIG A   1      -8.586  -2.718 123.612  0.00  0.00    +0.133 C 
ATOM     17  O   LIG A   1      -9.740  -2.397 123.188  0.00  0.00    -0.297 OA
BRANCH  16  18
ATOM     18  C   LIG A   1      -8.455  -3.736 124.739  0.00  0.00    +0.074 C 
BRANCH  18  19
ATOM     19  C   LIG A   1      -9.123  -3.393 126.078  0.00  0.00    +0.007 C 
BRANCH  19  20
ATOM     20  C   LIG A   1      -8.227  -2.891 127.226  0.00  0.00    +0.000 C 
BRANCH  20  21
ATOM     21  C   LIG A   1      -8.540  -3.480 128.598  0.00  0.00    -0.003 C 
ATOM     22  C   LIG A   1      -7.391  -3.459 129.591  0.00  0.00    +0.004 C 
ENDBRANCH  20  21
ENDBRANCH  19  20
ENDBRANCH  18  19
ENDBRANCH  16  18
ENDBRANCH  15  16
ENDBRANCH  14  15
ENDBRANCH  13  14
ENDBRANCH  12  13
ENDBRANCH   1  12
TORSDOF 12
ENDMDL
MODEL 8
REMARK VINA RESULT:      -6.0      2.232      3.642
REMARK  Name = NuBBE_16
REMARK  14 active torsions:
REMARK  status: ('A' for Active; 'I' for Inactive)
REMARK    1  A    between atoms: O_1  and  C_2
REMARK    2  A    between atoms: C_3  and  C_21
REMARK    3  A    between atoms: C_5  and  C_8
REMARK    4  A    between atoms: C_8  and  C_9
REMARK    5  A    between atoms: C_9  and  C_10
REMARK    6  A    between atoms: C_10  and  C_11
REMARK    7  A    between atoms: C_11  and  C_12
REMARK    8  A    between atoms: C_12  and  C_13
REMARK    9  A    between atoms: C_13  and  C_14
REMARK   10  A    between atoms: C_14  and  C_15
REMARK   11  A    between atoms: C_15  and  C_16
REMARK   12  A    between atoms: C_16  and  C_17
REMARK   13  A    between atoms: C_17  and  C_18
REMARK   14  A    between atoms: C_18  and  C_19
REMARK                            x       y       z     vdW  Elec       q    Type
REMARK                         _______ _______ _______ _____ _____    ______ ____
ROOT
ATOM      1  C   LIG A   1      -8.970   0.653 123.477  0.00  0.00    +0.006 C 
ENDROOT
BRANCH   1   2
ATOM      2  C   LIG A   1      -9.173   2.153 123.627  0.00  0.00    +0.055 C 
BRANCH   2   6
ATOM      3  C   LIG A   1      -5.669   4.203 122.367  0.00  0.00    +0.138 A 
ATOM      4  C   LIG A   1      -5.920   3.900 123.696  0.00  0.00    +0.080 A 
ATOM      5  N   LIG A   1      -7.030   3.232 124.057  0.00  0.00    -0.253 NA
ATOM      6  C   LIG A   1      -7.929   2.848 123.116  0.00  0.00    +0.042 A 
ATOM      7  C   LIG A   1      -7.736   3.106 121.771  0.00  0.00    +0.027 A 
ATOM      8  C   LIG A   1      -6.584   3.796 121.397  0.00  0.00    +0.049 A 
ATOM      9  C   LIG A   1      -5.033   4.291 124.836  0.00  0.00    +0.069 C 
BRANCH   3  10
ATOM     10  O   LIG A   1      -4.574   4.895 121.940  0.00  0.00    -0.505 OA
ATOM     11  H   LIG A   1      -4.805   5.836 121.869  0.00  0.00    +0.292 HD
ENDBRANCH   3  10
ENDBRANCH   2   6
ENDBRANCH   1   2
BRANCH   1  12
ATOM     12  C   LIG A   1      -7.790   0.050 124.209  0.00  0.00    +0.000 C 
BRANCH  12  13
ATOM     13  C   LIG A   1      -7.084  -1.052 123.406  0.00  0.00    +0.000 C 
BRANCH  13  14
ATOM     14  C   LIG A   1      -6.687  -2.318 124.177  0.00  0.00    +0.007 C 
BRANCH  14  15
ATOM     15  C   LIG A   1      -7.643  -3.507 124.134  0.00  0.00    +0.074 C 
BRANCH  15  16
ATOM     16  C   LIG A   1      -9.112  -3.155 124.371  0.00  0.00    +0.133 C 
ATOM     17  O   LIG A   1      -9.901  -2.820 123.433  0.00  0.00    -0.297 OA
BRANCH  16  18
ATOM     18  C   LIG A   1      -9.611  -3.154 125.810  0.00  0.00    +0.074 C 
BRANCH  18  19
ATOM     19  C   LIG A   1      -8.572  -2.924 126.916  0.00  0.00    +0.007 C 
BRANCH  19  20
ATOM     20  C   LIG A   1      -8.717  -3.724 128.225  0.00  0.00    +0.000 C 
BRANCH  20  21
ATOM     21  C   LIG A   1      -8.037  -3.105 129.442  0.00  0.00    -0.003 C 
ATOM     22  C   LIG A   1      -6.767  -3.799 129.899  0.00  0.00    +0.004 C 
ENDBRANCH  20  21
ENDBRANCH  19  20
ENDBRANCH  18  19
ENDBRANCH  16  18
ENDBRANCH  15  16
ENDBRANCH  14  15
ENDBRANCH  13  14
ENDBRANCH  12  13
ENDBRANCH   1  12
TORSDOF 12
ENDMDL
MODEL 9
REMARK VINA RESULT:      -5.9      5.281      8.786
REMARK  Name = NuBBE_16
REMARK  14 active torsions:
REMARK  status: ('A' for Active; 'I' for Inactive)
REMARK    1  A    between atoms: O_1  and  C_2
REMARK    2  A    between atoms: C_3  and  C_21
REMARK    3  A    between atoms: C_5  and  C_8
REMARK    4  A    between atoms: C_8  and  C_9
REMARK    5  A    between atoms: C_9  and  C_10
REMARK    6  A    between atoms: C_10  and  C_11
REMARK    7  A    between atoms: C_11  and  C_12
REMARK    8  A    between atoms: C_12  and  C_13
REMARK    9  A    between atoms: C_13  and  C_14
REMARK   10  A    between atoms: C_14  and  C_15
REMARK   11  A    between atoms: C_15  and  C_16
REMARK   12  A    between atoms: C_16  and  C_17
REMARK   13  A    between atoms: C_17  and  C_18
REMARK   14  A    between atoms: C_18  and  C_19
REMARK                            x       y       z     vdW  Elec       q    Type
REMARK                         _______ _______ _______ _____ _____    ______ ____
ROOT
ATOM      1  C   LIG A   1      -8.300  -2.659 127.635  0.00  0.00    +0.006 C 
ENDROOT
BRANCH   1   2
ATOM      2  C   LIG A   1      -8.255  -3.076 129.096  0.00  0.00    +0.055 C 
BRANCH   2   6
ATOM      3  C   LIG A   1      -4.238  -3.557 130.400  0.00  0.00    +0.138 A 
ATOM      4  C   LIG A   1      -5.310  -4.164 131.039  0.00  0.00    +0.080 A 
ATOM      5  N   LIG A   1      -6.566  -4.006 130.586  0.00  0.00    -0.253 NA
ATOM      6  C   LIG A   1      -6.804  -3.239 129.492  0.00  0.00    +0.042 A 
ATOM      7  C   LIG A   1      -5.782  -2.615 128.800  0.00  0.00    +0.027 A 
ATOM      8  C   LIG A   1      -4.480  -2.782 129.268  0.00  0.00    +0.049 A 
ATOM      9  C   LIG A   1      -5.195  -5.006 132.271  0.00  0.00    +0.069 C 
BRANCH   3  10
ATOM     10  O   LIG A   1      -2.946  -3.662 130.822  0.00  0.00    -0.505 OA
ATOM     11  H   LIG A   1      -2.928  -4.142 131.666  0.00  0.00    +0.292 HD
ENDBRANCH   3  10
ENDBRANCH   2   6
ENDBRANCH   1   2
BRANCH   1  12
ATOM     12  C   LIG A   1      -9.098  -3.541 126.698  0.00  0.00    +0.000 C 
BRANCH  12  13
ATOM     13  C   LIG A   1      -9.455  -2.848 125.376  0.00  0.00    +0.000 C 
BRANCH  13  14
ATOM     14  C   LIG A   1      -8.773  -3.386 124.111  0.00  0.00    +0.007 C 
BRANCH  14  15
ATOM     15  C   LIG A   1      -8.221  -2.370 123.114  0.00  0.00    +0.074 C 
BRANCH  15  16
ATOM     16  C   LIG A   1      -6.695  -2.323 123.029  0.00  0.00    +0.133 C 
ATOM     17  O   LIG A   1      -6.073  -1.856 122.024  0.00  0.00    -0.297 OA
BRANCH  16  18
ATOM     18  C   LIG A   1      -5.908  -2.923 124.187  0.00  0.00    +0.074 C 
BRANCH  18  19
ATOM     19  C   LIG A   1      -5.613  -2.011 125.386  0.00  0.00    +0.007 C 
BRANCH  19  20
ATOM     20  C   LIG A   1      -5.976  -0.519 125.267  0.00  0.00    +0.000 C 
BRANCH  20  21
ATOM     21  C   LIG A   1      -5.205   0.413 126.198  0.00  0.00    -0.003 C 
ATOM     22  C   LIG A   1      -5.938   0.817 127.465  0.00  0.00    +0.004 C 
ENDBRANCH  20  21
ENDBRANCH  19  20
ENDBRANCH  18  19
ENDBRANCH  16  18
ENDBRANCH  15  16
ENDBRANCH  14  15
ENDBRANCH  13  14
ENDBRANCH  12  13
ENDBRANCH   1  12
TORSDOF 12
ENDMDL
