MODEL 1
REMARK VINA RESULT:      -7.4      0.000      0.000
REMARK  Name = NuBBE_2256
REMARK  6 active torsions:
REMARK  status: ('A' for Active; 'I' for Inactive)
REMARK    1  A    between atoms: O_1  and  C_2
REMARK    2  A    between atoms: C_7  and  O_8
REMARK    3  A    between atoms: O_8  and  C_9
REMARK    4  A    between atoms: C_10  and  O_11
REMARK    5  A    between atoms: O_11  and  C_12
REMARK    6  A    between atoms: C_13  and  O_14
REMARK                            x       y       z     vdW  Elec       q    Type
REMARK                         _______ _______ _______ _____ _____    ______ ____
ROOT
ATOM      1  C   LIG A   1      -6.470   4.544 119.736  0.00  0.00    +0.131 A 
ATOM      2  C   LIG A   1      -6.920   4.052 120.961  0.00  0.00    +0.106 A 
ATOM      3  C   LIG A   1      -6.021   3.929 122.112  0.00  0.00    +0.204 A 
ATOM      4  C   LIG A   1      -6.602   3.450 123.369  0.00  0.00    +0.072 A 
ATOM      5  C   LIG A   1      -5.800   3.342 124.507  0.00  0.00    +0.065 A 
ATOM      6  C   LIG A   1      -6.342   2.913 125.727  0.00  0.00    +0.166 A 
ATOM      7  C   LIG A   1      -7.721   2.656 125.802  0.00  0.00    +0.207 A 
ATOM      8  C   LIG A   1      -8.506   2.775 124.637  0.00  0.00    +0.206 A 
ATOM      9  C   LIG A   1      -7.955   3.146 123.411  0.00  0.00    +0.184 A 
ATOM     10  O   LIG A   1      -8.776   3.207 122.312  0.00  0.00    -0.451 OA
ATOM     11  O   LIG A   1      -4.836   4.226 122.016  0.00  0.00    -0.286 OA
ATOM     12  C   LIG A   1      -8.249   3.665 121.126  0.00  0.00    +0.143 A 
ATOM     13  C   LIG A   1      -9.126   3.747 120.043  0.00  0.00    +0.047 A 
ATOM     14  C   LIG A   1      -8.676   4.238 118.814  0.00  0.00    +0.007 A 
ATOM     15  C   LIG A   1      -7.347   4.644 118.660  0.00  0.00    +0.046 A 
ENDROOT
BRANCH   1  16
ATOM     16  O   LIG A   1      -5.178   4.950 119.528  0.00  0.00    -0.506 OA
ATOM     17  H   LIG A   1      -4.974   5.655 120.178  0.00  0.00    +0.292 HD
ENDBRANCH   1  16
BRANCH   6  18
ATOM     18  O   LIG A   1      -5.570   2.814 126.854  0.00  0.00    -0.491 OA
ATOM     19  C   LIG A   1      -4.261   2.278 126.674  0.00  0.00    +0.277 C 
ENDBRANCH   6  18
BRANCH   7  20
ATOM     20  O   LIG A   1      -8.457   2.347 126.923  0.00  0.00    -0.488 OA
ATOM     21  C   LIG A   1      -8.373   1.022 127.432  0.00  0.00    +0.277 C 
ENDBRANCH   7  20
BRANCH   8  22
ATOM     22  O   LIG A   1      -9.857   2.527 124.714  0.00  0.00    -0.501 OA
ATOM     23  H   LIG A   1     -10.262   3.379 124.968  0.00  0.00    +0.292 HD
ENDBRANCH   8  22
TORSDOF 4
ENDMDL
MODEL 2
REMARK VINA RESULT:      -7.2      8.301      9.760
REMARK  Name = NuBBE_2256
REMARK  6 active torsions:
REMARK  status: ('A' for Active; 'I' for Inactive)
REMARK    1  A    between atoms: O_1  and  C_2
REMARK    2  A    between atoms: C_7  and  O_8
REMARK    3  A    between atoms: O_8  and  C_9
REMARK    4  A    between atoms: C_10  and  O_11
REMARK    5  A    between atoms: O_11  and  C_12
REMARK    6  A    between atoms: C_13  and  O_14
REMARK                            x       y       z     vdW  Elec       q    Type
REMARK                         _______ _______ _______ _____ _____    ______ ____
ROOT
ATOM      1  C   LIG A   1     -12.515   7.381 129.764  0.00  0.00    +0.131 A 
ATOM      2  C   LIG A   1     -11.203   7.227 130.211  0.00  0.00    +0.106 A 
ATOM      3  C   LIG A   1     -10.901   6.567 131.484  0.00  0.00    +0.204 A 
ATOM      4  C   LIG A   1      -9.489   6.408 131.840  0.00  0.00    +0.072 A 
ATOM      5  C   LIG A   1      -9.142   5.760 133.028  0.00  0.00    +0.065 A 
ATOM      6  C   LIG A   1      -7.796   5.572 133.373  0.00  0.00    +0.166 A 
ATOM      7  C   LIG A   1      -6.801   5.989 132.474  0.00  0.00    +0.207 A 
ATOM      8  C   LIG A   1      -7.182   6.639 131.283  0.00  0.00    +0.206 A 
ATOM      9  C   LIG A   1      -8.520   6.877 130.966  0.00  0.00    +0.184 A 
ATOM     10  O   LIG A   1      -8.812   7.548 129.805  0.00  0.00    -0.451 OA
ATOM     11  O   LIG A   1     -11.804   6.161 132.208  0.00  0.00    -0.286 OA
ATOM     12  C   LIG A   1     -10.133   7.696 129.450  0.00  0.00    +0.143 A 
ATOM     13  C   LIG A   1     -10.386   8.351 128.243  0.00  0.00    +0.047 A 
ATOM     14  C   LIG A   1     -11.701   8.508 127.795  0.00  0.00    +0.007 A 
ATOM     15  C   LIG A   1     -12.768   8.017 128.552  0.00  0.00    +0.046 A 
ENDROOT
BRANCH   1  16
ATOM     16  O   LIG A   1     -13.598   6.925 130.468  0.00  0.00    -0.506 OA
ATOM     17  H   LIG A   1     -13.277   6.585 131.330  0.00  0.00    +0.292 HD
ENDBRANCH   1  16
BRANCH   6  18
ATOM     18  O   LIG A   1      -7.441   4.926 134.528  0.00  0.00    -0.491 OA
ATOM     19  C   LIG A   1      -7.413   5.724 135.710  0.00  0.00    +0.277 C 
ENDBRANCH   6  18
BRANCH   7  20
ATOM     20  O   LIG A   1      -5.443   5.788 132.572  0.00  0.00    -0.488 OA
ATOM     21  C   LIG A   1      -4.938   4.491 132.284  0.00  0.00    +0.277 C 
ENDBRANCH   7  20
BRANCH   8  22
ATOM     22  O   LIG A   1      -6.206   7.044 130.401  0.00  0.00    -0.501 OA
ATOM     23  H   LIG A   1      -5.517   7.463 130.953  0.00  0.00    +0.292 HD
ENDBRANCH   8  22
TORSDOF 4
ENDMDL
MODEL 3
REMARK VINA RESULT:      -6.9      7.035      8.584
REMARK  Name = NuBBE_2256
REMARK  6 active torsions:
REMARK  status: ('A' for Active; 'I' for Inactive)
REMARK    1  A    between atoms: O_1  and  C_2
REMARK    2  A    between atoms: C_7  and  O_8
REMARK    3  A    between atoms: O_8  and  C_9
REMARK    4  A    between atoms: C_10  and  O_11
REMARK    5  A    between atoms: O_11  and  C_12
REMARK    6  A    between atoms: C_13  and  O_14
REMARK                            x       y       z     vdW  Elec       q    Type
REMARK                         _______ _______ _______ _____ _____    ______ ____
ROOT
ATOM      1  C   LIG A   1     -11.458   7.284 127.560  0.00  0.00    +0.131 A 
ATOM      2  C   LIG A   1     -10.853   6.886 128.751  0.00  0.00    +0.106 A 
ATOM      3  C   LIG A   1      -9.629   6.080 128.756  0.00  0.00    +0.204 A 
ATOM      4  C   LIG A   1      -9.042   5.757 130.059  0.00  0.00    +0.072 A 
ATOM      5  C   LIG A   1      -7.858   5.018 130.123  0.00  0.00    +0.065 A 
ATOM      6  C   LIG A   1      -7.265   4.723 131.358  0.00  0.00    +0.166 A 
ATOM      7  C   LIG A   1      -7.846   5.237 132.530  0.00  0.00    +0.207 A 
ATOM      8  C   LIG A   1      -9.040   5.981 132.434  0.00  0.00    +0.206 A 
ATOM      9  C   LIG A   1      -9.661   6.226 131.208  0.00  0.00    +0.184 A 
ATOM     10  O   LIG A   1     -10.841   6.928 131.197  0.00  0.00    -0.451 OA
ATOM     11  O   LIG A   1      -9.121   5.706 127.704  0.00  0.00    -0.286 OA
ATOM     12  C   LIG A   1     -11.398   7.250 129.981  0.00  0.00    +0.143 A 
ATOM     13  C   LIG A   1     -12.578   7.997 130.013  0.00  0.00    +0.047 A 
ATOM     14  C   LIG A   1     -13.186   8.395 128.819  0.00  0.00    +0.007 A 
ATOM     15  C   LIG A   1     -12.623   8.044 127.589  0.00  0.00    +0.046 A 
ENDROOT
BRANCH   1  16
ATOM     16  O   LIG A   1     -10.953   6.964 126.327  0.00  0.00    -0.506 OA
ATOM     17  H   LIG A   1     -10.005   6.736 126.438  0.00  0.00    +0.292 HD
ENDBRANCH   1  16
BRANCH   6  18
ATOM     18  O   LIG A   1      -6.098   4.010 131.436  0.00  0.00    -0.491 OA
ATOM     19  C   LIG A   1      -6.223   2.591 131.372  0.00  0.00    +0.277 C 
ENDBRANCH   6  18
BRANCH   7  20
ATOM     20  O   LIG A   1      -7.355   5.163 133.812  0.00  0.00    -0.488 OA
ATOM     21  C   LIG A   1      -7.606   3.977 134.556  0.00  0.00    +0.277 C 
ENDBRANCH   7  20
BRANCH   8  22
ATOM     22  O   LIG A   1      -9.605   6.488 133.581  0.00  0.00    -0.501 OA
ATOM     23  H   LIG A   1     -10.503   6.106 133.616  0.00  0.00    +0.292 HD
ENDBRANCH   8  22
TORSDOF 4
ENDMDL
MODEL 4
REMARK VINA RESULT:      -6.9      8.762     10.212
REMARK  Name = NuBBE_2256
REMARK  6 active torsions:
REMARK  status: ('A' for Active; 'I' for Inactive)
REMARK    1  A    between atoms: O_1  and  C_2
REMARK    2  A    between atoms: C_7  and  O_8
REMARK    3  A    between atoms: O_8  and  C_9
REMARK    4  A    between atoms: C_10  and  O_11
REMARK    5  A    between atoms: O_11  and  C_12
REMARK    6  A    between atoms: C_13  and  O_14
REMARK                            x       y       z     vdW  Elec       q    Type
REMARK                         _______ _______ _______ _____ _____    ______ ____
ROOT
ATOM      1  C   LIG A   1     -10.034   5.746 132.277  0.00  0.00    +0.131 A 
ATOM      2  C   LIG A   1      -8.738   6.147 131.954  0.00  0.00    +0.106 A 
ATOM      3  C   LIG A   1      -7.584   5.712 132.745  0.00  0.00    +0.204 A 
ATOM      4  C   LIG A   1      -6.259   6.146 132.295  0.00  0.00    +0.072 A 
ATOM      5  C   LIG A   1      -5.120   5.737 132.993  0.00  0.00    +0.065 A 
ATOM      6  C   LIG A   1      -3.842   6.117 132.561  0.00  0.00    +0.166 A 
ATOM      7  C   LIG A   1      -3.719   6.863 131.378  0.00  0.00    +0.207 A 
ATOM      8  C   LIG A   1      -4.886   7.261 130.694  0.00  0.00    +0.206 A 
ATOM      9  C   LIG A   1      -6.161   6.930 131.155  0.00  0.00    +0.184 A 
ATOM     10  O   LIG A   1      -7.252   7.383 130.455  0.00  0.00    -0.451 OA
ATOM     11  O   LIG A   1      -7.734   5.007 133.737  0.00  0.00    -0.286 OA
ATOM     12  C   LIG A   1      -8.503   6.976 130.858  0.00  0.00    +0.143 A 
ATOM     13  C   LIG A   1      -9.583   7.428 130.097  0.00  0.00    +0.047 A 
ATOM     14  C   LIG A   1     -10.882   7.028 130.421  0.00  0.00    +0.007 A 
ATOM     15  C   LIG A   1     -11.110   6.180 131.508  0.00  0.00    +0.046 A 
ENDROOT
BRANCH   1  16
ATOM     16  O   LIG A   1     -10.315   4.921 133.334  0.00  0.00    -0.506 OA
ATOM     17  H   LIG A   1     -10.987   4.270 133.040  0.00  0.00    +0.292 HD
ENDBRANCH   1  16
BRANCH   6  18
ATOM     18  O   LIG A   1      -2.716   5.712 133.229  0.00  0.00    -0.491 OA
ATOM     19  C   LIG A   1      -2.298   4.368 132.999  0.00  0.00    +0.277 C 
ENDBRANCH   6  18
BRANCH   7  20
ATOM     20  O   LIG A   1      -2.561   7.226 130.730  0.00  0.00    -0.488 OA
ATOM     21  C   LIG A   1      -1.993   6.304 129.810  0.00  0.00    +0.277 C 
ENDBRANCH   7  20
BRANCH   8  22
ATOM     22  O   LIG A   1      -4.765   7.988 129.533  0.00  0.00    -0.501 OA
ATOM     23  H   LIG A   1      -3.941   7.670 129.114  0.00  0.00    +0.292 HD
ENDBRANCH   8  22
TORSDOF 4
ENDMDL
MODEL 5
REMARK VINA RESULT:      -6.9      7.180      8.819
REMARK  Name = NuBBE_2256
REMARK  6 active torsions:
REMARK  status: ('A' for Active; 'I' for Inactive)
REMARK    1  A    between atoms: O_1  and  C_2
REMARK    2  A    between atoms: C_7  and  O_8
REMARK    3  A    between atoms: O_8  and  C_9
REMARK    4  A    between atoms: C_10  and  O_11
REMARK    5  A    between atoms: O_11  and  C_12
REMARK    6  A    between atoms: C_13  and  O_14
REMARK                            x       y       z     vdW  Elec       q    Type
REMARK                         _______ _______ _______ _____ _____    ______ ____
ROOT
ATOM      1  C   LIG A   1     -11.588   8.365 128.580  0.00  0.00    +0.131 A 
ATOM      2  C   LIG A   1     -11.117   7.348 129.409  0.00  0.00    +0.106 A 
ATOM      3  C   LIG A   1     -10.069   6.424 128.967  0.00  0.00    +0.204 A 
ATOM      4  C   LIG A   1      -9.606   5.422 129.931  0.00  0.00    +0.072 A 
ATOM      5  C   LIG A   1      -8.588   4.535 129.574  0.00  0.00    +0.065 A 
ATOM      6  C   LIG A   1      -8.110   3.588 130.491  0.00  0.00    +0.166 A 
ATOM      7  C   LIG A   1      -8.628   3.587 131.796  0.00  0.00    +0.207 A 
ATOM      8  C   LIG A   1      -9.655   4.495 132.128  0.00  0.00    +0.206 A 
ATOM      9  C   LIG A   1     -10.169   5.400 131.198  0.00  0.00    +0.184 A 
ATOM     10  O   LIG A   1     -11.193   6.229 131.584  0.00  0.00    -0.451 OA
ATOM     11  O   LIG A   1      -9.601   6.503 127.836  0.00  0.00    -0.286 OA
ATOM     12  C   LIG A   1     -11.631   7.183 130.694  0.00  0.00    +0.143 A 
ATOM     13  C   LIG A   1     -12.648   8.031 131.139  0.00  0.00    +0.047 A 
ATOM     14  C   LIG A   1     -13.123   9.050 130.308  0.00  0.00    +0.007 A 
ATOM     15  C   LIG A   1     -12.588   9.223 129.028  0.00  0.00    +0.046 A 
ENDROOT
BRANCH   1  16
ATOM     16  O   LIG A   1     -11.105   8.576 127.316  0.00  0.00    -0.506 OA
ATOM     17  H   LIG A   1     -10.637   9.439 127.310  0.00  0.00    +0.292 HD
ENDBRANCH   1  16
BRANCH   6  18
ATOM     18  O   LIG A   1      -7.103   2.721 130.159  0.00  0.00    -0.491 OA
ATOM     19  C   LIG A   1      -5.810   3.295 129.988  0.00  0.00    +0.277 C 
ENDBRANCH   6  18
BRANCH   7  20
ATOM     20  O   LIG A   1      -8.211   2.827 132.864  0.00  0.00    -0.488 OA
ATOM     21  C   LIG A   1      -7.040   3.236 133.558  0.00  0.00    +0.277 C 
ENDBRANCH   7  20
BRANCH   8  22
ATOM     22  O   LIG A   1     -10.158   4.496 133.408  0.00  0.00    -0.501 OA
ATOM     23  H   LIG A   1     -11.115   4.330 133.309  0.00  0.00    +0.292 HD
ENDBRANCH   8  22
TORSDOF 4
ENDMDL
MODEL 6
REMARK VINA RESULT:      -6.7      6.899     10.043
REMARK  Name = NuBBE_2256
REMARK  6 active torsions:
REMARK  status: ('A' for Active; 'I' for Inactive)
REMARK    1  A    between atoms: O_1  and  C_2
REMARK    2  A    between atoms: C_7  and  O_8
REMARK    3  A    between atoms: O_8  and  C_9
REMARK    4  A    between atoms: C_10  and  O_11
REMARK    5  A    between atoms: O_11  and  C_12
REMARK    6  A    between atoms: C_13  and  O_14
REMARK                            x       y       z     vdW  Elec       q    Type
REMARK                         _______ _______ _______ _____ _____    ______ ____
ROOT
ATOM      1  C   LIG A   1      -7.480   3.558 131.519  0.00  0.00    +0.131 A 
ATOM      2  C   LIG A   1      -8.499   4.491 131.337  0.00  0.00    +0.106 A 
ATOM      3  C   LIG A   1      -8.634   5.244 130.087  0.00  0.00    +0.204 A 
ATOM      4  C   LIG A   1      -9.769   6.163 129.975  0.00  0.00    +0.072 A 
ATOM      5  C   LIG A   1      -9.964   6.884 128.794  0.00  0.00    +0.065 A 
ATOM      6  C   LIG A   1     -11.060   7.747 128.657  0.00  0.00    +0.166 A 
ATOM      7  C   LIG A   1     -11.996   7.828 129.701  0.00  0.00    +0.207 A 
ATOM      8  C   LIG A   1     -11.773   7.087 130.880  0.00  0.00    +0.206 A 
ATOM      9  C   LIG A   1     -10.652   6.272 131.039  0.00  0.00    +0.184 A 
ATOM     10  O   LIG A   1     -10.484   5.609 132.230  0.00  0.00    -0.451 OA
ATOM     11  O   LIG A   1      -7.827   5.094 129.176  0.00  0.00    -0.286 OA
ATOM     12  C   LIG A   1      -9.430   4.733 132.347  0.00  0.00    +0.143 A 
ATOM     13  C   LIG A   1      -9.317   4.050 133.560  0.00  0.00    +0.047 A 
ATOM     14  C   LIG A   1      -8.294   3.116 133.744  0.00  0.00    +0.007 A 
ATOM     15  C   LIG A   1      -7.377   2.863 132.720  0.00  0.00    +0.046 A 
ENDROOT
BRANCH   1  16
ATOM     16  O   LIG A   1      -6.551   3.274 130.553  0.00  0.00    -0.506 OA
ATOM     17  H   LIG A   1      -6.071   4.104 130.342  0.00  0.00    +0.292 HD
ENDBRANCH   1  16
BRANCH   6  18
ATOM     18  O   LIG A   1     -11.271   8.451 127.500  0.00  0.00    -0.491 OA
ATOM     19  C   LIG A   1     -10.953   7.774 126.286  0.00  0.00    +0.277 C 
ENDBRANCH   6  18
BRANCH   7  20
ATOM     20  O   LIG A   1     -13.187   8.516 129.709  0.00  0.00    -0.488 OA
ATOM     21  C   LIG A   1     -13.140   9.931 129.839  0.00  0.00    +0.277 C 
ENDBRANCH   7  20
BRANCH   8  22
ATOM     22  O   LIG A   1     -12.693   7.164 131.900  0.00  0.00    -0.501 OA
ATOM     23  H   LIG A   1     -12.545   8.036 132.315  0.00  0.00    +0.292 HD
ENDBRANCH   8  22
TORSDOF 4
ENDMDL
MODEL 7
REMARK VINA RESULT:      -6.6      7.775     10.539
REMARK  Name = NuBBE_2256
REMARK  6 active torsions:
REMARK  status: ('A' for Active; 'I' for Inactive)
REMARK    1  A    between atoms: O_1  and  C_2
REMARK    2  A    between atoms: C_7  and  O_8
REMARK    3  A    between atoms: O_8  and  C_9
REMARK    4  A    between atoms: C_10  and  O_11
REMARK    5  A    between atoms: O_11  and  C_12
REMARK    6  A    between atoms: C_13  and  O_14
REMARK                            x       y       z     vdW  Elec       q    Type
REMARK                         _______ _______ _______ _____ _____    ______ ____
ROOT
ATOM      1  C   LIG A   1      -4.422   6.156 132.470  0.00  0.00    +0.131 A 
ATOM      2  C   LIG A   1      -5.810   6.208 132.352  0.00  0.00    +0.106 A 
ATOM      3  C   LIG A   1      -6.457   6.869 131.215  0.00  0.00    +0.204 A 
ATOM      4  C   LIG A   1      -7.921   6.825 131.156  0.00  0.00    +0.072 A 
ATOM      5  C   LIG A   1      -8.589   7.413 130.079  0.00  0.00    +0.065 A 
ATOM      6  C   LIG A   1      -9.987   7.357 129.989  0.00  0.00    +0.166 A 
ATOM      7  C   LIG A   1     -10.702   6.644 130.966  0.00  0.00    +0.207 A 
ATOM      8  C   LIG A   1      -9.999   6.061 132.040  0.00  0.00    +0.206 A 
ATOM      9  C   LIG A   1      -8.613   6.165 132.160  0.00  0.00    +0.184 A 
ATOM     10  O   LIG A   1      -8.002   5.601 133.253  0.00  0.00    -0.451 OA
ATOM     11  O   LIG A   1      -5.788   7.426 130.351  0.00  0.00    -0.286 OA
ATOM     12  C   LIG A   1      -6.628   5.624 133.318  0.00  0.00    +0.143 A 
ATOM     13  C   LIG A   1      -6.045   5.006 134.426  0.00  0.00    +0.047 A 
ATOM     14  C   LIG A   1      -4.653   4.955 134.547  0.00  0.00    +0.007 A 
ATOM     15  C   LIG A   1      -3.838   5.524 133.564  0.00  0.00    +0.046 A 
ENDROOT
BRANCH   1  16
ATOM     16  O   LIG A   1      -3.576   6.702 131.541  0.00  0.00    -0.506 OA
ATOM     17  H   LIG A   1      -3.555   7.672 131.683  0.00  0.00    +0.292 HD
ENDBRANCH   1  16
BRANCH   6  18
ATOM     18  O   LIG A   1     -10.655   7.917 128.933  0.00  0.00    -0.491 OA
ATOM     19  C   LIG A   1     -10.537   7.240 127.683  0.00  0.00    +0.277 C 
ENDBRANCH   6  18
BRANCH   7  20
ATOM     20  O   LIG A   1     -12.050   6.373 130.989  0.00  0.00    -0.488 OA
ATOM     21  C   LIG A   1     -12.931   7.405 131.413  0.00  0.00    +0.277 C 
ENDBRANCH   7  20
BRANCH   8  22
ATOM     22  O   LIG A   1     -10.700   5.359 132.994  0.00  0.00    -0.501 OA
ATOM     23  H   LIG A   1     -10.093   5.281 133.755  0.00  0.00    +0.292 HD
ENDBRANCH   8  22
TORSDOF 4
ENDMDL
MODEL 8
REMARK VINA RESULT:      -6.6      6.648      8.785
REMARK  Name = NuBBE_2256
REMARK  6 active torsions:
REMARK  status: ('A' for Active; 'I' for Inactive)
REMARK    1  A    between atoms: O_1  and  C_2
REMARK    2  A    between atoms: C_7  and  O_8
REMARK    3  A    between atoms: O_8  and  C_9
REMARK    4  A    between atoms: C_10  and  O_11
REMARK    5  A    between atoms: O_11  and  C_12
REMARK    6  A    between atoms: C_13  and  O_14
REMARK                            x       y       z     vdW  Elec       q    Type
REMARK                         _______ _______ _______ _____ _____    ______ ____
ROOT
ATOM      1  C   LIG A   1     -12.384   7.826 130.349  0.00  0.00    +0.131 A 
ATOM      2  C   LIG A   1     -11.271   7.023 130.104  0.00  0.00    +0.106 A 
ATOM      3  C   LIG A   1     -10.701   6.167 131.148  0.00  0.00    +0.204 A 
ATOM      4  C   LIG A   1      -9.563   5.322 130.776  0.00  0.00    +0.072 A 
ATOM      5  C   LIG A   1      -8.999   4.462 131.722  0.00  0.00    +0.065 A 
ATOM      6  C   LIG A   1      -7.928   3.625 131.379  0.00  0.00    +0.166 A 
ATOM      7  C   LIG A   1      -7.472   3.617 130.050  0.00  0.00    +0.207 A 
ATOM      8  C   LIG A   1      -8.062   4.495 129.117  0.00  0.00    +0.206 A 
ATOM      9  C   LIG A   1      -9.090   5.369 129.473  0.00  0.00    +0.184 A 
ATOM     10  O   LIG A   1      -9.590   6.219 128.519  0.00  0.00    -0.451 OA
ATOM     11  O   LIG A   1     -11.173   6.160 132.279  0.00  0.00    -0.286 OA
ATOM     12  C   LIG A   1     -10.667   7.011 128.848  0.00  0.00    +0.143 A 
ATOM     13  C   LIG A   1     -11.169   7.833 127.838  0.00  0.00    +0.047 A 
ATOM     14  C   LIG A   1     -12.284   8.640 128.083  0.00  0.00    +0.007 A 
ATOM     15  C   LIG A   1     -12.899   8.633 129.339  0.00  0.00    +0.046 A 
ENDROOT
BRANCH   1  16
ATOM     16  O   LIG A   1     -13.021   7.863 131.561  0.00  0.00    -0.506 OA
ATOM     17  H   LIG A   1     -13.853   7.348 131.483  0.00  0.00    +0.292 HD
ENDBRANCH   1  16
BRANCH   6  18
ATOM     18  O   LIG A   1      -7.374   2.768 132.293  0.00  0.00    -0.491 OA
ATOM     19  C   LIG A   1      -7.489   3.149 133.662  0.00  0.00    +0.277 C 
ENDBRANCH   6  18
BRANCH   7  20
ATOM     20  O   LIG A   1      -6.526   2.789 129.493  0.00  0.00    -0.488 OA
ATOM     21  C   LIG A   1      -5.156   3.090 129.726  0.00  0.00    +0.277 C 
ENDBRANCH   7  20
BRANCH   8  22
ATOM     22  O   LIG A   1      -7.618   4.482 127.816  0.00  0.00    -0.501 OA
ATOM     23  H   LIG A   1      -8.126   5.183 127.363  0.00  0.00    +0.292 HD
ENDBRANCH   8  22
TORSDOF 4
ENDMDL
MODEL 9
REMARK VINA RESULT:      -6.5      6.332      8.210
REMARK  Name = NuBBE_2256
REMARK  6 active torsions:
REMARK  status: ('A' for Active; 'I' for Inactive)
REMARK    1  A    between atoms: O_1  and  C_2
REMARK    2  A    between atoms: C_7  and  O_8
REMARK    3  A    between atoms: O_8  and  C_9
REMARK    4  A    between atoms: C_10  and  O_11
REMARK    5  A    between atoms: O_11  and  C_12
REMARK    6  A    between atoms: C_13  and  O_14
REMARK                            x       y       z     vdW  Elec       q    Type
REMARK                         _______ _______ _______ _____ _____    ______ ____
ROOT
ATOM      1  C   LIG A   1      -8.501  -2.781 124.484  0.00  0.00    +0.131 A 
ATOM      2  C   LIG A   1      -7.752  -2.612 125.648  0.00  0.00    +0.106 A 
ATOM      3  C   LIG A   1      -8.311  -2.914 126.968  0.00  0.00    +0.204 A 
ATOM      4  C   LIG A   1      -7.426  -2.753 128.125  0.00  0.00    +0.072 A 
ATOM      5  C   LIG A   1      -7.896  -3.056 129.405  0.00  0.00    +0.065 A 
ATOM      6  C   LIG A   1      -7.057  -2.937 130.522  0.00  0.00    +0.166 A 
ATOM      7  C   LIG A   1      -5.716  -2.568 130.326  0.00  0.00    +0.207 A 
ATOM      8  C   LIG A   1      -5.270  -2.270 129.022  0.00  0.00    +0.206 A 
ATOM      9  C   LIG A   1      -6.120  -2.334 127.918  0.00  0.00    +0.184 A 
ATOM     10  O   LIG A   1      -5.624  -1.994 126.684  0.00  0.00    -0.451 OA
ATOM     11  O   LIG A   1      -9.471  -3.295 127.085  0.00  0.00    -0.286 OA
ATOM     12  C   LIG A   1      -6.438  -2.151 125.586  0.00  0.00    +0.143 A 
ATOM     13  C   LIG A   1      -5.882  -1.830 124.346  0.00  0.00    +0.047 A 
ATOM     14  C   LIG A   1      -6.633  -1.997 123.179  0.00  0.00    +0.007 A 
ATOM     15  C   LIG A   1      -7.943  -2.480 123.245  0.00  0.00    +0.046 A 
ENDROOT
BRANCH   1  16
ATOM     16  O   LIG A   1      -9.790  -3.244 124.492  0.00  0.00    -0.506 OA
ATOM     17  H   LIG A   1     -10.069  -3.380 123.561  0.00  0.00    +0.292 HD
ENDBRANCH   1  16
BRANCH   6  18
ATOM     18  O   LIG A   1      -7.500  -3.243 131.782  0.00  0.00    -0.491 OA
ATOM     19  C   LIG A   1      -7.752  -2.136 132.645  0.00  0.00    +0.277 C 
ENDBRANCH   6  18
BRANCH   7  20
ATOM     20  O   LIG A   1      -4.714  -2.514 131.268  0.00  0.00    -0.488 OA
ATOM     21  C   LIG A   1      -4.147  -3.740 131.711  0.00  0.00    +0.277 C 
ENDBRANCH   7  20
BRANCH   8  22
ATOM     22  O   LIG A   1      -3.955  -1.913 128.832  0.00  0.00    -0.501 OA
ATOM     23  H   LIG A   1      -3.941  -1.419 127.989  0.00  0.00    +0.292 HD
ENDBRANCH   8  22
TORSDOF 4
ENDMDL
