MODEL 1
REMARK VINA RESULT:      -4.6      0.000      0.000
REMARK  Name = NuBBE_1201
REMARK  3 active torsions:
REMARK  status: ('A' for Active; 'I' for Inactive)
REMARK    1  A    between atoms: O_1  and  C_2
REMARK    2  A    between atoms: C_2  and  C_3
REMARK    3  A    between atoms: C_6  and  C_7
REMARK                            x       y       z     vdW  Elec       q    Type
REMARK                         _______ _______ _______ _____ _____    ______ ____
ROOT
ATOM      1  C   LIG A   1     -13.217   9.808 129.705  0.00  0.00    +0.131 A 
ATOM      2  C   LIG A   1     -13.293   9.243 128.449  0.00  0.00    +0.048 A 
ATOM      3  C   LIG A   1     -12.912   7.889 128.590  0.00  0.00    +0.053 A 
ATOM      4  C   LIG A   1     -12.624   7.700 129.926  0.00  0.00    +0.167 A 
ATOM      5  O   LIG A   1     -12.810   8.869 130.610  0.00  0.00    -0.455 OA
ENDROOT
BRANCH   4   6
ATOM      6  C   LIG A   1     -12.188   6.541 130.656  0.00  0.00    +0.296 C 
ATOM      7  O   LIG A   1     -12.221   6.420 131.878  0.00  0.00    -0.292 OA
ENDBRANCH   4   6
BRANCH   1   8
ATOM      8  C   LIG A   1     -13.476  11.163 130.244  0.00  0.00    +0.230 C 
BRANCH   8   9
ATOM      9  O   LIG A   1     -13.347  12.097 129.179  0.00  0.00    -0.387 OA
ATOM     10  H   LIG A   1     -13.229  12.969 129.591  0.00  0.00    +0.210 HD
ENDBRANCH   8   9
ENDBRANCH   1   8
TORSDOF 3
ENDMDL
MODEL 2
REMARK VINA RESULT:      -4.6      2.449      3.252
REMARK  Name = NuBBE_1201
REMARK  3 active torsions:
REMARK  status: ('A' for Active; 'I' for Inactive)
REMARK    1  A    between atoms: O_1  and  C_2
REMARK    2  A    between atoms: C_2  and  C_3
REMARK    3  A    between atoms: C_6  and  C_7
REMARK                            x       y       z     vdW  Elec       q    Type
REMARK                         _______ _______ _______ _____ _____    ______ ____
ROOT
ATOM      1  C   LIG A   1     -11.544   7.862 128.258  0.00  0.00    +0.131 A 
ATOM      2  C   LIG A   1     -12.421   8.822 128.721  0.00  0.00    +0.048 A 
ATOM      3  C   LIG A   1     -12.688   8.509 130.074  0.00  0.00    +0.053 A 
ATOM      4  C   LIG A   1     -11.958   7.375 130.365  0.00  0.00    +0.167 A 
ATOM      5  O   LIG A   1     -11.259   6.977 129.260  0.00  0.00    -0.455 OA
ENDROOT
BRANCH   4   6
ATOM      6  C   LIG A   1     -11.833   6.602 131.571  0.00  0.00    +0.296 C 
ATOM      7  O   LIG A   1     -10.829   6.551 132.278  0.00  0.00    -0.292 OA
ENDBRANCH   4   6
BRANCH   1   8
ATOM      8  C   LIG A   1     -10.882   7.609 126.958  0.00  0.00    +0.230 C 
BRANCH   8   9
ATOM      9  O   LIG A   1     -11.662   6.661 126.240  0.00  0.00    -0.387 OA
ATOM     10  H   LIG A   1     -11.501   6.831 125.297  0.00  0.00    +0.210 HD
ENDBRANCH   8   9
ENDBRANCH   1   8
TORSDOF 3
ENDMDL
MODEL 3
REMARK VINA RESULT:      -4.5      1.797      2.480
REMARK  Name = NuBBE_1201
REMARK  3 active torsions:
REMARK  status: ('A' for Active; 'I' for Inactive)
REMARK    1  A    between atoms: O_1  and  C_2
REMARK    2  A    between atoms: C_2  and  C_3
REMARK    3  A    between atoms: C_6  and  C_7
REMARK                            x       y       z     vdW  Elec       q    Type
REMARK                         _______ _______ _______ _____ _____    ______ ____
ROOT
ATOM      1  C   LIG A   1     -13.095   9.510 129.970  0.00  0.00    +0.131 A 
ATOM      2  C   LIG A   1     -12.706   8.394 130.682  0.00  0.00    +0.048 A 
ATOM      3  C   LIG A   1     -12.611   7.333 129.752  0.00  0.00    +0.053 A 
ATOM      4  C   LIG A   1     -12.947   7.860 128.522  0.00  0.00    +0.167 A 
ATOM      5  O   LIG A   1     -13.243   9.188 128.650  0.00  0.00    -0.455 OA
ENDROOT
BRANCH   4   6
ATOM      6  C   LIG A   1     -13.029   7.263 127.216  0.00  0.00    +0.296 C 
ATOM      7  O   LIG A   1     -12.090   6.747 126.614  0.00  0.00    -0.292 OA
ENDBRANCH   4   6
BRANCH   1   8
ATOM      8  C   LIG A   1     -13.372  10.920 130.331  0.00  0.00    +0.230 C 
BRANCH   8   9
ATOM      9  O   LIG A   1     -13.220  11.715 129.162  0.00  0.00    -0.387 OA
ATOM     10  H   LIG A   1     -13.076  11.098 128.427  0.00  0.00    +0.210 HD
ENDBRANCH   8   9
ENDBRANCH   1   8
TORSDOF 3
ENDMDL
MODEL 4
REMARK VINA RESULT:      -4.5      2.371      4.040
REMARK  Name = NuBBE_1201
REMARK  3 active torsions:
REMARK  status: ('A' for Active; 'I' for Inactive)
REMARK    1  A    between atoms: O_1  and  C_2
REMARK    2  A    between atoms: C_2  and  C_3
REMARK    3  A    between atoms: C_6  and  C_7
REMARK                            x       y       z     vdW  Elec       q    Type
REMARK                         _______ _______ _______ _____ _____    ______ ____
ROOT
ATOM      1  C   LIG A   1     -12.218   7.451 130.230  0.00  0.00    +0.131 A 
ATOM      2  C   LIG A   1     -12.694   8.711 129.931  0.00  0.00    +0.048 A 
ATOM      3  C   LIG A   1     -12.641   8.841 128.524  0.00  0.00    +0.053 A 
ATOM      4  C   LIG A   1     -12.137   7.652 128.040  0.00  0.00    +0.167 A 
ATOM      5  O   LIG A   1     -11.878   6.800 129.077  0.00  0.00    -0.455 OA
ENDROOT
BRANCH   4   6
ATOM      6  C   LIG A   1     -11.861   7.205 126.701  0.00  0.00    +0.296 C 
ATOM      7  O   LIG A   1     -10.793   6.733 126.318  0.00  0.00    -0.292 OA
ENDBRANCH   4   6
BRANCH   1   8
ATOM      8  C   LIG A   1     -12.012   6.697 131.488  0.00  0.00    +0.230 C 
BRANCH   8   9
ATOM      9  O   LIG A   1     -11.589   5.381 131.153  0.00  0.00    -0.387 OA
ATOM     10  H   LIG A   1     -10.732   5.249 131.590  0.00  0.00    +0.210 HD
ENDBRANCH   8   9
ENDBRANCH   1   8
TORSDOF 3
ENDMDL
MODEL 5
REMARK VINA RESULT:      -4.4      3.125      3.686
REMARK  Name = NuBBE_1201
REMARK  3 active torsions:
REMARK  status: ('A' for Active; 'I' for Inactive)
REMARK    1  A    between atoms: O_1  and  C_2
REMARK    2  A    between atoms: C_2  and  C_3
REMARK    3  A    between atoms: C_6  and  C_7
REMARK                            x       y       z     vdW  Elec       q    Type
REMARK                         _______ _______ _______ _____ _____    ______ ____
ROOT
ATOM      1  C   LIG A   1     -12.602   6.994 128.509  0.00  0.00    +0.131 A 
ATOM      2  C   LIG A   1     -12.907   7.614 129.703  0.00  0.00    +0.048 A 
ATOM      3  C   LIG A   1     -12.311   6.841 130.726  0.00  0.00    +0.053 A 
ATOM      4  C   LIG A   1     -11.673   5.790 130.100  0.00  0.00    +0.167 A 
ATOM      5  O   LIG A   1     -11.847   5.880 128.748  0.00  0.00    -0.455 OA
ENDROOT
BRANCH   4   6
ATOM      6  C   LIG A   1     -10.907   4.690 130.621  0.00  0.00    +0.296 C 
ATOM      7  O   LIG A   1     -10.836   3.573 130.113  0.00  0.00    -0.292 OA
ENDBRANCH   4   6
BRANCH   1   8
ATOM      8  C   LIG A   1     -12.912   7.279 127.089  0.00  0.00    +0.230 C 
BRANCH   8   9
ATOM      9  O   LIG A   1     -11.969   6.585 126.281  0.00  0.00    -0.387 OA
ATOM     10  H   LIG A   1     -11.126   6.608 126.762  0.00  0.00    +0.210 HD
ENDBRANCH   8   9
ENDBRANCH   1   8
TORSDOF 3
ENDMDL
MODEL 6
REMARK VINA RESULT:      -4.3      2.987      5.059
REMARK  Name = NuBBE_1201
REMARK  3 active torsions:
REMARK  status: ('A' for Active; 'I' for Inactive)
REMARK    1  A    between atoms: O_1  and  C_2
REMARK    2  A    between atoms: C_2  and  C_3
REMARK    3  A    between atoms: C_6  and  C_7
REMARK                            x       y       z     vdW  Elec       q    Type
REMARK                         _______ _______ _______ _____ _____    ______ ____
ROOT
ATOM      1  C   LIG A   1     -11.432   5.587 130.544  0.00  0.00    +0.131 A 
ATOM      2  C   LIG A   1     -11.980   6.538 131.380  0.00  0.00    +0.048 A 
ATOM      3  C   LIG A   1     -12.872   7.303 130.595  0.00  0.00    +0.053 A 
ATOM      4  C   LIG A   1     -12.822   6.777 129.320  0.00  0.00    +0.167 A 
ATOM      5  O   LIG A   1     -11.945   5.729 129.285  0.00  0.00    -0.455 OA
ENDROOT
BRANCH   4   6
ATOM      6  C   LIG A   1     -13.505   7.140 128.108  0.00  0.00    +0.296 C 
ATOM      7  O   LIG A   1     -13.064   6.980 126.972  0.00  0.00    -0.292 OA
ENDBRANCH   4   6
BRANCH   1   8
ATOM      8  C   LIG A   1     -10.448   4.495 130.727  0.00  0.00    +0.230 C 
BRANCH   8   9
ATOM      9  O   LIG A   1     -11.159   3.265 130.796  0.00  0.00    -0.387 OA
ATOM     10  H   LIG A   1     -12.010   3.463 131.219  0.00  0.00    +0.210 HD
ENDBRANCH   8   9
ENDBRANCH   1   8
TORSDOF 3
ENDMDL
MODEL 7
REMARK VINA RESULT:      -4.2      0.951      3.964
REMARK  Name = NuBBE_1201
REMARK  3 active torsions:
REMARK  status: ('A' for Active; 'I' for Inactive)
REMARK    1  A    between atoms: O_1  and  C_2
REMARK    2  A    between atoms: C_2  and  C_3
REMARK    3  A    between atoms: C_6  and  C_7
REMARK                            x       y       z     vdW  Elec       q    Type
REMARK                         _______ _______ _______ _____ _____    ______ ____
ROOT
ATOM      1  C   LIG A   1     -12.262   7.547 130.358  0.00  0.00    +0.131 A 
ATOM      2  C   LIG A   1     -12.121   7.430 128.991  0.00  0.00    +0.048 A 
ATOM      3  C   LIG A   1     -12.571   8.649 128.431  0.00  0.00    +0.053 A 
ATOM      4  C   LIG A   1     -12.961   9.444 129.489  0.00  0.00    +0.167 A 
ATOM      5  O   LIG A   1     -12.774   8.777 130.666  0.00  0.00    -0.455 OA
ENDROOT
BRANCH   4   6
ATOM      6  C   LIG A   1     -13.499  10.777 129.535  0.00  0.00    +0.296 C 
ATOM      7  O   LIG A   1     -13.499  11.507 130.524  0.00  0.00    -0.292 OA
ENDBRANCH   4   6
BRANCH   1   8
ATOM      8  C   LIG A   1     -11.983   6.652 131.505  0.00  0.00    +0.230 C 
BRANCH   8   9
ATOM      9  O   LIG A   1     -11.650   5.367 130.993  0.00  0.00    -0.387 OA
ATOM     10  H   LIG A   1     -11.836   5.394 130.040  0.00  0.00    +0.210 HD
ENDBRANCH   8   9
ENDBRANCH   1   8
TORSDOF 3
ENDMDL
MODEL 8
REMARK VINA RESULT:      -4.0      3.144      5.665
REMARK  Name = NuBBE_1201
REMARK  3 active torsions:
REMARK  status: ('A' for Active; 'I' for Inactive)
REMARK    1  A    between atoms: O_1  and  C_2
REMARK    2  A    between atoms: C_2  and  C_3
REMARK    3  A    between atoms: C_6  and  C_7
REMARK                            x       y       z     vdW  Elec       q    Type
REMARK                         _______ _______ _______ _____ _____    ______ ____
ROOT
ATOM      1  C   LIG A   1      -9.231   5.765 132.408  0.00  0.00    +0.131 A 
ATOM      2  C   LIG A   1      -8.631   6.469 131.384  0.00  0.00    +0.048 A 
ATOM      3  C   LIG A   1      -9.675   6.994 130.587  0.00  0.00    +0.053 A 
ATOM      4  C   LIG A   1     -10.856   6.584 131.170  0.00  0.00    +0.167 A 
ATOM      5  O   LIG A   1     -10.590   5.835 132.281  0.00  0.00    -0.455 OA
ENDROOT
BRANCH   4   6
ATOM      6  C   LIG A   1     -12.230   6.809 130.808  0.00  0.00    +0.296 C 
ATOM      7  O   LIG A   1     -13.122   7.136 131.587  0.00  0.00    -0.292 OA
ENDBRANCH   4   6
BRANCH   1   8
ATOM      8  C   LIG A   1      -8.723   4.989 133.562  0.00  0.00    +0.230 C 
BRANCH   8   9
ATOM      9  O   LIG A   1      -9.753   4.106 133.990  0.00  0.00    -0.387 OA
ATOM     10  H   LIG A   1      -9.955   3.532 133.233  0.00  0.00    +0.210 HD
ENDBRANCH   8   9
ENDBRANCH   1   8
TORSDOF 3
ENDMDL
MODEL 9
REMARK VINA RESULT:      -3.9      3.995      5.597
REMARK  Name = NuBBE_1201
REMARK  3 active torsions:
REMARK  status: ('A' for Active; 'I' for Inactive)
REMARK    1  A    between atoms: O_1  and  C_2
REMARK    2  A    between atoms: C_2  and  C_3
REMARK    3  A    between atoms: C_6  and  C_7
REMARK                            x       y       z     vdW  Elec       q    Type
REMARK                         _______ _______ _______ _____ _____    ______ ____
ROOT
ATOM      1  C   LIG A   1     -10.244   5.577 130.156  0.00  0.00    +0.131 A 
ATOM      2  C   LIG A   1      -9.757   6.772 130.643  0.00  0.00    +0.048 A 
ATOM      3  C   LIG A   1      -9.881   7.717 129.599  0.00  0.00    +0.053 A 
ATOM      4  C   LIG A   1     -10.439   7.047 128.529  0.00  0.00    +0.167 A 
ATOM      5  O   LIG A   1     -10.663   5.742 128.865  0.00  0.00    -0.455 OA
ENDROOT
BRANCH   4   6
ATOM      6  C   LIG A   1     -10.794   7.486 127.207  0.00  0.00    +0.296 C 
ATOM      7  O   LIG A   1     -10.685   6.813 126.185  0.00  0.00    -0.292 OA
ENDBRANCH   4   6
BRANCH   1   8
ATOM      8  C   LIG A   1     -10.399   4.217 130.722  0.00  0.00    +0.230 C 
BRANCH   8   9
ATOM      9  O   LIG A   1     -10.032   3.275 129.721  0.00  0.00    -0.387 OA
ATOM     10  H   LIG A   1      -9.650   3.787 128.990  0.00  0.00    +0.210 HD
ENDBRANCH   8   9
ENDBRANCH   1   8
TORSDOF 3
ENDMDL
