MODEL 1
REMARK VINA RESULT:      -6.4      0.000      0.000
REMARK  Name = NuBBE_349
REMARK  12 active torsions:
REMARK  status: ('A' for Active; 'I' for Inactive)
REMARK    1  A    between atoms: O_1  and  C_2
REMARK    2  A    between atoms: C_2  and  C_3
REMARK    3  A    between atoms: C_5  and  C_6
REMARK    4  A    between atoms: C_6  and  C_7
REMARK    5  A    between atoms: C_8  and  C_9
REMARK    6  A    between atoms: C_8  and  C_10
REMARK    7  A    between atoms: C_10  and  C_11
REMARK    8  A    between atoms: C_11  and  C_12
REMARK    9  A    between atoms: C_13  and  C_14
REMARK   10  A    between atoms: C_13  and  C_15
REMARK   11  A    between atoms: C_16  and  O_17
REMARK   12  A    between atoms: O_17  and  C_18
REMARK                            x       y       z     vdW  Elec       q    Type
REMARK                         _______ _______ _______ _____ _____    ______ ____
ROOT
ATOM      1  C   LIG A   1      -9.098   1.638 123.295  0.00  0.00    +0.059 A 
ATOM      2  C   LIG A   1      -8.203   1.417 124.344  0.00  0.00    +0.022 A 
ATOM      3  C   LIG A   1      -6.999   2.143 124.440  0.00  0.00    -0.001 A 
ATOM      4  C   LIG A   1      -6.714   3.118 123.467  0.00  0.00    +0.124 A 
ATOM      5  C   LIG A   1      -7.597   3.317 122.400  0.00  0.00    +0.046 A 
ATOM      6  C   LIG A   1      -8.788   2.589 122.319  0.00  0.00    +0.018 A 
ENDROOT
BRANCH   1   7
ATOM      7  C   LIG A   1     -10.405   0.931 123.192  0.00  0.00    +0.337 C 
ATOM      8  O   LIG A   1     -10.606   0.037 122.395  0.00  0.00    -0.245 OA
BRANCH   7   9
ATOM      9  O   LIG A   1     -11.332   1.344 124.087  0.00  0.00    -0.477 OA
ATOM     10  H   LIG A   1     -11.594   0.694 124.759  0.00  0.00    +0.295 HD
ENDBRANCH   7   9
ENDBRANCH   1   7
BRANCH   4  11
ATOM     11  O   LIG A   1      -5.536   3.807 123.604  0.00  0.00    -0.495 OA
ATOM     12  C   LIG A   1      -5.048   4.428 122.418  0.00  0.00    +0.277 C 
ENDBRANCH   4  11
BRANCH   3  13
ATOM     13  C   LIG A   1      -6.048   1.836 125.582  0.00  0.00    +0.066 C 
BRANCH  13  14
ATOM     14  C   LIG A   1      -5.712   0.369 125.680  0.00  0.00    -0.023 C 
ATOM     15  C   LIG A   1      -6.213  -0.558 126.524  0.00  0.00    -0.076 C 
ATOM     16  C   LIG A   1      -7.257  -0.301 127.576  0.00  0.00    +0.038 C 
BRANCH  15  17
ATOM     17  C   LIG A   1      -5.727  -1.993 126.436  0.00  0.00    +0.034 C 
BRANCH  17  18
ATOM     18  C   LIG A   1      -5.831  -2.561 125.018  0.00  0.00    +0.031 C 
BRANCH  18  19
ATOM     19  C   LIG A   1      -7.238  -3.010 124.722  0.00  0.00    -0.028 C 
ATOM     20  C   LIG A   1      -7.987  -2.673 123.654  0.00  0.00    -0.080 C 
ATOM     21  C   LIG A   1      -7.545  -1.757 122.547  0.00  0.00    +0.038 C 
ATOM     22  C   LIG A   1      -9.393  -3.192 123.508  0.00  0.00    +0.038 C 
ENDBRANCH  18  19
ENDBRANCH  17  18
ENDBRANCH  15  17
ENDBRANCH  13  14
ENDBRANCH   3  13
TORSDOF 8
ENDMDL
MODEL 2
REMARK VINA RESULT:      -6.4      3.410      5.999
REMARK  Name = NuBBE_349
REMARK  12 active torsions:
REMARK  status: ('A' for Active; 'I' for Inactive)
REMARK    1  A    between atoms: O_1  and  C_2
REMARK    2  A    between atoms: C_2  and  C_3
REMARK    3  A    between atoms: C_5  and  C_6
REMARK    4  A    between atoms: C_6  and  C_7
REMARK    5  A    between atoms: C_8  and  C_9
REMARK    6  A    between atoms: C_8  and  C_10
REMARK    7  A    between atoms: C_10  and  C_11
REMARK    8  A    between atoms: C_11  and  C_12
REMARK    9  A    between atoms: C_13  and  C_14
REMARK   10  A    between atoms: C_13  and  C_15
REMARK   11  A    between atoms: C_16  and  O_17
REMARK   12  A    between atoms: O_17  and  C_18
REMARK                            x       y       z     vdW  Elec       q    Type
REMARK                         _______ _______ _______ _____ _____    ______ ____
ROOT
ATOM      1  C   LIG A   1      -5.704  -3.381 123.545  0.00  0.00    +0.059 A 
ATOM      2  C   LIG A   1      -6.908  -3.672 124.191  0.00  0.00    +0.022 A 
ATOM      3  C   LIG A   1      -8.004  -2.788 124.123  0.00  0.00    -0.001 A 
ATOM      4  C   LIG A   1      -7.877  -1.605 123.373  0.00  0.00    +0.124 A 
ATOM      5  C   LIG A   1      -6.660  -1.300 122.752  0.00  0.00    +0.046 A 
ATOM      6  C   LIG A   1      -5.582  -2.188 122.828  0.00  0.00    +0.018 A 
ENDROOT
BRANCH   1   7
ATOM      7  C   LIG A   1      -4.546  -4.317 123.548  0.00  0.00    +0.337 C 
ATOM      8  O   LIG A   1      -3.395  -3.938 123.464  0.00  0.00    -0.245 OA
BRANCH   7   9
ATOM      9  O   LIG A   1      -4.884  -5.619 123.690  0.00  0.00    -0.477 OA
ATOM     10  H   LIG A   1      -4.294  -6.155 124.243  0.00  0.00    +0.295 HD
ENDBRANCH   7   9
ENDBRANCH   1   7
BRANCH   4  11
ATOM     11  O   LIG A   1      -8.970  -0.778 123.326  0.00  0.00    -0.495 OA
ATOM     12  C   LIG A   1      -8.784   0.516 123.894  0.00  0.00    +0.277 C 
ENDBRANCH   4  11
BRANCH   3  13
ATOM     13  C   LIG A   1      -9.275  -3.139 124.874  0.00  0.00    +0.066 C 
BRANCH  13  14
ATOM     14  C   LIG A   1      -9.013  -3.561 126.297  0.00  0.00    -0.023 C 
ATOM     15  C   LIG A   1      -8.536  -2.824 127.323  0.00  0.00    -0.076 C 
ATOM     16  C   LIG A   1      -8.162  -1.370 127.247  0.00  0.00    +0.038 C 
BRANCH  15  17
ATOM     17  C   LIG A   1      -8.357  -3.465 128.687  0.00  0.00    +0.034 C 
BRANCH  17  18
ATOM     18  C   LIG A   1      -7.632  -2.547 129.675  0.00  0.00    +0.031 C 
BRANCH  18  19
ATOM     19  C   LIG A   1      -6.346  -3.173 130.145  0.00  0.00    -0.028 C 
ATOM     20  C   LIG A   1      -5.150  -3.131 129.525  0.00  0.00    -0.080 C 
ATOM     21  C   LIG A   1      -4.884  -2.442 128.215  0.00  0.00    +0.038 C 
ATOM     22  C   LIG A   1      -3.953  -3.827 130.116  0.00  0.00    +0.038 C 
ENDBRANCH  18  19
ENDBRANCH  17  18
ENDBRANCH  15  17
ENDBRANCH  13  14
ENDBRANCH   3  13
TORSDOF 8
ENDMDL
MODEL 3
REMARK VINA RESULT:      -6.3      3.323      4.974
REMARK  Name = NuBBE_349
REMARK  12 active torsions:
REMARK  status: ('A' for Active; 'I' for Inactive)
REMARK    1  A    between atoms: O_1  and  C_2
REMARK    2  A    between atoms: C_2  and  C_3
REMARK    3  A    between atoms: C_5  and  C_6
REMARK    4  A    between atoms: C_6  and  C_7
REMARK    5  A    between atoms: C_8  and  C_9
REMARK    6  A    between atoms: C_8  and  C_10
REMARK    7  A    between atoms: C_10  and  C_11
REMARK    8  A    between atoms: C_11  and  C_12
REMARK    9  A    between atoms: C_13  and  C_14
REMARK   10  A    between atoms: C_13  and  C_15
REMARK   11  A    between atoms: C_16  and  O_17
REMARK   12  A    between atoms: O_17  and  C_18
REMARK                            x       y       z     vdW  Elec       q    Type
REMARK                         _______ _______ _______ _____ _____    ______ ____
ROOT
ATOM      1  C   LIG A   1      -4.993  -3.132 123.768  0.00  0.00    +0.059 A 
ATOM      2  C   LIG A   1      -4.986  -2.457 124.991  0.00  0.00    +0.022 A 
ATOM      3  C   LIG A   1      -5.743  -1.283 125.179  0.00  0.00    -0.001 A 
ATOM      4  C   LIG A   1      -6.529  -0.803 124.117  0.00  0.00    +0.124 A 
ATOM      5  C   LIG A   1      -6.511  -1.463 122.883  0.00  0.00    +0.046 A 
ATOM      6  C   LIG A   1      -5.755  -2.627 122.711  0.00  0.00    +0.018 A 
ENDROOT
BRANCH   1   7
ATOM      7  C   LIG A   1      -4.251  -4.405 123.550  0.00  0.00    +0.337 C 
ATOM      8  O   LIG A   1      -3.061  -4.439 123.310  0.00  0.00    -0.245 OA
BRANCH   7   9
ATOM      9  O   LIG A   1      -5.008  -5.519 123.681  0.00  0.00    -0.477 OA
ATOM     10  H   LIG A   1      -4.999  -5.940 124.556  0.00  0.00    +0.295 HD
ENDBRANCH   7   9
ENDBRANCH   1   7
BRANCH   4  11
ATOM     11  O   LIG A   1      -7.256   0.336 124.346  0.00  0.00    -0.495 OA
ATOM     12  C   LIG A   1      -7.010   1.412 123.445  0.00  0.00    +0.277 C 
ENDBRANCH   4  11
BRANCH   3  13
ATOM     13  C   LIG A   1      -5.670  -0.572 126.518  0.00  0.00    +0.066 C 
BRANCH  13  14
ATOM     14  C   LIG A   1      -6.546  -1.212 127.565  0.00  0.00    -0.023 C 
ATOM     15  C   LIG A   1      -6.239  -2.196 128.438  0.00  0.00    -0.076 C 
ATOM     16  C   LIG A   1      -4.902  -2.874 128.547  0.00  0.00    +0.038 C 
BRANCH  15  17
ATOM     17  C   LIG A   1      -7.291  -2.683 129.417  0.00  0.00    +0.034 C 
BRANCH  17  18
ATOM     18  C   LIG A   1      -8.577  -3.135 128.720  0.00  0.00    +0.031 C 
BRANCH  18  19
ATOM     19  C   LIG A   1      -8.268  -3.825 127.418  0.00  0.00    -0.028 C 
ATOM     20  C   LIG A   1      -8.647  -3.435 126.185  0.00  0.00    -0.080 C 
ATOM     21  C   LIG A   1      -9.476  -2.217 125.885  0.00  0.00    +0.038 C 
ATOM     22  C   LIG A   1      -8.273  -4.247 124.973  0.00  0.00    +0.038 C 
ENDBRANCH  18  19
ENDBRANCH  17  18
ENDBRANCH  15  17
ENDBRANCH  13  14
ENDBRANCH   3  13
TORSDOF 8
ENDMDL
MODEL 4
REMARK VINA RESULT:      -6.3      7.646      9.688
REMARK  Name = NuBBE_349
REMARK  12 active torsions:
REMARK  status: ('A' for Active; 'I' for Inactive)
REMARK    1  A    between atoms: O_1  and  C_2
REMARK    2  A    between atoms: C_2  and  C_3
REMARK    3  A    between atoms: C_5  and  C_6
REMARK    4  A    between atoms: C_6  and  C_7
REMARK    5  A    between atoms: C_8  and  C_9
REMARK    6  A    between atoms: C_8  and  C_10
REMARK    7  A    between atoms: C_10  and  C_11
REMARK    8  A    between atoms: C_11  and  C_12
REMARK    9  A    between atoms: C_13  and  C_14
REMARK   10  A    between atoms: C_13  and  C_15
REMARK   11  A    between atoms: C_16  and  O_17
REMARK   12  A    between atoms: O_17  and  C_18
REMARK                            x       y       z     vdW  Elec       q    Type
REMARK                         _______ _______ _______ _____ _____    ______ ____
ROOT
ATOM      1  C   LIG A   1     -10.030   7.113 130.199  0.00  0.00    +0.059 A 
ATOM      2  C   LIG A   1      -8.677   7.006 130.533  0.00  0.00    +0.022 A 
ATOM      3  C   LIG A   1      -8.272   6.422 131.751  0.00  0.00    -0.001 A 
ATOM      4  C   LIG A   1      -9.253   5.926 132.627  0.00  0.00    +0.124 A 
ATOM      5  C   LIG A   1     -10.608   6.061 132.305  0.00  0.00    +0.046 A 
ATOM      6  C   LIG A   1     -10.995   6.642 131.093  0.00  0.00    +0.018 A 
ENDROOT
BRANCH   1   7
ATOM      7  C   LIG A   1     -10.492   7.671 128.898  0.00  0.00    +0.337 C 
ATOM      8  O   LIG A   1     -10.038   7.312 127.831  0.00  0.00    -0.245 OA
BRANCH   7   9
ATOM      9  O   LIG A   1     -11.486   8.582 129.008  0.00  0.00    -0.477 OA
ATOM     10  H   LIG A   1     -11.881   8.679 129.889  0.00  0.00    +0.295 HD
ENDBRANCH   7   9
ENDBRANCH   1   7
BRANCH   4  11
ATOM     11  O   LIG A   1      -8.814   5.359 133.795  0.00  0.00    -0.495 OA
ATOM     12  C   LIG A   1      -8.977   3.946 133.890  0.00  0.00    +0.277 C 
ENDBRANCH   4  11
BRANCH   3  13
ATOM     13  C   LIG A   1      -6.790   6.365 132.077  0.00  0.00    +0.066 C 
BRANCH  13  14
ATOM     14  C   LIG A   1      -5.923   6.784 130.917  0.00  0.00    -0.023 C 
ATOM     15  C   LIG A   1      -4.594   7.024 130.900  0.00  0.00    -0.076 C 
ATOM     16  C   LIG A   1      -3.675   6.910 132.084  0.00  0.00    +0.038 C 
BRANCH  15  17
ATOM     17  C   LIG A   1      -3.923   7.432 129.601  0.00  0.00    +0.034 C 
BRANCH  17  18
ATOM     18  C   LIG A   1      -2.514   6.850 129.461  0.00  0.00    +0.031 C 
BRANCH  18  19
ATOM     19  C   LIG A   1      -2.426   5.938 128.266  0.00  0.00    -0.028 C 
ATOM     20  C   LIG A   1      -2.820   4.651 128.198  0.00  0.00    -0.080 C 
ATOM     21  C   LIG A   1      -3.423   3.875 129.337  0.00  0.00    +0.038 C 
ATOM     22  C   LIG A   1      -2.648   3.860 126.928  0.00  0.00    +0.038 C 
ENDBRANCH  18  19
ENDBRANCH  17  18
ENDBRANCH  15  17
ENDBRANCH  13  14
ENDBRANCH   3  13
TORSDOF 8
ENDMDL
MODEL 5
REMARK VINA RESULT:      -6.0      1.889      4.835
REMARK  Name = NuBBE_349
REMARK  12 active torsions:
REMARK  status: ('A' for Active; 'I' for Inactive)
REMARK    1  A    between atoms: O_1  and  C_2
REMARK    2  A    between atoms: C_2  and  C_3
REMARK    3  A    between atoms: C_5  and  C_6
REMARK    4  A    between atoms: C_6  and  C_7
REMARK    5  A    between atoms: C_8  and  C_9
REMARK    6  A    between atoms: C_8  and  C_10
REMARK    7  A    between atoms: C_10  and  C_11
REMARK    8  A    between atoms: C_11  and  C_12
REMARK    9  A    between atoms: C_13  and  C_14
REMARK   10  A    between atoms: C_13  and  C_15
REMARK   11  A    between atoms: C_16  and  O_17
REMARK   12  A    between atoms: O_17  and  C_18
REMARK                            x       y       z     vdW  Elec       q    Type
REMARK                         _______ _______ _______ _____ _____    ______ ____
ROOT
ATOM      1  C   LIG A   1      -8.887  -0.095 123.684  0.00  0.00    +0.059 A 
ATOM      2  C   LIG A   1      -7.958   0.337 124.634  0.00  0.00    +0.022 A 
ATOM      3  C   LIG A   1      -6.794  -0.409 124.906  0.00  0.00    -0.001 A 
ATOM      4  C   LIG A   1      -6.565  -1.598 124.190  0.00  0.00    +0.124 A 
ATOM      5  C   LIG A   1      -7.512  -2.045 123.261  0.00  0.00    +0.046 A 
ATOM      6  C   LIG A   1      -8.662  -1.293 123.002  0.00  0.00    +0.018 A 
ENDROOT
BRANCH   1   7
ATOM      7  C   LIG A   1     -10.099   0.696 123.330  0.00  0.00    +0.337 C 
ATOM      8  O   LIG A   1     -10.891   0.338 122.483  0.00  0.00    -0.245 OA
BRANCH   7   9
ATOM      9  O   LIG A   1     -10.258   1.824 124.060  0.00  0.00    -0.477 OA
ATOM     10  H   LIG A   1     -11.083   2.314 123.913  0.00  0.00    +0.295 HD
ENDBRANCH   7   9
ENDBRANCH   1   7
BRANCH   4  11
ATOM     11  O   LIG A   1      -5.417  -2.288 124.480  0.00  0.00    -0.495 OA
ATOM     12  C   LIG A   1      -4.913  -3.109 123.430  0.00  0.00    +0.277 C 
ENDBRANCH   4  11
BRANCH   3  13
ATOM     13  C   LIG A   1      -5.837   0.090 125.974  0.00  0.00    +0.066 C 
BRANCH  13  14
ATOM     14  C   LIG A   1      -5.270   1.450 125.656  0.00  0.00    -0.023 C 
ATOM     15  C   LIG A   1      -5.688   2.661 126.084  0.00  0.00    -0.076 C 
ATOM     16  C   LIG A   1      -6.849   2.902 127.009  0.00  0.00    +0.038 C 
BRANCH  15  17
ATOM     17  C   LIG A   1      -4.952   3.910 125.635  0.00  0.00    +0.034 C 
BRANCH  17  18
ATOM     18  C   LIG A   1      -5.749   4.724 124.612  0.00  0.00    +0.031 C 
BRANCH  18  19
ATOM     19  C   LIG A   1      -5.291   4.421 123.210  0.00  0.00    -0.028 C 
ATOM     20  C   LIG A   1      -5.952   3.707 122.279  0.00  0.00    -0.080 C 
ATOM     21  C   LIG A   1      -7.295   3.060 122.483  0.00  0.00    +0.038 C 
ATOM     22  C   LIG A   1      -5.350   3.473 120.918  0.00  0.00    +0.038 C 
ENDBRANCH  18  19
ENDBRANCH  17  18
ENDBRANCH  15  17
ENDBRANCH  13  14
ENDBRANCH   3  13
TORSDOF 8
ENDMDL
MODEL 6
REMARK VINA RESULT:      -6.0      2.274      4.454
REMARK  Name = NuBBE_349
REMARK  12 active torsions:
REMARK  status: ('A' for Active; 'I' for Inactive)
REMARK    1  A    between atoms: O_1  and  C_2
REMARK    2  A    between atoms: C_2  and  C_3
REMARK    3  A    between atoms: C_5  and  C_6
REMARK    4  A    between atoms: C_6  and  C_7
REMARK    5  A    between atoms: C_8  and  C_9
REMARK    6  A    between atoms: C_8  and  C_10
REMARK    7  A    between atoms: C_10  and  C_11
REMARK    8  A    between atoms: C_11  and  C_12
REMARK    9  A    between atoms: C_13  and  C_14
REMARK   10  A    between atoms: C_13  and  C_15
REMARK   11  A    between atoms: C_16  and  O_17
REMARK   12  A    between atoms: O_17  and  C_18
REMARK                            x       y       z     vdW  Elec       q    Type
REMARK                         _______ _______ _______ _____ _____    ______ ____
ROOT
ATOM      1  C   LIG A   1      -5.499   4.229 122.079  0.00  0.00    +0.059 A 
ATOM      2  C   LIG A   1      -6.301   3.085 122.070  0.00  0.00    +0.022 A 
ATOM      3  C   LIG A   1      -6.698   2.465 123.273  0.00  0.00    -0.001 A 
ATOM      4  C   LIG A   1      -6.289   3.027 124.495  0.00  0.00    +0.124 A 
ATOM      5  C   LIG A   1      -5.460   4.155 124.501  0.00  0.00    +0.046 A 
ATOM      6  C   LIG A   1      -5.075   4.759 123.300  0.00  0.00    +0.018 A 
ENDROOT
BRANCH   1   7
ATOM      7  C   LIG A   1      -5.108   4.943 120.832  0.00  0.00    +0.337 C 
ATOM      8  O   LIG A   1      -5.548   4.646 119.740  0.00  0.00    -0.245 OA
BRANCH   7   9
ATOM      9  O   LIG A   1      -4.252   5.973 121.027  0.00  0.00    -0.477 OA
ATOM     10  H   LIG A   1      -3.430   5.946 120.512  0.00  0.00    +0.295 HD
ENDBRANCH   7   9
ENDBRANCH   1   7
BRANCH   4  11
ATOM     11  O   LIG A   1      -6.705   2.397 125.639  0.00  0.00    -0.495 OA
ATOM     12  C   LIG A   1      -7.376   3.224 126.586  0.00  0.00    +0.277 C 
ENDBRANCH   4  11
BRANCH   3  13
ATOM     13  C   LIG A   1      -7.541   1.204 123.203  0.00  0.00    +0.066 C 
BRANCH  13  14
ATOM     14  C   LIG A   1      -6.707  -0.051 123.156  0.00  0.00    -0.023 C 
ATOM     15  C   LIG A   1      -7.109  -1.327 122.975  0.00  0.00    -0.076 C 
ATOM     16  C   LIG A   1      -8.532  -1.768 122.768  0.00  0.00    +0.038 C 
BRANCH  15  17
ATOM     17  C   LIG A   1      -6.080  -2.442 122.957  0.00  0.00    +0.034 C 
BRANCH  17  18
ATOM     18  C   LIG A   1      -6.169  -3.341 124.194  0.00  0.00    +0.031 C 
BRANCH  18  19
ATOM     19  C   LIG A   1      -5.594  -2.649 125.402  0.00  0.00    -0.028 C 
ATOM     20  C   LIG A   1      -6.278  -2.137 126.444  0.00  0.00    -0.080 C 
ATOM     21  C   LIG A   1      -7.776  -2.155 126.583  0.00  0.00    +0.038 C 
ATOM     22  C   LIG A   1      -5.557  -1.454 127.576  0.00  0.00    +0.038 C 
ENDBRANCH  18  19
ENDBRANCH  17  18
ENDBRANCH  15  17
ENDBRANCH  13  14
ENDBRANCH   3  13
TORSDOF 8
ENDMDL
MODEL 7
REMARK VINA RESULT:      -5.8      8.236     10.044
REMARK  Name = NuBBE_349
REMARK  12 active torsions:
REMARK  status: ('A' for Active; 'I' for Inactive)
REMARK    1  A    between atoms: O_1  and  C_2
REMARK    2  A    between atoms: C_2  and  C_3
REMARK    3  A    between atoms: C_5  and  C_6
REMARK    4  A    between atoms: C_6  and  C_7
REMARK    5  A    between atoms: C_8  and  C_9
REMARK    6  A    between atoms: C_8  and  C_10
REMARK    7  A    between atoms: C_10  and  C_11
REMARK    8  A    between atoms: C_11  and  C_12
REMARK    9  A    between atoms: C_13  and  C_14
REMARK   10  A    between atoms: C_13  and  C_15
REMARK   11  A    between atoms: C_16  and  O_17
REMARK   12  A    between atoms: O_17  and  C_18
REMARK                            x       y       z     vdW  Elec       q    Type
REMARK                         _______ _______ _______ _____ _____    ______ ____
ROOT
ATOM      1  C   LIG A   1      -9.993   7.098 130.022  0.00  0.00    +0.059 A 
ATOM      2  C   LIG A   1      -8.637   7.028 130.348  0.00  0.00    +0.022 A 
ATOM      3  C   LIG A   1      -8.211   6.497 131.582  0.00  0.00    -0.001 A 
ATOM      4  C   LIG A   1      -9.176   6.015 132.484  0.00  0.00    +0.124 A 
ATOM      5  C   LIG A   1     -10.536   6.114 132.169  0.00  0.00    +0.046 A 
ATOM      6  C   LIG A   1     -10.943   6.643 130.940  0.00  0.00    +0.018 A 
ENDROOT
BRANCH   1   7
ATOM      7  C   LIG A   1     -10.477   7.600 128.705  0.00  0.00    +0.337 C 
ATOM      8  O   LIG A   1     -11.091   8.641 128.585  0.00  0.00    -0.245 OA
BRANCH   7   9
ATOM      9  O   LIG A   1     -10.139   6.818 127.655  0.00  0.00    -0.477 OA
ATOM     10  H   LIG A   1     -10.805   6.171 127.373  0.00  0.00    +0.295 HD
ENDBRANCH   7   9
ENDBRANCH   1   7
BRANCH   4  11
ATOM     11  O   LIG A   1      -8.718   5.499 133.669  0.00  0.00    -0.495 OA
ATOM     12  C   LIG A   1      -8.925   4.100 133.850  0.00  0.00    +0.277 C 
ENDBRANCH   4  11
BRANCH   3  13
ATOM     13  C   LIG A   1      -6.726   6.478 131.898  0.00  0.00    +0.066 C 
BRANCH  13  14
ATOM     14  C   LIG A   1      -5.895   5.955 130.754  0.00  0.00    -0.023 C 
ATOM     15  C   LIG A   1      -4.918   6.581 130.064  0.00  0.00    -0.076 C 
ATOM     16  C   LIG A   1      -4.440   7.984 130.315  0.00  0.00    +0.038 C 
BRANCH  15  17
ATOM     17  C   LIG A   1      -4.204   5.848 128.943  0.00  0.00    +0.034 C 
BRANCH  17  18
ATOM     18  C   LIG A   1      -2.740   5.549 129.277  0.00  0.00    +0.031 C 
BRANCH  18  19
ATOM     19  C   LIG A   1      -2.627   4.829 130.595  0.00  0.00    -0.028 C 
ATOM     20  C   LIG A   1      -1.922   5.221 131.674  0.00  0.00    -0.080 C 
ATOM     21  C   LIG A   1      -1.093   6.474 131.752  0.00  0.00    +0.038 C 
ATOM     22  C   LIG A   1      -1.891   4.377 132.920  0.00  0.00    +0.038 C 
ENDBRANCH  18  19
ENDBRANCH  17  18
ENDBRANCH  15  17
ENDBRANCH  13  14
ENDBRANCH   3  13
TORSDOF 8
ENDMDL
MODEL 8
REMARK VINA RESULT:      -5.8      2.310      4.606
REMARK  Name = NuBBE_349
REMARK  12 active torsions:
REMARK  status: ('A' for Active; 'I' for Inactive)
REMARK    1  A    between atoms: O_1  and  C_2
REMARK    2  A    between atoms: C_2  and  C_3
REMARK    3  A    between atoms: C_5  and  C_6
REMARK    4  A    between atoms: C_6  and  C_7
REMARK    5  A    between atoms: C_8  and  C_9
REMARK    6  A    between atoms: C_8  and  C_10
REMARK    7  A    between atoms: C_10  and  C_11
REMARK    8  A    between atoms: C_11  and  C_12
REMARK    9  A    between atoms: C_13  and  C_14
REMARK   10  A    between atoms: C_13  and  C_15
REMARK   11  A    between atoms: C_16  and  O_17
REMARK   12  A    between atoms: O_17  and  C_18
REMARK                            x       y       z     vdW  Elec       q    Type
REMARK                         _______ _______ _______ _____ _____    ______ ____
ROOT
ATOM      1  C   LIG A   1      -5.863   1.642 126.213  0.00  0.00    +0.059 A 
ATOM      2  C   LIG A   1      -5.935   0.583 125.304  0.00  0.00    +0.022 A 
ATOM      3  C   LIG A   1      -6.838   0.611 124.223  0.00  0.00    -0.001 A 
ATOM      4  C   LIG A   1      -7.663   1.738 124.054  0.00  0.00    +0.124 A 
ATOM      5  C   LIG A   1      -7.611   2.784 124.983  0.00  0.00    +0.046 A 
ATOM      6  C   LIG A   1      -6.709   2.742 126.051  0.00  0.00    +0.018 A 
ENDROOT
BRANCH   1   7
ATOM      7  C   LIG A   1      -4.882   1.672 127.333  0.00  0.00    +0.337 C 
ATOM      8  O   LIG A   1      -4.285   2.678 127.657  0.00  0.00    -0.245 OA
BRANCH   7   9
ATOM      9  O   LIG A   1      -4.744   0.492 127.982  0.00  0.00    -0.477 OA
ATOM     10  H   LIG A   1      -4.877  -0.306 127.447  0.00  0.00    +0.295 HD
ENDBRANCH   7   9
ENDBRANCH   1   7
BRANCH   4  11
ATOM     11  O   LIG A   1      -8.520   1.728 122.985  0.00  0.00    -0.495 OA
ATOM     12  C   LIG A   1      -8.600   2.947 122.251  0.00  0.00    +0.277 C 
ENDBRANCH   4  11
BRANCH   3  13
ATOM     13  C   LIG A   1      -6.898  -0.583 123.287  0.00  0.00    +0.066 C 
BRANCH  13  14
ATOM     14  C   LIG A   1      -7.687  -1.732 123.861  0.00  0.00    -0.023 C 
ATOM     15  C   LIG A   1      -7.251  -2.955 124.232  0.00  0.00    -0.076 C 
ATOM     16  C   LIG A   1      -5.827  -3.432 124.148  0.00  0.00    +0.038 C 
BRANCH  15  17
ATOM     17  C   LIG A   1      -8.235  -3.962 124.798  0.00  0.00    +0.034 C 
BRANCH  17  18
ATOM     18  C   LIG A   1      -9.223  -3.328 125.781  0.00  0.00    +0.031 C 
BRANCH  18  19
ATOM     19  C   LIG A   1      -8.848  -3.651 127.203  0.00  0.00    -0.028 C 
ATOM     20  C   LIG A   1      -8.191  -2.854 128.068  0.00  0.00    -0.080 C 
ATOM     21  C   LIG A   1      -7.694  -1.469 127.756  0.00  0.00    +0.038 C 
ATOM     22  C   LIG A   1      -7.871  -3.330 129.460  0.00  0.00    +0.038 C 
ENDBRANCH  18  19
ENDBRANCH  17  18
ENDBRANCH  15  17
ENDBRANCH  13  14
ENDBRANCH   3  13
TORSDOF 8
ENDMDL
MODEL 9
REMARK VINA RESULT:      -5.7      1.757      2.494
REMARK  Name = NuBBE_349
REMARK  12 active torsions:
REMARK  status: ('A' for Active; 'I' for Inactive)
REMARK    1  A    between atoms: O_1  and  C_2
REMARK    2  A    between atoms: C_2  and  C_3
REMARK    3  A    between atoms: C_5  and  C_6
REMARK    4  A    between atoms: C_6  and  C_7
REMARK    5  A    between atoms: C_8  and  C_9
REMARK    6  A    between atoms: C_8  and  C_10
REMARK    7  A    between atoms: C_10  and  C_11
REMARK    8  A    between atoms: C_11  and  C_12
REMARK    9  A    between atoms: C_13  and  C_14
REMARK   10  A    between atoms: C_13  and  C_15
REMARK   11  A    between atoms: C_16  and  O_17
REMARK   12  A    between atoms: O_17  and  C_18
REMARK                            x       y       z     vdW  Elec       q    Type
REMARK                         _______ _______ _______ _____ _____    ______ ____
ROOT
ATOM      1  C   LIG A   1      -7.166   2.933 123.998  0.00  0.00    +0.059 A 
ATOM      2  C   LIG A   1      -6.754   1.885 124.825  0.00  0.00    +0.022 A 
ATOM      3  C   LIG A   1      -5.739   2.071 125.786  0.00  0.00    -0.001 A 
ATOM      4  C   LIG A   1      -5.152   3.342 125.918  0.00  0.00    +0.124 A 
ATOM      5  C   LIG A   1      -5.544   4.382 125.068  0.00  0.00    +0.046 A 
ATOM      6  C   LIG A   1      -6.553   4.183 124.120  0.00  0.00    +0.018 A 
ENDROOT
BRANCH   1   7
ATOM      7  C   LIG A   1      -8.273   2.790 123.012  0.00  0.00    +0.337 C 
ATOM      8  O   LIG A   1      -9.035   1.844 123.014  0.00  0.00    -0.245 OA
BRANCH   7   9
ATOM      9  O   LIG A   1      -8.378   3.820 122.141  0.00  0.00    -0.477 OA
ATOM     10  H   LIG A   1      -7.795   3.784 121.367  0.00  0.00    +0.295 HD
ENDBRANCH   7   9
ENDBRANCH   1   7
BRANCH   4  11
ATOM     11  O   LIG A   1      -4.176   3.480 126.870  0.00  0.00    -0.495 OA
ATOM     12  C   LIG A   1      -2.843   3.576 126.373  0.00  0.00    +0.277 C 
ENDBRANCH   4  11
BRANCH   3  13
ATOM     13  C   LIG A   1      -5.307   0.887 126.632  0.00  0.00    +0.066 C 
BRANCH  13  14
ATOM     14  C   LIG A   1      -5.271  -0.403 125.853  0.00  0.00    -0.023 C 
ATOM     15  C   LIG A   1      -5.549  -1.654 126.277  0.00  0.00    -0.076 C 
ATOM     16  C   LIG A   1      -5.975  -2.025 127.671  0.00  0.00    +0.038 C 
BRANCH  15  17
ATOM     17  C   LIG A   1      -5.452  -2.815 125.303  0.00  0.00    +0.034 C 
BRANCH  17  18
ATOM     18  C   LIG A   1      -5.903  -2.434 123.890  0.00  0.00    +0.031 C 
BRANCH  18  19
ATOM     19  C   LIG A   1      -7.226  -3.073 123.558  0.00  0.00    -0.028 C 
ATOM     20  C   LIG A   1      -8.452  -2.584 123.829  0.00  0.00    -0.080 C 
ATOM     21  C   LIG A   1      -8.724  -1.287 124.538  0.00  0.00    +0.038 C 
ATOM     22  C   LIG A   1      -9.688  -3.355 123.448  0.00  0.00    +0.038 C 
ENDBRANCH  18  19
ENDBRANCH  17  18
ENDBRANCH  15  17
ENDBRANCH  13  14
ENDBRANCH   3  13
TORSDOF 8
ENDMDL
