MODEL 1
REMARK VINA RESULT:      -7.8      0.000      0.000
REMARK  Name = NuBBE_569
REMARK  6 active torsions:
REMARK  status: ('A' for Active; 'I' for Inactive)
REMARK    1  A    between atoms: C_3  and  C_4
REMARK    2  A    between atoms: C_9  and  C_10
REMARK    3  A    between atoms: C_9  and  O_14
REMARK    4  A    between atoms: C_10  and  C_11
REMARK    5  A    between atoms: C_15  and  C_16
REMARK    6  A    between atoms: C_25  and  C_27
REMARK                            x       y       z     vdW  Elec       q    Type
REMARK                         _______ _______ _______ _____ _____    ______ ____
ROOT
ATOM      1  O   LIG A   1      -8.587  -3.169 128.949  0.00  0.00    -0.288 OA
ATOM      2  C   LIG A   1      -8.143  -2.936 127.836  0.00  0.00    +0.202 C 
ATOM      3  C   LIG A   1      -6.930  -2.101 127.497  0.00  0.00    +0.171 C 
ATOM      4  C   LIG A   1      -5.716  -2.508 128.316  0.00  0.00    +0.064 C 
ATOM      5  C   LIG A   1      -7.264  -0.601 127.540  0.00  0.00    +0.088 C 
ATOM      6  C   LIG A   1      -6.326   0.254 126.693  0.00  0.00    +0.134 C 
ATOM      7  O   LIG A   1      -6.395   1.636 127.176  0.00  0.00    -0.342 OA
ATOM      8  C   LIG A   1      -6.379   2.546 126.032  0.00  0.00    +0.215 C 
ATOM      9  C   LIG A   1      -7.185   1.753 125.015  0.00  0.00    +0.130 C 
ATOM     10  C   LIG A   1      -8.698   1.815 125.289  0.00  0.00    +0.029 C 
ATOM     11  C   LIG A   1      -6.983   1.877 123.536  0.00  0.00    +0.319 C 
ATOM     12  O   LIG A   1      -6.987   2.906 122.881  0.00  0.00    -0.250 OA
ATOM     13  C   LIG A   1      -6.509   0.400 125.194  0.00  0.00    +0.081 C 
ATOM     14  C   LIG A   1      -6.945  -0.441 124.019  0.00  0.00    +0.184 C 
ATOM     15  O   LIG A   1      -6.966   0.606 122.983  0.00  0.00    -0.460 OA
ATOM     16  C   LIG A   1      -8.292  -1.181 123.954  0.00  0.00    +0.056 C 
ATOM     17  C   LIG A   1      -8.204  -2.708 124.211  0.00  0.00    +0.055 C 
ATOM     18  C   LIG A   1      -9.472  -3.397 123.696  0.00  0.00    +0.016 C 
ATOM     19  C   LIG A   1      -7.965  -2.911 125.678  0.00  0.00    +0.105 C 
ATOM     20  O   LIG A   1      -6.722  -2.464 126.119  0.00  0.00    -0.482 OA
ATOM     21  C   LIG A   1      -8.815  -3.346 126.608  0.00  0.00    +0.091 C 
ENDROOT
BRANCH   8  22
ATOM     22  C   LIG A   1      -6.917   3.914 126.414  0.00  0.00    +0.144 C 
ATOM     23  C   LIG A   1      -6.916   4.979 125.353  0.00  0.00    +0.049 C 
ATOM     24  C   LIG A   1      -7.777   4.107 127.648  0.00  0.00    +0.201 C 
ATOM     25  O   LIG A   1      -6.374   4.403 127.660  0.00  0.00    -0.363 OA
ENDBRANCH   8  22
BRANCH   8  26
ATOM     26  O   LIG A   1      -5.015   2.695 125.660  0.00  0.00    -0.361 OA
ATOM     27  H   LIG A   1      -4.720   1.788 125.454  0.00  0.00    +0.213 HD
ENDBRANCH   8  26
TORSDOF 2
ENDMDL
MODEL 2
REMARK VINA RESULT:      -7.8      2.567      5.847
REMARK  Name = NuBBE_569
REMARK  6 active torsions:
REMARK  status: ('A' for Active; 'I' for Inactive)
REMARK    1  A    between atoms: C_3  and  C_4
REMARK    2  A    between atoms: C_9  and  C_10
REMARK    3  A    between atoms: C_9  and  O_14
REMARK    4  A    between atoms: C_10  and  C_11
REMARK    5  A    between atoms: C_15  and  C_16
REMARK    6  A    between atoms: C_25  and  C_27
REMARK                            x       y       z     vdW  Elec       q    Type
REMARK                         _______ _______ _______ _____ _____    ______ ____
ROOT
ATOM      1  O   LIG A   1      -5.716   2.984 131.216  0.00  0.00    -0.288 OA
ATOM      2  C   LIG A   1      -5.546   3.524 130.135  0.00  0.00    +0.202 C 
ATOM      3  C   LIG A   1      -6.612   4.010 129.181  0.00  0.00    +0.171 C 
ATOM      4  C   LIG A   1      -7.645   4.876 129.882  0.00  0.00    +0.064 C 
ATOM      5  C   LIG A   1      -7.194   2.844 128.366  0.00  0.00    +0.088 C 
ATOM      6  C   LIG A   1      -7.819   3.281 127.043  0.00  0.00    +0.134 C 
ATOM      7  O   LIG A   1      -8.750   2.238 126.604  0.00  0.00    -0.342 OA
ATOM      8  C   LIG A   1      -8.629   2.066 125.157  0.00  0.00    +0.215 C 
ATOM      9  C   LIG A   1      -7.138   2.286 124.958  0.00  0.00    +0.130 C 
ATOM     10  C   LIG A   1      -6.304   1.060 125.369  0.00  0.00    +0.029 C 
ATOM     11  C   LIG A   1      -6.554   2.833 123.692  0.00  0.00    +0.319 C 
ATOM     12  O   LIG A   1      -6.741   2.418 122.561  0.00  0.00    -0.250 OA
ATOM     13  C   LIG A   1      -6.978   3.541 125.807  0.00  0.00    +0.081 C 
ATOM     14  C   LIG A   1      -5.625   4.110 125.457  0.00  0.00    +0.184 C 
ATOM     15  O   LIG A   1      -5.608   3.793 124.019  0.00  0.00    -0.460 OA
ATOM     16  C   LIG A   1      -4.304   3.598 126.057  0.00  0.00    +0.056 C 
ATOM     17  C   LIG A   1      -3.703   4.506 127.162  0.00  0.00    +0.055 C 
ATOM     18  C   LIG A   1      -2.222   4.166 127.366  0.00  0.00    +0.016 C 
ATOM     19  C   LIG A   1      -4.534   4.331 128.399  0.00  0.00    +0.105 C 
ATOM     20  O   LIG A   1      -5.831   4.823 128.285  0.00  0.00    -0.482 OA
ATOM     21  C   LIG A   1      -4.231   3.677 129.521  0.00  0.00    +0.091 C 
ENDROOT
BRANCH   8  22
ATOM     22  C   LIG A   1      -9.186   0.723 124.718  0.00  0.00    +0.144 C 
ATOM     23  C   LIG A   1      -9.381   0.502 123.243  0.00  0.00    +0.049 C 
ATOM     24  C   LIG A   1      -9.173  -0.478 125.645  0.00  0.00    +0.201 C 
ATOM     25  O   LIG A   1     -10.350   0.322 125.475  0.00  0.00    -0.363 OA
ENDBRANCH   8  22
BRANCH   8  26
ATOM     26  O   LIG A   1      -9.422   3.088 124.566  0.00  0.00    -0.361 OA
ATOM     27  H   LIG A   1      -9.180   3.895 125.058  0.00  0.00    +0.213 HD
ENDBRANCH   8  26
TORSDOF 2
ENDMDL
MODEL 3
REMARK VINA RESULT:      -7.6      1.754      2.989
REMARK  Name = NuBBE_569
REMARK  6 active torsions:
REMARK  status: ('A' for Active; 'I' for Inactive)
REMARK    1  A    between atoms: C_3  and  C_4
REMARK    2  A    between atoms: C_9  and  C_10
REMARK    3  A    between atoms: C_9  and  O_14
REMARK    4  A    between atoms: C_10  and  C_11
REMARK    5  A    between atoms: C_15  and  C_16
REMARK    6  A    between atoms: C_25  and  C_27
REMARK                            x       y       z     vdW  Elec       q    Type
REMARK                         _______ _______ _______ _____ _____    ______ ____
ROOT
ATOM      1  O   LIG A   1      -6.713  -0.948 130.717  0.00  0.00    -0.288 OA
ATOM      2  C   LIG A   1      -6.947  -1.577 129.698  0.00  0.00    +0.202 C 
ATOM      3  C   LIG A   1      -6.300  -1.393 128.346  0.00  0.00    +0.171 C 
ATOM      4  C   LIG A   1      -4.784  -1.372 128.442  0.00  0.00    +0.064 C 
ATOM      5  C   LIG A   1      -6.915  -0.197 127.600  0.00  0.00    +0.088 C 
ATOM      6  C   LIG A   1      -6.754  -0.280 126.084  0.00  0.00    +0.134 C 
ATOM      7  O   LIG A   1      -6.901   1.068 125.528  0.00  0.00    -0.342 OA
ATOM      8  C   LIG A   1      -7.671   0.994 124.287  0.00  0.00    +0.215 C 
ATOM      9  C   LIG A   1      -8.659  -0.113 124.620  0.00  0.00    +0.130 C 
ATOM     10  C   LIG A   1      -9.802   0.375 125.527  0.00  0.00    +0.029 C 
ATOM     11  C   LIG A   1      -9.252  -1.018 123.584  0.00  0.00    +0.319 C 
ATOM     12  O   LIG A   1      -9.823  -0.683 122.561  0.00  0.00    -0.250 OA
ATOM     13  C   LIG A   1      -7.683  -1.115 125.223  0.00  0.00    +0.081 C 
ATOM     14  C   LIG A   1      -8.429  -2.424 125.303  0.00  0.00    +0.184 C 
ATOM     15  O   LIG A   1      -9.209  -2.321 124.058  0.00  0.00    -0.460 OA
ATOM     16  C   LIG A   1      -9.411  -2.778 126.433  0.00  0.00    +0.056 C 
ATOM     17  C   LIG A   1      -8.846  -3.755 127.497  0.00  0.00    +0.055 C 
ATOM     18  C   LIG A   1      -9.997  -4.379 128.294  0.00  0.00    +0.016 C 
ATOM     19  C   LIG A   1      -7.872  -2.993 128.346  0.00  0.00    +0.105 C 
ATOM     20  O   LIG A   1      -6.722  -2.593 127.671  0.00  0.00    -0.482 OA
ATOM     21  C   LIG A   1      -8.019  -2.562 129.599  0.00  0.00    +0.091 C 
ENDROOT
BRANCH   8  22
ATOM     22  C   LIG A   1      -8.257   2.348 123.925  0.00  0.00    +0.144 C 
ATOM     23  C   LIG A   1      -9.002   2.455 122.624  0.00  0.00    +0.049 C 
ATOM     24  C   LIG A   1      -8.445   3.430 124.971  0.00  0.00    +0.201 C 
ATOM     25  O   LIG A   1      -7.315   3.430 124.090  0.00  0.00    -0.363 OA
ENDBRANCH   8  22
BRANCH   8  26
ATOM     26  O   LIG A   1      -6.750   0.624 123.268  0.00  0.00    -0.361 OA
ATOM     27  H   LIG A   1      -6.289  -0.156 123.631  0.00  0.00    +0.213 HD
ENDBRANCH   8  26
TORSDOF 2
ENDMDL
MODEL 4
REMARK VINA RESULT:      -7.5      1.980      5.836
REMARK  Name = NuBBE_569
REMARK  6 active torsions:
REMARK  status: ('A' for Active; 'I' for Inactive)
REMARK    1  A    between atoms: C_3  and  C_4
REMARK    2  A    between atoms: C_9  and  C_10
REMARK    3  A    between atoms: C_9  and  O_14
REMARK    4  A    between atoms: C_10  and  C_11
REMARK    5  A    between atoms: C_15  and  C_16
REMARK    6  A    between atoms: C_25  and  C_27
REMARK                            x       y       z     vdW  Elec       q    Type
REMARK                         _______ _______ _______ _____ _____    ______ ____
ROOT
ATOM      1  O   LIG A   1      -3.736   3.828 126.585  0.00  0.00    -0.288 OA
ATOM      2  C   LIG A   1      -4.709   3.842 125.849  0.00  0.00    +0.202 C 
ATOM      3  C   LIG A   1      -6.130   3.478 126.210  0.00  0.00    +0.171 C 
ATOM      4  C   LIG A   1      -6.593   4.191 127.469  0.00  0.00    +0.064 C 
ATOM      5  C   LIG A   1      -6.320   1.952 126.226  0.00  0.00    +0.088 C 
ATOM      6  C   LIG A   1      -7.768   1.519 126.015  0.00  0.00    +0.134 C 
ATOM      7  O   LIG A   1      -7.925   0.157 126.532  0.00  0.00    -0.342 OA
ATOM      8  C   LIG A   1      -8.783  -0.605 125.624  0.00  0.00    +0.215 C 
ATOM      9  C   LIG A   1      -8.359  -0.040 124.277  0.00  0.00    +0.130 C 
ATOM     10  C   LIG A   1      -7.014  -0.613 123.797  0.00  0.00    +0.029 C 
ATOM     11  C   LIG A   1      -9.276   0.026 123.094  0.00  0.00    +0.319 C 
ATOM     12  O   LIG A   1      -9.919  -0.892 122.616  0.00  0.00    -0.250 OA
ATOM     13  C   LIG A   1      -8.388   1.441 124.632  0.00  0.00    +0.081 C 
ATOM     14  C   LIG A   1      -8.327   2.184 123.321  0.00  0.00    +0.184 C 
ATOM     15  O   LIG A   1      -9.146   1.273 122.502  0.00  0.00    -0.460 OA
ATOM     16  C   LIG A   1      -7.021   2.447 122.550  0.00  0.00    +0.056 C 
ATOM     17  C   LIG A   1      -6.478   3.894 122.676  0.00  0.00    +0.055 C 
ATOM     18  C   LIG A   1      -5.470   4.172 121.555  0.00  0.00    +0.016 C 
ATOM     19  C   LIG A   1      -5.901   4.047 124.053  0.00  0.00    +0.105 C 
ATOM     20  O   LIG A   1      -6.846   3.996 125.073  0.00  0.00    -0.482 OA
ATOM     21  C   LIG A   1      -4.620   4.107 124.417  0.00  0.00    +0.091 C 
ENDROOT
BRANCH   8  22
ATOM     22  C   LIG A   1      -8.601  -2.099 125.826  0.00  0.00    +0.144 C 
ATOM     23  C   LIG A   1      -9.430  -3.019 124.974  0.00  0.00    +0.049 C 
ATOM     24  C   LIG A   1      -7.384  -2.657 126.540  0.00  0.00    +0.201 C 
ATOM     25  O   LIG A   1      -8.636  -2.487 127.218  0.00  0.00    -0.363 OA
ENDBRANCH   8  22
BRANCH   8  26
ATOM     26  O   LIG A   1     -10.121  -0.271 125.967  0.00  0.00    -0.361 OA
ATOM     27  H   LIG A   1     -10.450   0.229 125.196  0.00  0.00    +0.213 HD
ENDBRANCH   8  26
TORSDOF 2
ENDMDL
MODEL 5
REMARK VINA RESULT:      -7.5      4.353      8.222
REMARK  Name = NuBBE_569
REMARK  6 active torsions:
REMARK  status: ('A' for Active; 'I' for Inactive)
REMARK    1  A    between atoms: C_3  and  C_4
REMARK    2  A    between atoms: C_9  and  C_10
REMARK    3  A    between atoms: C_9  and  O_14
REMARK    4  A    between atoms: C_10  and  C_11
REMARK    5  A    between atoms: C_15  and  C_16
REMARK    6  A    between atoms: C_25  and  C_27
REMARK                            x       y       z     vdW  Elec       q    Type
REMARK                         _______ _______ _______ _____ _____    ______ ____
ROOT
ATOM      1  O   LIG A   1      -5.194   4.329 126.071  0.00  0.00    -0.288 OA
ATOM      2  C   LIG A   1      -5.259   4.208 127.284  0.00  0.00    +0.202 C 
ATOM      3  C   LIG A   1      -6.353   3.529 128.074  0.00  0.00    +0.171 C 
ATOM      4  C   LIG A   1      -6.663   2.142 127.534  0.00  0.00    +0.064 C 
ATOM      5  C   LIG A   1      -7.575   4.450 128.226  0.00  0.00    +0.088 C 
ATOM      6  C   LIG A   1      -8.447   4.106 129.431  0.00  0.00    +0.134 C 
ATOM      7  O   LIG A   1      -9.782   4.669 129.213  0.00  0.00    -0.342 OA
ATOM      8  C   LIG A   1     -10.282   5.220 130.471  0.00  0.00    +0.215 C 
ATOM      9  C   LIG A   1      -9.002   5.772 131.080  0.00  0.00    +0.130 C 
ATOM     10  C   LIG A   1      -8.576   7.105 130.441  0.00  0.00    +0.029 C 
ATOM     11  C   LIG A   1      -8.780   5.881 132.557  0.00  0.00    +0.319 C 
ATOM     12  O   LIG A   1      -9.513   6.420 133.368  0.00  0.00    -0.250 OA
ATOM     13  C   LIG A   1      -8.097   4.572 130.832  0.00  0.00    +0.081 C 
ATOM     14  C   LIG A   1      -6.867   4.797 131.676  0.00  0.00    +0.184 C 
ATOM     15  O   LIG A   1      -7.505   5.422 132.848  0.00  0.00    -0.460 OA
ATOM     16  C   LIG A   1      -5.697   5.701 131.253  0.00  0.00    +0.056 C 
ATOM     17  C   LIG A   1      -4.444   4.940 130.747  0.00  0.00    +0.055 C 
ATOM     18  C   LIG A   1      -3.223   5.867 130.781  0.00  0.00    +0.016 C 
ATOM     19  C   LIG A   1      -4.754   4.406 129.380  0.00  0.00    +0.105 C 
ATOM     20  O   LIG A   1      -5.729   3.413 129.367  0.00  0.00    -0.482 OA
ATOM     21  C   LIG A   1      -4.310   4.834 128.198  0.00  0.00    +0.091 C 
ENDROOT
BRANCH   8  22
ATOM     22  C   LIG A   1     -11.405   6.213 130.225  0.00  0.00    +0.144 C 
ATOM     23  C   LIG A   1     -12.162   6.714 131.424  0.00  0.00    +0.049 C 
ATOM     24  C   LIG A   1     -11.511   6.976 128.918  0.00  0.00    +0.201 C 
ATOM     25  O   LIG A   1     -12.297   5.803 129.166  0.00  0.00    -0.363 OA
ENDBRANCH   8  22
BRANCH   8  26
ATOM     26  O   LIG A   1     -10.814   4.124 131.203  0.00  0.00    -0.361 OA
ATOM     27  H   LIG A   1     -10.103   3.455 131.187  0.00  0.00    +0.213 HD
ENDBRANCH   8  26
TORSDOF 2
ENDMDL
MODEL 6
REMARK VINA RESULT:      -7.2      2.410      5.236
REMARK  Name = NuBBE_569
REMARK  6 active torsions:
REMARK  status: ('A' for Active; 'I' for Inactive)
REMARK    1  A    between atoms: C_3  and  C_4
REMARK    2  A    between atoms: C_9  and  C_10
REMARK    3  A    between atoms: C_9  and  O_14
REMARK    4  A    between atoms: C_10  and  C_11
REMARK    5  A    between atoms: C_15  and  C_16
REMARK    6  A    between atoms: C_25  and  C_27
REMARK                            x       y       z     vdW  Elec       q    Type
REMARK                         _______ _______ _______ _____ _____    ______ ____
ROOT
ATOM      1  O   LIG A   1      -3.376  -2.669 129.563  0.00  0.00    -0.288 OA
ATOM      2  C   LIG A   1      -4.359  -1.950 129.636  0.00  0.00    +0.202 C 
ATOM      3  C   LIG A   1      -5.774  -2.298 129.238  0.00  0.00    +0.171 C 
ATOM      4  C   LIG A   1      -6.222  -3.619 129.842  0.00  0.00    +0.064 C 
ATOM      5  C   LIG A   1      -5.962  -2.188 127.716  0.00  0.00    +0.088 C 
ATOM      6  C   LIG A   1      -7.412  -1.960 127.299  0.00  0.00    +0.134 C 
ATOM      7  O   LIG A   1      -7.560  -2.362 125.897  0.00  0.00    -0.342 OA
ATOM      8  C   LIG A   1      -8.428  -1.405 125.212  0.00  0.00    +0.215 C 
ATOM      9  C   LIG A   1      -8.023  -0.105 125.890  0.00  0.00    +0.130 C 
ATOM     10  C   LIG A   1      -6.684   0.439 125.363  0.00  0.00    +0.029 C 
ATOM     11  C   LIG A   1      -8.956   1.056 126.052  0.00  0.00    +0.319 C 
ATOM     12  O   LIG A   1      -9.604   1.601 125.176  0.00  0.00    -0.250 OA
ATOM     13  C   LIG A   1      -8.050  -0.584 127.335  0.00  0.00    +0.081 C 
ATOM     14  C   LIG A   1      -8.007   0.661 128.187  0.00  0.00    +0.184 C 
ATOM     15  O   LIG A   1      -8.836   1.542 127.345  0.00  0.00    -0.460 OA
ATOM     16  C   LIG A   1      -6.713   1.424 128.517  0.00  0.00    +0.056 C 
ATOM     17  C   LIG A   1      -6.170   1.184 129.950  0.00  0.00    +0.055 C 
ATOM     18  C   LIG A   1      -5.178   2.291 130.324  0.00  0.00    +0.016 C 
ATOM     19  C   LIG A   1      -5.575  -0.193 129.988  0.00  0.00    +0.105 C 
ATOM     20  O   LIG A   1      -6.506  -1.218 129.849  0.00  0.00    -0.482 OA
ATOM     21  C   LIG A   1      -4.289  -0.544 130.020  0.00  0.00    +0.091 C 
ENDROOT
BRANCH   8  22
ATOM     22  C   LIG A   1      -8.241  -1.478 123.707  0.00  0.00    +0.144 C 
ATOM     23  C   LIG A   1      -9.270  -0.797 122.847  0.00  0.00    +0.049 C 
ATOM     24  C   LIG A   1      -6.905  -1.854 123.095  0.00  0.00    +0.201 C 
ATOM     25  O   LIG A   1      -7.958  -2.816 123.240  0.00  0.00    -0.363 OA
ENDBRANCH   8  22
BRANCH   8  26
ATOM     26  O   LIG A   1      -9.762  -1.792 125.512  0.00  0.00    -0.361 OA
ATOM     27  H   LIG A   1      -9.771  -2.758 125.372  0.00  0.00    +0.213 HD
ENDBRANCH   8  26
TORSDOF 2
ENDMDL
MODEL 7
REMARK VINA RESULT:      -7.1      2.070      3.122
REMARK  Name = NuBBE_569
REMARK  6 active torsions:
REMARK  status: ('A' for Active; 'I' for Inactive)
REMARK    1  A    between atoms: C_3  and  C_4
REMARK    2  A    between atoms: C_9  and  C_10
REMARK    3  A    between atoms: C_9  and  O_14
REMARK    4  A    between atoms: C_10  and  C_11
REMARK    5  A    between atoms: C_15  and  C_16
REMARK    6  A    between atoms: C_25  and  C_27
REMARK                            x       y       z     vdW  Elec       q    Type
REMARK                         _______ _______ _______ _____ _____    ______ ____
ROOT
ATOM      1  O   LIG A   1      -8.011  -2.120 127.182  0.00  0.00    -0.288 OA
ATOM      2  C   LIG A   1      -7.905  -1.288 126.296  0.00  0.00    +0.202 C 
ATOM      3  C   LIG A   1      -6.635  -0.631 125.811  0.00  0.00    +0.171 C 
ATOM      4  C   LIG A   1      -5.550  -1.652 125.507  0.00  0.00    +0.064 C 
ATOM      5  C   LIG A   1      -6.205   0.503 126.756  0.00  0.00    +0.088 C 
ATOM      6  C   LIG A   1      -5.318   1.549 126.085  0.00  0.00    +0.134 C 
ATOM      7  O   LIG A   1      -4.579   2.268 127.127  0.00  0.00    -0.342 OA
ATOM      8  C   LIG A   1      -4.526   3.688 126.784  0.00  0.00    +0.215 C 
ATOM      9  C   LIG A   1      -5.891   3.888 126.145  0.00  0.00    +0.130 C 
ATOM     10  C   LIG A   1      -7.019   3.983 127.188  0.00  0.00    +0.029 C 
ATOM     11  C   LIG A   1      -6.157   4.917 125.090  0.00  0.00    +0.319 C 
ATOM     12  O   LIG A   1      -5.903   6.108 125.149  0.00  0.00    -0.250 OA
ATOM     13  C   LIG A   1      -5.898   2.666 125.237  0.00  0.00    +0.081 C 
ATOM     14  C   LIG A   1      -7.032   2.877 124.264  0.00  0.00    +0.184 C 
ATOM     15  O   LIG A   1      -6.911   4.334 124.083  0.00  0.00    -0.460 OA
ATOM     16  C   LIG A   1      -8.504   2.575 124.594  0.00  0.00    +0.056 C 
ATOM     17  C   LIG A   1      -9.049   1.262 123.974  0.00  0.00    +0.055 C 
ATOM     18  C   LIG A   1     -10.582   1.280 123.979  0.00  0.00    +0.016 C 
ATOM     19  C   LIG A   1      -8.461   0.115 124.743  0.00  0.00    +0.105 C 
ATOM     20  O   LIG A   1      -7.085  -0.029 124.582  0.00  0.00    -0.482 OA
ATOM     21  C   LIG A   1      -9.054  -0.686 125.627  0.00  0.00    +0.091 C 
ENDROOT
BRANCH   8  22
ATOM     22  C   LIG A   1      -4.213   4.534 128.007  0.00  0.00    +0.144 C 
ATOM     23  C   LIG A   1      -3.873   5.981 127.780  0.00  0.00    +0.049 C 
ATOM     24  C   LIG A   1      -4.606   4.081 129.400  0.00  0.00    +0.201 C 
ATOM     25  O   LIG A   1      -3.274   3.900 128.903  0.00  0.00    -0.363 OA
ENDBRANCH   8  22
BRANCH   8  26
ATOM     26  O   LIG A   1      -3.456   3.835 125.860  0.00  0.00    -0.361 OA
ATOM     27  H   LIG A   1      -3.010   2.967 125.866  0.00  0.00    +0.213 HD
ENDBRANCH   8  26
TORSDOF 2
ENDMDL
MODEL 8
REMARK VINA RESULT:      -7.1      2.030      3.371
REMARK  Name = NuBBE_569
REMARK  6 active torsions:
REMARK  status: ('A' for Active; 'I' for Inactive)
REMARK    1  A    between atoms: C_3  and  C_4
REMARK    2  A    between atoms: C_9  and  C_10
REMARK    3  A    between atoms: C_9  and  O_14
REMARK    4  A    between atoms: C_10  and  C_11
REMARK    5  A    between atoms: C_15  and  C_16
REMARK    6  A    between atoms: C_25  and  C_27
REMARK                            x       y       z     vdW  Elec       q    Type
REMARK                         _______ _______ _______ _____ _____    ______ ____
ROOT
ATOM      1  O   LIG A   1      -8.072  -4.081 124.448  0.00  0.00    -0.288 OA
ATOM      2  C   LIG A   1      -7.872  -2.931 124.093  0.00  0.00    +0.202 C 
ATOM      3  C   LIG A   1      -6.604  -2.130 124.272  0.00  0.00    +0.171 C 
ATOM      4  C   LIG A   1      -5.380  -2.895 123.796  0.00  0.00    +0.064 C 
ATOM      5  C   LIG A   1      -6.501  -1.574 125.702  0.00  0.00    +0.088 C 
ATOM      6  C   LIG A   1      -5.609  -0.340 125.811  0.00  0.00    +0.134 C 
ATOM      7  O   LIG A   1      -5.181  -0.198 127.205  0.00  0.00    -0.342 OA
ATOM      8  C   LIG A   1      -5.206   1.217 127.573  0.00  0.00    +0.215 C 
ATOM      9  C   LIG A   1      -6.423   1.700 126.798  0.00  0.00    +0.130 C 
ATOM     10  C   LIG A   1      -7.746   1.301 127.475  0.00  0.00    +0.029 C 
ATOM     11  C   LIG A   1      -6.569   3.105 126.301  0.00  0.00    +0.319 C 
ATOM     12  O   LIG A   1      -6.459   4.128 126.955  0.00  0.00    -0.250 OA
ATOM     13  C   LIG A   1      -6.113   1.047 125.458  0.00  0.00    +0.081 C 
ATOM     14  C   LIG A   1      -7.037   1.695 124.456  0.00  0.00    +0.184 C 
ATOM     15  O   LIG A   1      -7.033   3.066 124.994  0.00  0.00    -0.460 OA
ATOM     16  C   LIG A   1      -8.505   1.282 124.259  0.00  0.00    +0.056 C 
ATOM     17  C   LIG A   1      -8.769   0.416 123.000  0.00  0.00    +0.055 C 
ATOM     18  C   LIG A   1     -10.262   0.437 122.656  0.00  0.00    +0.016 C 
ATOM     19  C   LIG A   1      -8.237  -0.961 123.272  0.00  0.00    +0.105 C 
ATOM     20  O   LIG A   1      -6.850  -1.020 123.388  0.00  0.00    -0.482 OA
ATOM     21  C   LIG A   1      -8.913  -2.080 123.527  0.00  0.00    +0.091 C 
ENDROOT
BRANCH   8  22
ATOM     22  C   LIG A   1      -5.245   1.389 129.081  0.00  0.00    +0.144 C 
ATOM     23  C   LIG A   1      -5.097   2.783 129.624  0.00  0.00    +0.049 C 
ATOM     24  C   LIG A   1      -5.799   0.304 129.985  0.00  0.00    +0.201 C 
ATOM     25  O   LIG A   1      -4.389   0.454 129.775  0.00  0.00    -0.363 OA
ENDBRANCH   8  22
BRANCH   8  26
ATOM     26  O   LIG A   1      -3.989   1.775 127.094  0.00  0.00    -0.361 OA
ATOM     27  H   LIG A   1      -3.676   2.335 127.829  0.00  0.00    +0.213 HD
ENDBRANCH   8  26
TORSDOF 2
ENDMDL
MODEL 9
REMARK VINA RESULT:      -7.0      2.059      4.708
REMARK  Name = NuBBE_569
REMARK  6 active torsions:
REMARK  status: ('A' for Active; 'I' for Inactive)
REMARK    1  A    between atoms: C_3  and  C_4
REMARK    2  A    between atoms: C_9  and  C_10
REMARK    3  A    between atoms: C_9  and  O_14
REMARK    4  A    between atoms: C_10  and  C_11
REMARK    5  A    between atoms: C_15  and  C_16
REMARK    6  A    between atoms: C_25  and  C_27
REMARK                            x       y       z     vdW  Elec       q    Type
REMARK                         _______ _______ _______ _____ _____    ______ ____
ROOT
ATOM      1  O   LIG A   1      -9.742  -2.885 123.762  0.00  0.00    -0.288 OA
ATOM      2  C   LIG A   1      -8.791  -2.124 123.841  0.00  0.00    +0.202 C 
ATOM      3  C   LIG A   1      -7.473  -2.382 124.533  0.00  0.00    +0.171 C 
ATOM      4  C   LIG A   1      -6.865  -3.711 124.115  0.00  0.00    +0.064 C 
ATOM      5  C   LIG A   1      -7.600  -2.180 126.052  0.00  0.00    +0.088 C 
ATOM      6  C   LIG A   1      -6.273  -1.861 126.735  0.00  0.00    +0.134 C 
ATOM      7  O   LIG A   1      -6.397  -2.178 128.160  0.00  0.00    -0.342 OA
ATOM      8  C   LIG A   1      -5.720  -1.145 128.942  0.00  0.00    +0.215 C 
ATOM      9  C   LIG A   1      -6.026   0.096 128.118  0.00  0.00    +0.130 C 
ATOM     10  C   LIG A   1      -7.463   0.603 128.331  0.00  0.00    +0.029 C 
ATOM     11  C   LIG A   1      -5.122   1.289 128.071  0.00  0.00    +0.319 C 
ATOM     12  O   LIG A   1      -4.684   1.912 129.023  0.00  0.00    -0.250 OA
ATOM     13  C   LIG A   1      -5.691  -0.460 126.739  0.00  0.00    +0.081 C 
ATOM     14  C   LIG A   1      -5.606   0.734 125.820  0.00  0.00    +0.184 C 
ATOM     15  O   LIG A   1      -4.996   1.698 126.752  0.00  0.00    -0.460 OA
ATOM     16  C   LIG A   1      -6.834   1.414 125.191  0.00  0.00    +0.056 C 
ATOM     17  C   LIG A   1      -7.068   1.071 123.697  0.00  0.00    +0.055 C 
ATOM     18  C   LIG A   1      -8.003   2.107 123.064  0.00  0.00    +0.016 C 
ATOM     19  C   LIG A   1      -7.593  -0.333 123.627  0.00  0.00    +0.105 C 
ATOM     20  O   LIG A   1      -6.673  -1.303 124.014  0.00  0.00    -0.482 OA
ATOM     21  C   LIG A   1      -8.832  -0.747 123.362  0.00  0.00    +0.091 C 
ENDROOT
BRANCH   8  22
ATOM     22  C   LIG A   1      -6.203  -1.144 130.382  0.00  0.00    +0.144 C 
ATOM     23  C   LIG A   1      -5.480  -0.256 131.356  0.00  0.00    +0.049 C 
ATOM     24  C   LIG A   1      -7.572  -1.681 130.755  0.00  0.00    +0.201 C 
ATOM     25  O   LIG A   1      -6.389  -2.475 130.913  0.00  0.00    -0.363 OA
ENDBRANCH   8  22
BRANCH   8  26
ATOM     26  O   LIG A   1      -4.339  -1.483 128.939  0.00  0.00    -0.361 OA
ATOM     27  H   LIG A   1      -4.306  -2.361 128.513  0.00  0.00    +0.213 HD
ENDBRANCH   8  26
TORSDOF 2
ENDMDL
