MODEL 1
REMARK VINA RESULT:      -9.4      0.000      0.000
REMARK  Name = NuBBE_1725
REMARK  8 active torsions:
REMARK  status: ('A' for Active; 'I' for Inactive)
REMARK    1  A    between atoms: C_1  and  C_2
REMARK    2  A    between atoms: C_5  and  C_6
REMARK    3  A    between atoms: C_11  and  C_12
REMARK    4  A    between atoms: C_11  and  C_13
REMARK    5  A    between atoms: C_14  and  O_18
REMARK    6  A    between atoms: C_23  and  C_24
REMARK    7  A    between atoms: C_27  and  C_29
REMARK    8  A    between atoms: C_29  and  C_30
REMARK                            x       y       z     vdW  Elec       q    Type
REMARK                         _______ _______ _______ _____ _____    ______ ____
ROOT
ATOM      1  C   LIG A   1      -4.808  -2.951 128.561  0.00  0.00    +0.012 C 
ATOM      2  C   LIG A   1      -5.634  -1.762 129.141  0.00  0.00    -0.023 C 
ATOM      3  C   LIG A   1      -6.748  -2.246 130.133  0.00  0.00    +0.002 C 
ATOM      4  C   LIG A   1      -6.253  -2.899 131.493  0.00  0.00    -0.025 C 
ATOM      5  C   LIG A   1      -5.619  -4.287 131.238  0.00  0.00    +0.012 C 
ATOM      6  C   LIG A   1      -5.280  -1.863 132.174  0.00  0.00    +0.003 C 
ATOM      7  C   LIG A   1      -4.118  -1.471 131.240  0.00  0.00    +0.005 C 
ATOM      8  C   LIG A   1      -4.628  -0.867 129.921  0.00  0.00    +0.008 C 
ATOM      9  C   LIG A   1      -4.857  -2.191 133.656  0.00  0.00    -0.006 C 
ATOM     10  C   LIG A   1      -3.893  -3.390 133.770  0.00  0.00    +0.014 C 
ATOM     11  C   LIG A   1      -4.108  -0.977 134.270  0.00  0.00    +0.014 C 
ATOM     12  C   LIG A   1      -6.128  -2.464 134.516  0.00  0.00    +0.120 C 
ATOM     13  C   LIG A   1      -7.106  -3.452 133.883  0.00  0.00    +0.032 C 
ATOM     14  C   LIG A   1      -7.477  -3.095 132.439  0.00  0.00    +0.010 C 
ATOM     15  C   LIG A   1      -7.909  -2.990 129.431  0.00  0.00    +0.005 C 
ATOM     16  C   LIG A   1      -7.874  -3.067 127.903  0.00  0.00    +0.005 C 
ATOM     17  C   LIG A   1      -7.376  -1.822 127.161  0.00  0.00    +0.002 C 
ATOM     18  C   LIG A   1      -6.361  -0.938 127.971  0.00  0.00    -0.023 C 
ATOM     19  C   LIG A   1      -7.166   0.293 128.489  0.00  0.00    +0.012 C 
ATOM     20  C   LIG A   1      -5.372  -0.387 126.910  0.00  0.00    +0.008 C 
ATOM     21  C   LIG A   1      -5.958  -0.762 125.559  0.00  0.00    +0.008 C 
ATOM     22  C   LIG A   1      -6.686  -2.097 125.792  0.00  0.00    +0.036 C 
ENDROOT
BRANCH  22  23
ATOM     23  C   LIG A   1      -7.607  -2.504 124.601  0.00  0.00    +0.114 C 
ATOM     24  C   LIG A   1      -8.113  -3.951 124.719  0.00  0.00    +0.056 C 
ATOM     25  O   LIG A   1      -8.754  -1.637 124.547  0.00  0.00    -0.458 OA
ATOM     26  C   LIG A   1      -9.097  -1.384 123.251  0.00  0.00    +0.308 C 
ATOM     27  O   LIG A   1     -10.091  -0.763 122.913  0.00  0.00    -0.251 OA
ATOM     28  C   LIG A   1      -8.108  -2.012 122.317  0.00  0.00    +0.124 C 
ATOM     29  C   LIG A   1      -6.943  -2.307 123.236  0.00  0.00    +0.059 C 
ENDBRANCH  22  23
BRANCH  12  30
ATOM     30  O   LIG A   1      -6.836  -1.251 134.798  0.00  0.00    -0.391 OA
ATOM     31  H   LIG A   1      -7.316  -0.976 134.001  0.00  0.00    +0.210 HD
ENDBRANCH  12  30
TORSDOF 2
ENDMDL
MODEL 2
REMARK VINA RESULT:      -9.2      6.716      8.809
REMARK  Name = NuBBE_1725
REMARK  8 active torsions:
REMARK  status: ('A' for Active; 'I' for Inactive)
REMARK    1  A    between atoms: C_1  and  C_2
REMARK    2  A    between atoms: C_5  and  C_6
REMARK    3  A    between atoms: C_11  and  C_12
REMARK    4  A    between atoms: C_11  and  C_13
REMARK    5  A    between atoms: C_14  and  O_18
REMARK    6  A    between atoms: C_23  and  C_24
REMARK    7  A    between atoms: C_27  and  C_29
REMARK    8  A    between atoms: C_29  and  C_30
REMARK                            x       y       z     vdW  Elec       q    Type
REMARK                         _______ _______ _______ _____ _____    ______ ____
ROOT
ATOM      1  C   LIG A   1      -9.391   4.838 133.331  0.00  0.00    +0.012 C 
ATOM      2  C   LIG A   1      -8.427   4.253 132.254  0.00  0.00    -0.023 C 
ATOM      3  C   LIG A   1      -7.092   5.069 132.151  0.00  0.00    +0.002 C 
ATOM      4  C   LIG A   1      -6.127   5.016 133.411  0.00  0.00    -0.025 C 
ATOM      5  C   LIG A   1      -6.731   5.800 134.600  0.00  0.00    +0.012 C 
ATOM      6  C   LIG A   1      -5.854   3.493 133.718  0.00  0.00    +0.003 C 
ATOM      7  C   LIG A   1      -7.166   2.710 133.933  0.00  0.00    +0.005 C 
ATOM      8  C   LIG A   1      -8.089   2.802 132.707  0.00  0.00    +0.008 C 
ATOM      9  C   LIG A   1      -4.726   3.199 134.777  0.00  0.00    -0.006 C 
ATOM     10  C   LIG A   1      -5.124   3.567 136.221  0.00  0.00    +0.014 C 
ATOM     11  C   LIG A   1      -4.405   1.679 134.795  0.00  0.00    +0.014 C 
ATOM     12  C   LIG A   1      -3.427   3.966 134.386  0.00  0.00    +0.120 C 
ATOM     13  C   LIG A   1      -3.650   5.443 134.065  0.00  0.00    +0.032 C 
ATOM     14  C   LIG A   1      -4.765   5.677 133.039  0.00  0.00    +0.010 C 
ATOM     15  C   LIG A   1      -7.281   6.473 131.527  0.00  0.00    +0.005 C 
ATOM     16  C   LIG A   1      -8.677   6.833 131.016  0.00  0.00    +0.005 C 
ATOM     17  C   LIG A   1      -9.466   5.717 130.322  0.00  0.00    +0.002 C 
ATOM     18  C   LIG A   1      -9.108   4.265 130.801  0.00  0.00    -0.023 C 
ATOM     19  C   LIG A   1      -8.205   3.647 129.688  0.00  0.00    +0.012 C 
ATOM     20  C   LIG A   1     -10.446   3.482 130.749  0.00  0.00    +0.008 C 
ATOM     21  C   LIG A   1     -11.439   4.399 130.053  0.00  0.00    +0.008 C 
ATOM     22  C   LIG A   1     -11.016   5.825 130.448  0.00  0.00    +0.036 C 
ENDROOT
BRANCH  22  23
ATOM     23  C   LIG A   1     -11.723   6.926 129.600  0.00  0.00    +0.114 C 
ATOM     24  C   LIG A   1     -12.211   8.104 130.459  0.00  0.00    +0.056 C 
ATOM     25  O   LIG A   1     -10.816   7.444 128.611  0.00  0.00    -0.458 OA
ATOM     26  C   LIG A   1     -11.483   7.719 127.453  0.00  0.00    +0.308 C 
ATOM     27  O   LIG A   1     -10.980   8.264 126.484  0.00  0.00    -0.251 OA
ATOM     28  C   LIG A   1     -12.916   7.298 127.564  0.00  0.00    +0.124 C 
ATOM     29  C   LIG A   1     -12.890   6.385 128.769  0.00  0.00    +0.059 C 
ENDBRANCH  22  23
BRANCH  12  30
ATOM     30  O   LIG A   1      -2.780   3.356 133.263  0.00  0.00    -0.391 OA
ATOM     31  H   LIG A   1      -2.949   2.401 133.285  0.00  0.00    +0.210 HD
ENDBRANCH  12  30
TORSDOF 2
ENDMDL
MODEL 3
REMARK VINA RESULT:      -9.0      6.067      7.904
REMARK  Name = NuBBE_1725
REMARK  8 active torsions:
REMARK  status: ('A' for Active; 'I' for Inactive)
REMARK    1  A    between atoms: C_1  and  C_2
REMARK    2  A    between atoms: C_5  and  C_6
REMARK    3  A    between atoms: C_11  and  C_12
REMARK    4  A    between atoms: C_11  and  C_13
REMARK    5  A    between atoms: C_14  and  O_18
REMARK    6  A    between atoms: C_23  and  C_24
REMARK    7  A    between atoms: C_27  and  C_29
REMARK    8  A    between atoms: C_29  and  C_30
REMARK                            x       y       z     vdW  Elec       q    Type
REMARK                         _______ _______ _______ _____ _____    ______ ____
ROOT
ATOM      1  C   LIG A   1      -8.014   3.840 129.144  0.00  0.00    +0.012 C 
ATOM      2  C   LIG A   1      -7.828   3.751 130.690  0.00  0.00    -0.023 C 
ATOM      3  C   LIG A   1      -8.466   2.450 131.287  0.00  0.00    +0.002 C 
ATOM      4  C   LIG A   1      -7.795   1.072 130.871  0.00  0.00    -0.025 C 
ATOM      5  C   LIG A   1      -8.077   0.750 129.384  0.00  0.00    +0.012 C 
ATOM      6  C   LIG A   1      -6.262   1.182 131.225  0.00  0.00    +0.003 C 
ATOM      7  C   LIG A   1      -5.604   2.400 130.545  0.00  0.00    +0.005 C 
ATOM      8  C   LIG A   1      -6.293   3.715 130.947  0.00  0.00    +0.008 C 
ATOM      9  C   LIG A   1      -5.438  -0.157 131.126  0.00  0.00    -0.006 C 
ATOM     10  C   LIG A   1      -5.217  -0.639 129.678  0.00  0.00    +0.014 C 
ATOM     11  C   LIG A   1      -4.023   0.051 131.731  0.00  0.00    +0.014 C 
ATOM     12  C   LIG A   1      -6.156  -1.275 131.940  0.00  0.00    +0.120 C 
ATOM     13  C   LIG A   1      -7.648  -1.404 131.638  0.00  0.00    +0.032 C 
ATOM     14  C   LIG A   1      -8.402  -0.073 131.736  0.00  0.00    +0.010 C 
ATOM     15  C   LIG A   1     -10.014   2.461 131.259  0.00  0.00    +0.005 C 
ATOM     16  C   LIG A   1     -10.699   3.736 130.765  0.00  0.00    +0.005 C 
ATOM     17  C   LIG A   1     -10.061   5.067 131.177  0.00  0.00    +0.002 C 
ATOM     18  C   LIG A   1      -8.512   5.001 131.428  0.00  0.00    -0.023 C 
ATOM     19  C   LIG A   1      -8.317   4.990 132.976  0.00  0.00    +0.012 C 
ATOM     20  C   LIG A   1      -7.968   6.369 130.938  0.00  0.00    +0.008 C 
ATOM     21  C   LIG A   1      -9.190   7.227 130.653  0.00  0.00    +0.008 C 
ATOM     22  C   LIG A   1     -10.271   6.242 130.176  0.00  0.00    +0.036 C 
ENDROOT
BRANCH  22  23
ATOM     23  C   LIG A   1     -11.692   6.880 130.117  0.00  0.00    +0.114 C 
ATOM     24  C   LIG A   1     -12.394   6.875 131.486  0.00  0.00    +0.056 C 
ATOM     25  O   LIG A   1     -11.602   8.244 129.671  0.00  0.00    -0.458 OA
ATOM     26  C   LIG A   1     -12.665   8.555 128.875  0.00  0.00    +0.308 C 
ATOM     27  O   LIG A   1     -12.895   9.672 128.442  0.00  0.00    -0.251 OA
ATOM     28  C   LIG A   1     -13.520   7.345 128.650  0.00  0.00    +0.124 C 
ATOM     29  C   LIG A   1     -12.603   6.221 129.077  0.00  0.00    +0.059 C 
ENDBRANCH  22  23
BRANCH  12  30
ATOM     30  O   LIG A   1      -6.000  -1.075 133.350  0.00  0.00    -0.391 OA
ATOM     31  H   LIG A   1      -5.336  -0.383 133.496  0.00  0.00    +0.210 HD
ENDBRANCH  12  30
TORSDOF 2
ENDMDL
MODEL 4
REMARK VINA RESULT:      -9.0      2.939      4.519
REMARK  Name = NuBBE_1725
REMARK  8 active torsions:
REMARK  status: ('A' for Active; 'I' for Inactive)
REMARK    1  A    between atoms: C_1  and  C_2
REMARK    2  A    between atoms: C_5  and  C_6
REMARK    3  A    between atoms: C_11  and  C_12
REMARK    4  A    between atoms: C_11  and  C_13
REMARK    5  A    between atoms: C_14  and  O_18
REMARK    6  A    between atoms: C_23  and  C_24
REMARK    7  A    between atoms: C_27  and  C_29
REMARK    8  A    between atoms: C_29  and  C_30
REMARK                            x       y       z     vdW  Elec       q    Type
REMARK                         _______ _______ _______ _____ _____    ______ ____
ROOT
ATOM      1  C   LIG A   1      -8.242  -0.332 127.667  0.00  0.00    +0.012 C 
ATOM      2  C   LIG A   1      -6.999  -1.102 127.124  0.00  0.00    -0.023 C 
ATOM      3  C   LIG A   1      -5.683  -0.704 127.878  0.00  0.00    +0.002 C 
ATOM      4  C   LIG A   1      -5.588  -1.116 129.409  0.00  0.00    -0.025 C 
ATOM      5  C   LIG A   1      -6.556  -0.268 130.268  0.00  0.00    +0.012 C 
ATOM      6  C   LIG A   1      -5.854  -2.668 129.485  0.00  0.00    +0.003 C 
ATOM      7  C   LIG A   1      -7.204  -3.049 128.844  0.00  0.00    +0.005 C 
ATOM      8  C   LIG A   1      -7.275  -2.614 127.371  0.00  0.00    +0.008 C 
ATOM      9  C   LIG A   1      -5.569  -3.345 130.879  0.00  0.00    -0.006 C 
ATOM     10  C   LIG A   1      -6.595  -2.970 131.968  0.00  0.00    +0.014 C 
ATOM     11  C   LIG A   1      -5.638  -4.890 130.737  0.00  0.00    +0.014 C 
ATOM     12  C   LIG A   1      -4.137  -2.964 131.363  0.00  0.00    +0.120 C 
ATOM     13  C   LIG A   1      -3.833  -1.469 131.290  0.00  0.00    +0.032 C 
ATOM     14  C   LIG A   1      -4.138  -0.856 129.918  0.00  0.00    +0.010 C 
ATOM     15  C   LIG A   1      -5.204   0.731 127.553  0.00  0.00    +0.005 C 
ATOM     16  C   LIG A   1      -5.989   1.513 126.499  0.00  0.00    +0.005 C 
ATOM     17  C   LIG A   1      -6.494   0.722 125.287  0.00  0.00    +0.002 C 
ATOM     18  C   LIG A   1      -6.767  -0.799 125.565  0.00  0.00    -0.023 C 
ATOM     19  C   LIG A   1      -5.561  -1.580 124.956  0.00  0.00    +0.012 C 
ATOM     20  C   LIG A   1      -7.995  -1.155 124.687  0.00  0.00    +0.008 C 
ATOM     21  C   LIG A   1      -8.235   0.053 123.796  0.00  0.00    +0.008 C 
ATOM     22  C   LIG A   1      -7.801   1.266 124.638  0.00  0.00    +0.036 C 
ENDROOT
BRANCH  22  23
ATOM     23  C   LIG A   1      -7.686   2.577 123.801  0.00  0.00    +0.114 C 
ATOM     24  C   LIG A   1      -7.887   3.839 124.657  0.00  0.00    +0.056 C 
ATOM     25  O   LIG A   1      -6.387   2.659 123.190  0.00  0.00    -0.458 OA
ATOM     26  C   LIG A   1      -6.482   3.215 121.947  0.00  0.00    +0.308 C 
ATOM     27  O   LIG A   1      -5.523   3.497 121.247  0.00  0.00    -0.251 OA
ATOM     28  C   LIG A   1      -7.916   3.462 121.594  0.00  0.00    +0.124 C 
ATOM     29  C   LIG A   1      -8.648   2.614 122.610  0.00  0.00    +0.059 C 
ENDBRANCH  22  23
BRANCH  12  30
ATOM     30  O   LIG A   1      -3.133  -3.662 130.617  0.00  0.00    -0.391 OA
ATOM     31  H   LIG A   1      -2.554  -3.014 130.186  0.00  0.00    +0.210 HD
ENDBRANCH  12  30
TORSDOF 2
ENDMDL
MODEL 5
REMARK VINA RESULT:      -8.7      1.854      3.483
REMARK  Name = NuBBE_1725
REMARK  8 active torsions:
REMARK  status: ('A' for Active; 'I' for Inactive)
REMARK    1  A    between atoms: C_1  and  C_2
REMARK    2  A    between atoms: C_5  and  C_6
REMARK    3  A    between atoms: C_11  and  C_12
REMARK    4  A    between atoms: C_11  and  C_13
REMARK    5  A    between atoms: C_14  and  O_18
REMARK    6  A    between atoms: C_23  and  C_24
REMARK    7  A    between atoms: C_27  and  C_29
REMARK    8  A    between atoms: C_29  and  C_30
REMARK                            x       y       z     vdW  Elec       q    Type
REMARK                         _______ _______ _______ _____ _____    ______ ____
ROOT
ATOM      1  C   LIG A   1      -8.094  -0.376 129.955  0.00  0.00    +0.012 C 
ATOM      2  C   LIG A   1      -7.065  -1.454 130.416  0.00  0.00    -0.023 C 
ATOM      3  C   LIG A   1      -5.609  -0.880 130.505  0.00  0.00    +0.002 C 
ATOM      4  C   LIG A   1      -5.344   0.217 131.623  0.00  0.00    -0.025 C 
ATOM      5  C   LIG A   1      -6.046   1.548 131.264  0.00  0.00    +0.012 C 
ATOM      6  C   LIG A   1      -5.809  -0.404 132.996  0.00  0.00    +0.003 C 
ATOM      7  C   LIG A   1      -7.279  -0.867 132.945  0.00  0.00    +0.005 C 
ATOM      8  C   LIG A   1      -7.508  -1.908 131.837  0.00  0.00    +0.008 C 
ATOM      9  C   LIG A   1      -5.415   0.411 134.285  0.00  0.00    -0.006 C 
ATOM     10  C   LIG A   1      -6.205   1.726 134.447  0.00  0.00    +0.014 C 
ATOM     11  C   LIG A   1      -5.719  -0.432 135.553  0.00  0.00    +0.014 C 
ATOM     12  C   LIG A   1      -3.888   0.723 134.262  0.00  0.00    +0.120 C 
ATOM     13  C   LIG A   1      -3.394   1.313 132.942  0.00  0.00    +0.032 C 
ATOM     14  C   LIG A   1      -3.812   0.489 131.718  0.00  0.00    +0.010 C 
ATOM     15  C   LIG A   1      -4.988  -0.570 129.122  0.00  0.00    +0.005 C 
ATOM     16  C   LIG A   1      -5.806  -0.945 127.884  0.00  0.00    +0.005 C 
ATOM     17  C   LIG A   1      -6.591  -2.260 127.949  0.00  0.00    +0.002 C 
ATOM     18  C   LIG A   1      -7.028  -2.692 129.394  0.00  0.00    -0.023 C 
ATOM     19  C   LIG A   1      -6.048  -3.825 129.830  0.00  0.00    +0.012 C 
ATOM     20  C   LIG A   1      -8.411  -3.370 129.211  0.00  0.00    +0.008 C 
ATOM     21  C   LIG A   1      -8.611  -3.511 127.710  0.00  0.00    +0.008 C 
ATOM     22  C   LIG A   1      -7.892  -2.298 127.093  0.00  0.00    +0.036 C 
ENDROOT
BRANCH  22  23
ATOM     23  C   LIG A   1      -7.723  -2.414 125.548  0.00  0.00    +0.114 C 
ATOM     24  C   LIG A   1      -8.787  -3.321 124.907  0.00  0.00    +0.056 C 
ATOM     25  O   LIG A   1      -7.827  -1.114 124.942  0.00  0.00    -0.458 OA
ATOM     26  C   LIG A   1      -6.961  -1.008 123.892  0.00  0.00    +0.308 C 
ATOM     27  O   LIG A   1      -6.913  -0.051 123.137  0.00  0.00    -0.251 OA
ATOM     28  C   LIG A   1      -6.122  -2.244 123.782  0.00  0.00    +0.124 C 
ATOM     29  C   LIG A   1      -6.330  -2.894 125.132  0.00  0.00    +0.059 C 
ENDBRANCH  22  23
BRANCH  12  30
ATOM     30  O   LIG A   1      -3.114  -0.447 134.548  0.00  0.00    -0.391 OA
ATOM     31  H   LIG A   1      -2.939  -0.481 135.502  0.00  0.00    +0.210 HD
ENDBRANCH  12  30
TORSDOF 2
ENDMDL
MODEL 6
REMARK VINA RESULT:      -8.7      4.011      8.300
REMARK  Name = NuBBE_1725
REMARK  8 active torsions:
REMARK  status: ('A' for Active; 'I' for Inactive)
REMARK    1  A    between atoms: C_1  and  C_2
REMARK    2  A    between atoms: C_5  and  C_6
REMARK    3  A    between atoms: C_11  and  C_12
REMARK    4  A    between atoms: C_11  and  C_13
REMARK    5  A    between atoms: C_14  and  O_18
REMARK    6  A    between atoms: C_23  and  C_24
REMARK    7  A    between atoms: C_27  and  C_29
REMARK    8  A    between atoms: C_29  and  C_30
REMARK                            x       y       z     vdW  Elec       q    Type
REMARK                         _______ _______ _______ _____ _____    ______ ____
ROOT
ATOM      1  C   LIG A   1      -5.254  -0.137 127.944  0.00  0.00    +0.012 C 
ATOM      2  C   LIG A   1      -6.607   0.519 127.527  0.00  0.00    -0.023 C 
ATOM      3  C   LIG A   1      -6.716   0.710 125.975  0.00  0.00    +0.002 C 
ATOM      4  C   LIG A   1      -6.794  -0.612 125.099  0.00  0.00    -0.025 C 
ATOM      5  C   LIG A   1      -5.435  -1.352 125.098  0.00  0.00    +0.012 C 
ATOM      6  C   LIG A   1      -7.992  -1.468 125.664  0.00  0.00    +0.003 C 
ATOM      7  C   LIG A   1      -7.828  -1.755 127.171  0.00  0.00    +0.005 C 
ATOM      8  C   LIG A   1      -7.729  -0.456 127.988  0.00  0.00    +0.008 C 
ATOM      9  C   LIG A   1      -8.415  -2.712 124.795  0.00  0.00    -0.006 C 
ATOM     10  C   LIG A   1      -7.389  -3.863 124.825  0.00  0.00    +0.014 C 
ATOM     11  C   LIG A   1      -9.743  -3.305 125.339  0.00  0.00    +0.014 C 
ATOM     12  C   LIG A   1      -8.650  -2.265 123.320  0.00  0.00    +0.120 C 
ATOM     13  C   LIG A   1      -7.518  -1.419 122.739  0.00  0.00    +0.032 C 
ATOM     14  C   LIG A   1      -7.136  -0.229 123.627  0.00  0.00    +0.010 C 
ATOM     15  C   LIG A   1      -5.770   1.806 125.427  0.00  0.00    +0.005 C 
ATOM     16  C   LIG A   1      -4.953   2.604 126.445  0.00  0.00    +0.005 C 
ATOM     17  C   LIG A   1      -5.654   2.968 127.758  0.00  0.00    +0.002 C 
ATOM     18  C   LIG A   1      -6.780   1.965 128.200  0.00  0.00    -0.023 C 
ATOM     19  C   LIG A   1      -8.138   2.651 127.855  0.00  0.00    +0.012 C 
ATOM     20  C   LIG A   1      -6.700   1.929 129.750  0.00  0.00    +0.008 C 
ATOM     21  C   LIG A   1      -5.735   3.035 130.144  0.00  0.00    +0.008 C 
ATOM     22  C   LIG A   1      -4.716   3.109 128.994  0.00  0.00    +0.036 C 
ENDROOT
BRANCH  22  23
ATOM     23  C   LIG A   1      -3.815   4.380 129.060  0.00  0.00    +0.114 C 
ATOM     24  C   LIG A   1      -2.686   4.354 128.016  0.00  0.00    +0.056 C 
ATOM     25  O   LIG A   1      -4.607   5.557 128.827  0.00  0.00    -0.458 OA
ATOM     26  C   LIG A   1      -4.167   6.588 129.607  0.00  0.00    +0.308 C 
ATOM     27  O   LIG A   1      -4.591   7.730 129.537  0.00  0.00    -0.251 OA
ATOM     28  C   LIG A   1      -3.072   6.123 130.517  0.00  0.00    +0.124 C 
ATOM     29  C   LIG A   1      -3.216   4.619 130.449  0.00  0.00    +0.059 C 
ENDBRANCH  22  23
BRANCH  12  30
ATOM     30  O   LIG A   1      -9.872  -1.531 123.187  0.00  0.00    -0.391 OA
ATOM     31  H   LIG A   1      -9.667  -0.583 123.155  0.00  0.00    +0.210 HD
ENDBRANCH  12  30
TORSDOF 2
ENDMDL
MODEL 7
REMARK VINA RESULT:      -8.6      4.583      6.827
REMARK  Name = NuBBE_1725
REMARK  8 active torsions:
REMARK  status: ('A' for Active; 'I' for Inactive)
REMARK    1  A    between atoms: C_1  and  C_2
REMARK    2  A    between atoms: C_5  and  C_6
REMARK    3  A    between atoms: C_11  and  C_12
REMARK    4  A    between atoms: C_11  and  C_13
REMARK    5  A    between atoms: C_14  and  O_18
REMARK    6  A    between atoms: C_23  and  C_24
REMARK    7  A    between atoms: C_27  and  C_29
REMARK    8  A    between atoms: C_29  and  C_30
REMARK                            x       y       z     vdW  Elec       q    Type
REMARK                         _______ _______ _______ _____ _____    ______ ____
ROOT
ATOM      1  C   LIG A   1      -5.859   2.165 129.547  0.00  0.00    +0.012 C 
ATOM      2  C   LIG A   1      -6.143   1.524 130.941  0.00  0.00    -0.023 C 
ATOM      3  C   LIG A   1      -7.193   0.364 130.854  0.00  0.00    +0.002 C 
ATOM      4  C   LIG A   1      -6.750  -0.939 130.061  0.00  0.00    -0.025 C 
ATOM      5  C   LIG A   1      -6.663  -0.655 128.543  0.00  0.00    +0.012 C 
ATOM      6  C   LIG A   1      -5.396  -1.429 130.702  0.00  0.00    +0.003 C 
ATOM      7  C   LIG A   1      -4.322  -0.322 130.686  0.00  0.00    +0.005 C 
ATOM      8  C   LIG A   1      -4.790   0.934 131.438  0.00  0.00    +0.008 C 
ATOM      9  C   LIG A   1      -4.892  -2.848 130.238  0.00  0.00    -0.006 C 
ATOM     10  C   LIG A   1      -4.381  -2.875 128.784  0.00  0.00    +0.014 C 
ATOM     11  C   LIG A   1      -3.697  -3.296 131.123  0.00  0.00    +0.014 C 
ATOM     12  C   LIG A   1      -6.039  -3.891 130.405  0.00  0.00    +0.120 C 
ATOM     13  C   LIG A   1      -7.374  -3.447 129.810  0.00  0.00    +0.032 C 
ATOM     14  C   LIG A   1      -7.814  -2.057 130.283  0.00  0.00    +0.010 C 
ATOM     15  C   LIG A   1      -8.628   0.861 130.552  0.00  0.00    +0.005 C 
ATOM     16  C   LIG A   1      -8.848   2.373 130.480  0.00  0.00    +0.005 C 
ATOM     17  C   LIG A   1      -8.077   3.231 131.490  0.00  0.00    +0.002 C 
ATOM     18  C   LIG A   1      -6.716   2.613 131.971  0.00  0.00    -0.023 C 
ATOM     19  C   LIG A   1      -6.976   2.038 133.399  0.00  0.00    +0.012 C 
ATOM     20  C   LIG A   1      -5.769   3.827 132.165  0.00  0.00    +0.008 C 
ATOM     21  C   LIG A   1      -6.641   5.063 132.021  0.00  0.00    +0.008 C 
ATOM     22  C   LIG A   1      -7.732   4.672 131.008  0.00  0.00    +0.036 C 
ENDROOT
BRANCH  22  23
ATOM     23  C   LIG A   1      -8.902   5.700 130.947  0.00  0.00    +0.114 C 
ATOM     24  C   LIG A   1      -8.406   7.141 130.742  0.00  0.00    +0.056 C 
ATOM     25  O   LIG A   1      -9.785   5.377 129.859  0.00  0.00    -0.458 OA
ATOM     26  C   LIG A   1     -11.080   5.633 130.207  0.00  0.00    +0.308 C 
ATOM     27  O   LIG A   1     -12.026   5.547 129.441  0.00  0.00    -0.251 OA
ATOM     28  C   LIG A   1     -11.159   6.071 131.637  0.00  0.00    +0.124 C 
ATOM     29  C   LIG A   1      -9.812   5.647 132.177  0.00  0.00    +0.059 C 
ENDBRANCH  22  23
BRANCH  12  30
ATOM     30  O   LIG A   1      -6.248  -4.219 131.783  0.00  0.00    -0.391 OA
ATOM     31  H   LIG A   1      -5.872  -5.096 131.957  0.00  0.00    +0.210 HD
ENDBRANCH  12  30
TORSDOF 2
ENDMDL
MODEL 8
REMARK VINA RESULT:      -8.6      3.618      7.929
REMARK  Name = NuBBE_1725
REMARK  8 active torsions:
REMARK  status: ('A' for Active; 'I' for Inactive)
REMARK    1  A    between atoms: C_1  and  C_2
REMARK    2  A    between atoms: C_5  and  C_6
REMARK    3  A    between atoms: C_11  and  C_12
REMARK    4  A    between atoms: C_11  and  C_13
REMARK    5  A    between atoms: C_14  and  O_18
REMARK    6  A    between atoms: C_23  and  C_24
REMARK    7  A    between atoms: C_27  and  C_29
REMARK    8  A    between atoms: C_29  and  C_30
REMARK                            x       y       z     vdW  Elec       q    Type
REMARK                         _______ _______ _______ _____ _____    ______ ____
ROOT
ATOM      1  C   LIG A   1      -5.770   1.798 126.432  0.00  0.00    +0.012 C 
ATOM      2  C   LIG A   1      -6.291   0.549 127.207  0.00  0.00    -0.023 C 
ATOM      3  C   LIG A   1      -7.668   0.043 126.655  0.00  0.00    +0.002 C 
ATOM      4  C   LIG A   1      -7.668  -0.553 125.182  0.00  0.00    -0.025 C 
ATOM      5  C   LIG A   1      -7.449   0.566 124.136  0.00  0.00    +0.012 C 
ATOM      6  C   LIG A   1      -6.576  -1.689 125.146  0.00  0.00    +0.003 C 
ATOM      7  C   LIG A   1      -5.192  -1.166 125.582  0.00  0.00    +0.005 C 
ATOM      8  C   LIG A   1      -5.230  -0.571 126.999  0.00  0.00    +0.008 C 
ATOM      9  C   LIG A   1      -6.566  -2.590 123.854  0.00  0.00    -0.006 C 
ATOM     10  C   LIG A   1      -6.054  -1.859 122.597  0.00  0.00    +0.014 C 
ATOM     11  C   LIG A   1      -5.616  -3.801 124.064  0.00  0.00    +0.014 C 
ATOM     12  C   LIG A   1      -8.001  -3.138 123.587  0.00  0.00    +0.120 C 
ATOM     13  C   LIG A   1      -9.092  -2.070 123.629  0.00  0.00    +0.032 C 
ATOM     14  C   LIG A   1      -9.051  -1.213 124.900  0.00  0.00    +0.010 C 
ATOM     15  C   LIG A   1      -8.843   0.999 126.976  0.00  0.00    +0.005 C 
ATOM     16  C   LIG A   1      -8.539   2.218 127.848  0.00  0.00    +0.005 C 
ATOM     17  C   LIG A   1      -7.552   2.012 129.003  0.00  0.00    +0.002 C 
ATOM     18  C   LIG A   1      -6.493   0.878 128.765  0.00  0.00    -0.023 C 
ATOM     19  C   LIG A   1      -6.969  -0.351 129.601  0.00  0.00    +0.012 C 
ATOM     20  C   LIG A   1      -5.198   1.386 129.453  0.00  0.00    +0.008 C 
ATOM     21  C   LIG A   1      -5.598   2.630 130.229  0.00  0.00    +0.008 C 
ATOM     22  C   LIG A   1      -6.729   3.272 129.405  0.00  0.00    +0.036 C 
ENDROOT
BRANCH  22  23
ATOM     23  C   LIG A   1      -7.483   4.396 130.179  0.00  0.00    +0.114 C 
ATOM     24  C   LIG A   1      -6.595   5.079 131.233  0.00  0.00    +0.056 C 
ATOM     25  O   LIG A   1      -7.937   5.406 129.262  0.00  0.00    -0.458 OA
ATOM     26  C   LIG A   1      -9.155   5.886 129.650  0.00  0.00    +0.308 C 
ATOM     27  O   LIG A   1      -9.726   6.820 129.112  0.00  0.00    -0.251 OA
ATOM     28  C   LIG A   1      -9.656   5.133 130.843  0.00  0.00    +0.124 C 
ATOM     29  C   LIG A   1      -8.772   3.906 130.843  0.00  0.00    +0.059 C 
ENDBRANCH  22  23
BRANCH  12  30
ATOM     30  O   LIG A   1      -8.346  -4.169 124.520  0.00  0.00    -0.391 OA
ATOM     31  H   LIG A   1      -8.132  -5.030 124.128  0.00  0.00    +0.210 HD
ENDBRANCH  12  30
TORSDOF 2
ENDMDL
MODEL 9
REMARK VINA RESULT:      -8.6      1.610      8.065
REMARK  Name = NuBBE_1725
REMARK  8 active torsions:
REMARK  status: ('A' for Active; 'I' for Inactive)
REMARK    1  A    between atoms: C_1  and  C_2
REMARK    2  A    between atoms: C_5  and  C_6
REMARK    3  A    between atoms: C_11  and  C_12
REMARK    4  A    between atoms: C_11  and  C_13
REMARK    5  A    between atoms: C_14  and  O_18
REMARK    6  A    between atoms: C_23  and  C_24
REMARK    7  A    between atoms: C_27  and  C_29
REMARK    8  A    between atoms: C_29  and  C_30
REMARK                            x       y       z     vdW  Elec       q    Type
REMARK                         _______ _______ _______ _____ _____    ______ ____
ROOT
ATOM      1  C   LIG A   1      -5.798  -0.884 130.045  0.00  0.00    +0.012 C 
ATOM      2  C   LIG A   1      -5.648  -2.371 129.599  0.00  0.00    -0.023 C 
ATOM      3  C   LIG A   1      -7.013  -2.988 129.135  0.00  0.00    +0.002 C 
ATOM      4  C   LIG A   1      -7.650  -2.388 127.809  0.00  0.00    -0.025 C 
ATOM      5  C   LIG A   1      -8.171  -0.951 128.051  0.00  0.00    +0.012 C 
ATOM      6  C   LIG A   1      -6.553  -2.493 126.682  0.00  0.00    +0.003 C 
ATOM      7  C   LIG A   1      -5.244  -1.787 127.092  0.00  0.00    +0.005 C 
ATOM      8  C   LIG A   1      -4.666  -2.371 128.391  0.00  0.00    +0.008 C 
ATOM      9  C   LIG A   1      -7.042  -2.184 125.217  0.00  0.00    -0.006 C 
ATOM     10  C   LIG A   1      -7.355  -0.693 124.975  0.00  0.00    +0.014 C 
ATOM     11  C   LIG A   1      -5.931  -2.560 124.201  0.00  0.00    +0.014 C 
ATOM     12  C   LIG A   1      -8.306  -3.038 124.896  0.00  0.00    +0.120 C 
ATOM     13  C   LIG A   1      -9.388  -2.976 125.972  0.00  0.00    +0.032 C 
ATOM     14  C   LIG A   1      -8.859  -3.273 127.380  0.00  0.00    +0.010 C 
ATOM     15  C   LIG A   1      -8.008  -3.214 130.298  0.00  0.00    +0.005 C 
ATOM     16  C   LIG A   1      -7.514  -2.913 131.714  0.00  0.00    +0.005 C 
ATOM     17  C   LIG A   1      -6.064  -3.292 132.035  0.00  0.00    +0.002 C 
ATOM     18  C   LIG A   1      -5.095  -3.282 130.799  0.00  0.00    -0.023 C 
ATOM     19  C   LIG A   1      -4.881  -4.774 130.396  0.00  0.00    +0.012 C 
ATOM     20  C   LIG A   1      -3.734  -2.790 131.359  0.00  0.00    +0.008 C 
ATOM     21  C   LIG A   1      -3.892  -2.759 132.870  0.00  0.00    +0.008 C 
ATOM     22  C   LIG A   1      -5.370  -2.408 133.114  0.00  0.00    +0.036 C 
ENDROOT
BRANCH  22  23
ATOM     23  C   LIG A   1      -5.809  -2.619 134.595  0.00  0.00    +0.114 C 
ATOM     24  C   LIG A   1      -4.965  -1.794 135.580  0.00  0.00    +0.056 C 
ATOM     25  O   LIG A   1      -7.185  -2.235 134.761  0.00  0.00    -0.458 OA
ATOM     26  C   LIG A   1      -7.808  -3.069 135.644  0.00  0.00    +0.308 C 
ATOM     27  O   LIG A   1      -8.948  -2.913 136.047  0.00  0.00    -0.251 OA
ATOM     28  C   LIG A   1      -6.879  -4.165 136.070  0.00  0.00    +0.124 C 
ATOM     29  C   LIG A   1      -5.792  -4.090 135.021  0.00  0.00    +0.059 C 
ENDBRANCH  22  23
BRANCH  12  30
ATOM     30  O   LIG A   1      -7.964  -4.412 124.682  0.00  0.00    -0.391 OA
ATOM     31  H   LIG A   1      -8.768  -4.902 124.448  0.00  0.00    +0.210 HD
ENDBRANCH  12  30
TORSDOF 2
ENDMDL
