MODEL 1
REMARK VINA RESULT:      -8.3      0.000      0.000
REMARK  Name = NuBBE_2168
REMARK  5 active torsions:
REMARK  status: ('A' for Active; 'I' for Inactive)
REMARK    1  A    between atoms: O_1  and  C_2
REMARK    2  A    between atoms: C_2  and  C_20
REMARK    3  A    between atoms: C_12  and  O_13
REMARK    4  A    between atoms: C_14  and  C_16
REMARK    5  A    between atoms: C_17  and  C_19
REMARK                            x       y       z     vdW  Elec       q    Type
REMARK                         _______ _______ _______ _____ _____    ______ ____
ROOT
ATOM      1  C   LIG A   1      -8.286  -2.095 125.653  0.00  0.00    +0.123 C 
ATOM      2  C   LIG A   1      -7.819  -0.750 125.102  0.00  0.00    +0.040 A 
ATOM      3  C   LIG A   1      -7.991   0.426 125.835  0.00  0.00    +0.173 A 
ATOM      4  O   LIG A   1      -8.590   0.514 127.060  0.00  0.00    -0.452 OA
ATOM      5  C   LIG A   1      -8.442   1.920 127.346  0.00  0.00    +0.466 C 
ATOM      6  O   LIG A   1      -7.832   2.658 126.272  0.00  0.00    -0.453 OA
ATOM      7  C   LIG A   1      -7.574   1.659 125.386  0.00  0.00    +0.167 A 
ATOM      8  C   LIG A   1      -6.970   1.817 124.163  0.00  0.00    +0.050 A 
ATOM      9  C   LIG A   1      -6.794   0.674 123.383  0.00  0.00    +0.010 A 
ATOM     10  C   LIG A   1      -7.204  -0.607 123.839  0.00  0.00    -0.009 A 
ATOM     11  C   LIG A   1      -7.013  -1.782 122.910  0.00  0.00    +0.148 C 
ATOM     12  C   LIG A   1      -6.967  -3.133 123.635  0.00  0.00    +0.025 C 
ATOM     13  C   LIG A   1      -5.590  -3.355 124.276  0.00  0.00    +0.011 C 
ATOM     14  C   LIG A   1      -8.131  -3.298 124.650  0.00  0.00    +0.032 C 
ATOM     15  C   LIG A   1      -9.445  -3.641 123.918  0.00  0.00    +0.011 C 
ENDROOT
BRANCH   1  16
ATOM     16  C   LIG A   1      -7.668  -2.485 127.017  0.00  0.00    -0.008 A 
ATOM     17  C   LIG A   1      -6.323  -2.144 127.283  0.00  0.00    +0.056 A 
ATOM     18  C   LIG A   1      -5.763  -2.518 128.487  0.00  0.00    +0.167 A 
ATOM     19  C   LIG A   1      -6.485  -3.195 129.439  0.00  0.00    +0.166 A 
ATOM     20  O   LIG A   1      -5.748  -3.475 130.546  0.00  0.00    -0.453 OA
ATOM     21  C   LIG A   1      -4.472  -2.914 130.172  0.00  0.00    +0.466 C 
ATOM     22  O   LIG A   1      -4.481  -2.286 128.874  0.00  0.00    -0.453 OA
ATOM     23  C   LIG A   1      -7.803  -3.531 129.240  0.00  0.00    +0.050 A 
ATOM     24  C   LIG A   1      -8.395  -3.174 128.021  0.00  0.00    +0.010 A 
ENDBRANCH   1  16
BRANCH   1  25
ATOM     25  O   LIG A   1      -9.694  -1.902 125.900  0.00  0.00    -0.379 OA
ATOM     26  H   LIG A   1      -9.767  -1.647 126.839  0.00  0.00    +0.211 HD
ENDBRANCH   1  25
BRANCH  11  27
ATOM     27  O   LIG A   1      -8.060  -1.792 121.942  0.00  0.00    -0.387 OA
ATOM     28  H   LIG A   1      -7.753  -1.315 121.152  0.00  0.00    +0.210 HD
ENDBRANCH  11  27
TORSDOF 3
ENDMDL
MODEL 2
REMARK VINA RESULT:      -7.9      2.047      5.262
REMARK  Name = NuBBE_2168
REMARK  5 active torsions:
REMARK  status: ('A' for Active; 'I' for Inactive)
REMARK    1  A    between atoms: O_1  and  C_2
REMARK    2  A    between atoms: C_2  and  C_20
REMARK    3  A    between atoms: C_12  and  O_13
REMARK    4  A    between atoms: C_14  and  C_16
REMARK    5  A    between atoms: C_17  and  C_19
REMARK                            x       y       z     vdW  Elec       q    Type
REMARK                         _______ _______ _______ _____ _____    ______ ____
ROOT
ATOM      1  C   LIG A   1      -6.859  -1.152 125.333  0.00  0.00    +0.123 C 
ATOM      2  C   LIG A   1      -7.525  -2.028 126.391  0.00  0.00    +0.040 A 
ATOM      3  C   LIG A   1      -7.531  -1.652 127.736  0.00  0.00    +0.173 A 
ATOM      4  O   LIG A   1      -6.950  -0.524 128.245  0.00  0.00    -0.452 OA
ATOM      5  C   LIG A   1      -7.308  -0.627 129.638  0.00  0.00    +0.466 C 
ATOM      6  O   LIG A   1      -8.025  -1.834 129.954  0.00  0.00    -0.453 OA
ATOM      7  C   LIG A   1      -8.131  -2.401 128.723  0.00  0.00    +0.167 A 
ATOM      8  C   LIG A   1      -8.753  -3.594 128.447  0.00  0.00    +0.050 A 
ATOM      9  C   LIG A   1      -8.756  -4.024 127.120  0.00  0.00    +0.010 A 
ATOM     10  C   LIG A   1      -8.157  -3.254 126.088  0.00  0.00    -0.009 A 
ATOM     11  C   LIG A   1      -8.170  -3.818 124.688  0.00  0.00    +0.148 C 
ATOM     12  C   LIG A   1      -8.010  -2.749 123.598  0.00  0.00    +0.025 C 
ATOM     13  C   LIG A   1      -9.335  -2.014 123.365  0.00  0.00    +0.011 C 
ATOM     14  C   LIG A   1      -6.832  -1.780 123.891  0.00  0.00    +0.032 C 
ATOM     15  C   LIG A   1      -5.483  -2.447 123.552  0.00  0.00    +0.011 C 
ENDROOT
BRANCH   1  16
ATOM     16  C   LIG A   1      -7.408   0.293 125.250  0.00  0.00    -0.008 A 
ATOM     17  C   LIG A   1      -6.503   1.376 125.314  0.00  0.00    +0.056 A 
ATOM     18  C   LIG A   1      -6.995   2.664 125.269  0.00  0.00    +0.167 A 
ATOM     19  C   LIG A   1      -8.338   2.918 125.143  0.00  0.00    +0.166 A 
ATOM     20  O   LIG A   1      -8.615   4.249 125.126  0.00  0.00    -0.453 OA
ATOM     21  C   LIG A   1      -7.290   4.802 125.277  0.00  0.00    +0.466 C 
ATOM     22  O   LIG A   1      -6.255   3.800 125.347  0.00  0.00    -0.453 OA
ATOM     23  C   LIG A   1      -9.260   1.901 125.053  0.00  0.00    +0.050 A 
ATOM     24  C   LIG A   1      -8.789   0.583 125.107  0.00  0.00    +0.010 A 
ENDBRANCH   1  16
BRANCH   1  25
ATOM     25  O   LIG A   1      -5.496  -1.028 125.789  0.00  0.00    -0.379 OA
ATOM     26  H   LIG A   1      -5.216  -0.124 125.549  0.00  0.00    +0.211 HD
ENDBRANCH   1  25
BRANCH  11  27
ATOM     27  O   LIG A   1      -7.135  -4.791 124.562  0.00  0.00    -0.387 OA
ATOM     28  H   LIG A   1      -7.546  -5.670 124.501  0.00  0.00    +0.210 HD
ENDBRANCH  11  27
TORSDOF 3
ENDMDL
MODEL 3
REMARK VINA RESULT:      -7.8      1.683      5.505
REMARK  Name = NuBBE_2168
REMARK  5 active torsions:
REMARK  status: ('A' for Active; 'I' for Inactive)
REMARK    1  A    between atoms: O_1  and  C_2
REMARK    2  A    between atoms: C_2  and  C_20
REMARK    3  A    between atoms: C_12  and  O_13
REMARK    4  A    between atoms: C_14  and  C_16
REMARK    5  A    between atoms: C_17  and  C_19
REMARK                            x       y       z     vdW  Elec       q    Type
REMARK                         _______ _______ _______ _____ _____    ______ ____
ROOT
ATOM      1  C   LIG A   1      -6.096  -1.269 127.811  0.00  0.00    +0.123 C 
ATOM      2  C   LIG A   1      -6.988  -0.290 128.568  0.00  0.00    +0.040 A 
ATOM      3  C   LIG A   1      -7.336   0.943 128.012  0.00  0.00    +0.173 A 
ATOM      4  O   LIG A   1      -6.921   1.408 126.796  0.00  0.00    -0.452 OA
ATOM      5  C   LIG A   1      -7.613   2.671 126.725  0.00  0.00    +0.466 C 
ATOM      6  O   LIG A   1      -8.364   2.976 127.915  0.00  0.00    -0.453 OA
ATOM      7  C   LIG A   1      -8.149   1.852 128.650  0.00  0.00    +0.167 A 
ATOM      8  C   LIG A   1      -8.661   1.611 129.901  0.00  0.00    +0.050 A 
ATOM      9  C   LIG A   1      -8.326   0.401 130.509  0.00  0.00    +0.010 A 
ATOM     10  C   LIG A   1      -7.502  -0.555 129.857  0.00  0.00    -0.009 A 
ATOM     11  C   LIG A   1      -7.156  -1.818 130.607  0.00  0.00    +0.148 C 
ATOM     12  C   LIG A   1      -6.748  -2.980 129.692  0.00  0.00    +0.025 C 
ATOM     13  C   LIG A   1      -7.987  -3.634 129.068  0.00  0.00    +0.011 C 
ATOM     14  C   LIG A   1      -5.698  -2.554 128.630  0.00  0.00    +0.032 C 
ATOM     15  C   LIG A   1      -4.296  -2.451 129.263  0.00  0.00    +0.011 C 
ENDROOT
BRANCH   1  16
ATOM     16  C   LIG A   1      -6.633  -1.695 126.424  0.00  0.00    -0.008 A 
ATOM     17  C   LIG A   1      -7.992  -2.060 126.297  0.00  0.00    +0.056 A 
ATOM     18  C   LIG A   1      -8.464  -2.467 125.066  0.00  0.00    +0.167 A 
ATOM     19  C   LIG A   1      -7.653  -2.508 123.960  0.00  0.00    +0.166 A 
ATOM     20  O   LIG A   1      -8.308  -2.944 122.852  0.00  0.00    -0.453 OA
ATOM     21  C   LIG A   1      -9.622  -3.192 123.394  0.00  0.00    +0.466 C 
ATOM     22  O   LIG A   1      -9.734  -2.871 124.796  0.00  0.00    -0.453 OA
ATOM     23  C   LIG A   1      -6.328  -2.143 124.024  0.00  0.00    +0.050 A 
ATOM     24  C   LIG A   1      -5.819  -1.735 125.263  0.00  0.00    +0.010 A 
ENDBRANCH   1  16
BRANCH   1  25
ATOM     25  O   LIG A   1      -4.892  -0.519 127.552  0.00  0.00    -0.379 OA
ATOM     26  H   LIG A   1      -5.026   0.353 127.970  0.00  0.00    +0.211 HD
ENDBRANCH   1  25
BRANCH  11  27
ATOM     27  O   LIG A   1      -6.104  -1.543 131.531  0.00  0.00    -0.387 OA
ATOM     28  H   LIG A   1      -5.350  -1.176 131.037  0.00  0.00    +0.210 HD
ENDBRANCH  11  27
TORSDOF 3
ENDMDL
MODEL 4
REMARK VINA RESULT:      -7.7      2.642      6.425
REMARK  Name = NuBBE_2168
REMARK  5 active torsions:
REMARK  status: ('A' for Active; 'I' for Inactive)
REMARK    1  A    between atoms: O_1  and  C_2
REMARK    2  A    between atoms: C_2  and  C_20
REMARK    3  A    between atoms: C_12  and  O_13
REMARK    4  A    between atoms: C_14  and  C_16
REMARK    5  A    between atoms: C_17  and  C_19
REMARK                            x       y       z     vdW  Elec       q    Type
REMARK                         _______ _______ _______ _____ _____    ______ ____
ROOT
ATOM      1  C   LIG A   1      -5.254  -2.254 129.442  0.00  0.00    +0.123 C 
ATOM      2  C   LIG A   1      -5.583  -1.595 130.779  0.00  0.00    +0.040 A 
ATOM      3  C   LIG A   1      -6.314  -0.406 130.833  0.00  0.00    +0.173 A 
ATOM      4  O   LIG A   1      -6.778   0.288 129.751  0.00  0.00    -0.452 OA
ATOM      5  C   LIG A   1      -7.484   1.370 130.392  0.00  0.00    +0.466 C 
ATOM      6  O   LIG A   1      -7.372   1.351 131.827  0.00  0.00    -0.453 OA
ATOM      7  C   LIG A   1      -6.647   0.217 132.015  0.00  0.00    +0.167 A 
ATOM      8  C   LIG A   1      -6.259  -0.286 133.232  0.00  0.00    +0.050 A 
ATOM      9  C   LIG A   1      -5.508  -1.462 133.230  0.00  0.00    +0.010 A 
ATOM     10  C   LIG A   1      -5.171  -2.126 132.021  0.00  0.00    -0.009 A 
ATOM     11  C   LIG A   1      -4.319  -3.369 132.112  0.00  0.00    +0.148 C 
ATOM     12  C   LIG A   1      -4.450  -4.290 130.891  0.00  0.00    +0.025 C 
ATOM     13  C   LIG A   1      -5.743  -5.112 130.973  0.00  0.00    +0.011 C 
ATOM     14  C   LIG A   1      -4.318  -3.515 129.551  0.00  0.00    +0.032 C 
ATOM     15  C   LIG A   1      -2.840  -3.193 129.254  0.00  0.00    +0.011 C 
ENDROOT
BRANCH   1  16
ATOM     16  C   LIG A   1      -6.485  -2.607 128.574  0.00  0.00    -0.008 A 
ATOM     17  C   LIG A   1      -6.496  -2.229 127.212  0.00  0.00    +0.056 A 
ATOM     18  C   LIG A   1      -7.605  -2.517 126.445  0.00  0.00    +0.167 A 
ATOM     19  C   LIG A   1      -8.690  -3.178 126.966  0.00  0.00    +0.166 A 
ATOM     20  O   LIG A   1      -9.678  -3.356 126.050  0.00  0.00    -0.453 OA
ATOM     21  C   LIG A   1      -9.097  -2.711 124.897  0.00  0.00    +0.466 C 
ATOM     22  O   LIG A   1      -7.772  -2.194 125.136  0.00  0.00    -0.453 OA
ATOM     23  C   LIG A   1      -8.722  -3.589 128.279  0.00  0.00    +0.050 A 
ATOM     24  C   LIG A   1      -7.613  -3.300 129.084  0.00  0.00    +0.010 A 
ENDBRANCH   1  16
BRANCH   1  25
ATOM     25  O   LIG A   1      -4.539  -1.234 128.715  0.00  0.00    -0.379 OA
ATOM     26  H   LIG A   1      -4.077  -0.700 129.388  0.00  0.00    +0.211 HD
ENDBRANCH   1  25
BRANCH  11  27
ATOM     27  O   LIG A   1      -2.954  -2.993 132.284  0.00  0.00    -0.387 OA
ATOM     28  H   LIG A   1      -2.783  -2.887 133.236  0.00  0.00    +0.210 HD
ENDBRANCH  11  27
TORSDOF 3
ENDMDL
MODEL 5
REMARK VINA RESULT:      -7.6      6.718      9.458
REMARK  Name = NuBBE_2168
REMARK  5 active torsions:
REMARK  status: ('A' for Active; 'I' for Inactive)
REMARK    1  A    between atoms: O_1  and  C_2
REMARK    2  A    between atoms: C_2  and  C_20
REMARK    3  A    between atoms: C_12  and  O_13
REMARK    4  A    between atoms: C_14  and  C_16
REMARK    5  A    between atoms: C_17  and  C_19
REMARK                            x       y       z     vdW  Elec       q    Type
REMARK                         _______ _______ _______ _____ _____    ______ ____
ROOT
ATOM      1  C   LIG A   1      -8.529   3.342 131.064  0.00  0.00    +0.123 C 
ATOM      2  C   LIG A   1      -7.010   3.354 131.212  0.00  0.00    +0.040 A 
ATOM      3  C   LIG A   1      -6.188   3.746 130.154  0.00  0.00    +0.173 A 
ATOM      4  O   LIG A   1      -6.621   4.123 128.914  0.00  0.00    -0.452 OA
ATOM      5  C   LIG A   1      -5.374   4.459 128.270  0.00  0.00    +0.466 C 
ATOM      6  O   LIG A   1      -4.223   4.212 129.097  0.00  0.00    -0.453 OA
ATOM      7  C   LIG A   1      -4.815   3.786 130.245  0.00  0.00    +0.167 A 
ATOM      8  C   LIG A   1      -4.155   3.419 131.391  0.00  0.00    +0.050 A 
ATOM      9  C   LIG A   1      -4.932   2.999 132.472  0.00  0.00    +0.010 A 
ATOM     10  C   LIG A   1      -6.350   2.968 132.399  0.00  0.00    -0.009 A 
ATOM     11  C   LIG A   1      -7.107   2.459 133.602  0.00  0.00    +0.148 C 
ATOM     12  C   LIG A   1      -8.561   2.945 133.659  0.00  0.00    +0.025 C 
ATOM     13  C   LIG A   1      -8.627   4.390 134.169  0.00  0.00    +0.011 C 
ATOM     14  C   LIG A   1      -9.300   2.755 132.306  0.00  0.00    +0.032 C 
ATOM     15  C   LIG A   1      -9.712   1.281 132.114  0.00  0.00    +0.011 C 
ENDROOT
BRANCH   1  16
ATOM     16  C   LIG A   1      -9.152   4.704 130.675  0.00  0.00    -0.008 A 
ATOM     17  C   LIG A   1     -10.405   4.724 130.022  0.00  0.00    +0.056 A 
ATOM     18  C   LIG A   1     -10.947   5.936 129.649  0.00  0.00    +0.167 A 
ATOM     19  C   LIG A   1     -10.310   7.123 129.914  0.00  0.00    +0.166 A 
ATOM     20  O   LIG A   1     -11.005   8.198 129.458  0.00  0.00    -0.453 OA
ATOM     21  C   LIG A   1     -12.145   7.548 128.857  0.00  0.00    +0.466 C 
ATOM     22  O   LIG A   1     -12.124   6.112 128.993  0.00  0.00    -0.453 OA
ATOM     23  C   LIG A   1      -9.100   7.161 130.567  0.00  0.00    +0.050 A 
ATOM     24  C   LIG A   1      -8.521   5.944 130.948  0.00  0.00    +0.010 A 
ENDBRANCH   1  16
BRANCH   1  25
ATOM     25  O   LIG A   1      -8.766   2.467 129.942  0.00  0.00    -0.379 OA
ATOM     26  H   LIG A   1      -9.438   2.913 129.393  0.00  0.00    +0.211 HD
ENDBRANCH   1  25
BRANCH  11  27
ATOM     27  O   LIG A   1      -7.077   1.033 133.608  0.00  0.00    -0.387 OA
ATOM     28  H   LIG A   1      -6.426   0.737 132.949  0.00  0.00    +0.210 HD
ENDBRANCH  11  27
TORSDOF 3
ENDMDL
MODEL 6
REMARK VINA RESULT:      -7.6      2.233      4.895
REMARK  Name = NuBBE_2168
REMARK  5 active torsions:
REMARK  status: ('A' for Active; 'I' for Inactive)
REMARK    1  A    between atoms: O_1  and  C_2
REMARK    2  A    between atoms: C_2  and  C_20
REMARK    3  A    between atoms: C_12  and  O_13
REMARK    4  A    between atoms: C_14  and  C_16
REMARK    5  A    between atoms: C_17  and  C_19
REMARK                            x       y       z     vdW  Elec       q    Type
REMARK                         _______ _______ _______ _____ _____    ______ ____
ROOT
ATOM      1  C   LIG A   1      -6.545  -0.990 125.258  0.00  0.00    +0.123 C 
ATOM      2  C   LIG A   1      -7.402  -1.936 126.095  0.00  0.00    +0.040 A 
ATOM      3  C   LIG A   1      -7.002  -2.325 127.375  0.00  0.00    +0.173 A 
ATOM      4  O   LIG A   1      -5.844  -1.945 127.992  0.00  0.00    -0.452 OA
ATOM      5  C   LIG A   1      -5.984  -2.588 129.275  0.00  0.00    +0.466 C 
ATOM      6  O   LIG A   1      -7.172  -3.393 129.382  0.00  0.00    -0.453 OA
ATOM      7  C   LIG A   1      -7.748  -3.164 128.172  0.00  0.00    +0.167 A 
ATOM      8  C   LIG A   1      -8.940  -3.696 127.745  0.00  0.00    +0.050 A 
ATOM      9  C   LIG A   1      -9.373  -3.354 126.464  0.00  0.00    +0.010 A 
ATOM     10  C   LIG A   1      -8.623  -2.476 125.637  0.00  0.00    -0.009 A 
ATOM     11  C   LIG A   1      -9.147  -2.195 124.248  0.00  0.00    +0.148 C 
ATOM     12  C   LIG A   1      -8.615  -0.887 123.649  0.00  0.00    +0.025 C 
ATOM     13  C   LIG A   1      -9.369   0.317 124.228  0.00  0.00    +0.011 C 
ATOM     14  C   LIG A   1      -7.075  -0.754 123.795  0.00  0.00    +0.032 C 
ATOM     15  C   LIG A   1      -6.352  -1.625 122.747  0.00  0.00    +0.011 C 
ENDROOT
BRANCH   1  16
ATOM     16  C   LIG A   1      -6.253   0.377 125.921  0.00  0.00    -0.008 A 
ATOM     17  C   LIG A   1      -4.934   0.884 125.899  0.00  0.00    +0.056 A 
ATOM     18  C   LIG A   1      -4.669   2.089 126.515  0.00  0.00    +0.167 A 
ATOM     19  C   LIG A   1      -5.656   2.816 127.133  0.00  0.00    +0.166 A 
ATOM     20  O   LIG A   1      -5.186   3.966 127.684  0.00  0.00    -0.453 OA
ATOM     21  C   LIG A   1      -3.783   3.868 127.360  0.00  0.00    +0.466 C 
ATOM     22  O   LIG A   1      -3.452   2.688 126.599  0.00  0.00    -0.453 OA
ATOM     23  C   LIG A   1      -6.960   2.380 127.164  0.00  0.00    +0.050 A 
ATOM     24  C   LIG A   1      -7.257   1.154 126.555  0.00  0.00    +0.010 A 
ENDBRANCH   1  16
BRANCH   1  25
ATOM     25  O   LIG A   1      -5.271  -1.661 125.165  0.00  0.00    -0.379 OA
ATOM     26  H   LIG A   1      -5.172  -1.916 124.228  0.00  0.00    +0.211 HD
ENDBRANCH   1  25
BRANCH  11  27
ATOM     27  O   LIG A   1      -8.815  -3.286 123.391  0.00  0.00    -0.387 OA
ATOM     28  H   LIG A   1      -8.481  -2.925 122.551  0.00  0.00    +0.210 HD
ENDBRANCH  11  27
TORSDOF 3
ENDMDL
MODEL 7
REMARK VINA RESULT:      -7.5      1.840      5.201
REMARK  Name = NuBBE_2168
REMARK  5 active torsions:
REMARK  status: ('A' for Active; 'I' for Inactive)
REMARK    1  A    between atoms: O_1  and  C_2
REMARK    2  A    between atoms: C_2  and  C_20
REMARK    3  A    between atoms: C_12  and  O_13
REMARK    4  A    between atoms: C_14  and  C_16
REMARK    5  A    between atoms: C_17  and  C_19
REMARK                            x       y       z     vdW  Elec       q    Type
REMARK                         _______ _______ _______ _____ _____    ______ ____
ROOT
ATOM      1  C   LIG A   1      -6.237  -1.194 126.239  0.00  0.00    +0.123 C 
ATOM      2  C   LIG A   1      -7.159  -2.075 127.077  0.00  0.00    +0.040 A 
ATOM      3  C   LIG A   1      -7.033  -2.131 128.467  0.00  0.00    +0.173 A 
ATOM      4  O   LIG A   1      -6.101  -1.458 129.204  0.00  0.00    -0.452 OA
ATOM      5  C   LIG A   1      -6.468  -1.844 130.544  0.00  0.00    +0.466 C 
ATOM      6  O   LIG A   1      -7.553  -2.788 130.587  0.00  0.00    -0.453 OA
ATOM      7  C   LIG A   1      -7.850  -2.900 129.265  0.00  0.00    +0.167 A 
ATOM      8  C   LIG A   1      -8.843  -3.688 128.736  0.00  0.00    +0.050 A 
ATOM      9  C   LIG A   1      -8.996  -3.683 127.349  0.00  0.00    +0.010 A 
ATOM     10  C   LIG A   1      -8.173  -2.882 126.515  0.00  0.00    -0.009 A 
ATOM     11  C   LIG A   1      -8.381  -2.972 125.022  0.00  0.00    +0.148 C 
ATOM     12  C   LIG A   1      -7.869  -1.743 124.259  0.00  0.00    +0.025 C 
ATOM     13  C   LIG A   1      -8.864  -0.582 124.376  0.00  0.00    +0.011 C 
ATOM     14  C   LIG A   1      -6.430  -1.342 124.684  0.00  0.00    +0.032 C 
ATOM     15  C   LIG A   1      -5.391  -2.281 124.038  0.00  0.00    +0.011 C 
ENDROOT
BRANCH   1  16
ATOM     16  C   LIG A   1      -6.260   0.308 126.615  0.00  0.00    -0.008 A 
ATOM     17  C   LIG A   1      -7.443   0.862 127.153  0.00  0.00    +0.056 A 
ATOM     18  C   LIG A   1      -7.473   2.206 127.460  0.00  0.00    +0.167 A 
ATOM     19  C   LIG A   1      -6.378   3.013 127.275  0.00  0.00    +0.166 A 
ATOM     20  O   LIG A   1      -6.618   4.303 127.631  0.00  0.00    -0.453 OA
ATOM     21  C   LIG A   1      -7.999   4.218 128.043  0.00  0.00    +0.466 C 
ATOM     22  O   LIG A   1      -8.542   2.884 127.957  0.00  0.00    -0.453 OA
ATOM     23  C   LIG A   1      -5.196   2.520 126.775  0.00  0.00    +0.050 A 
ATOM     24  C   LIG A   1      -5.139   1.160 126.444  0.00  0.00    +0.010 A 
ENDBRANCH   1  16
BRANCH   1  25
ATOM     25  O   LIG A   1      -4.912  -1.660 126.568  0.00  0.00    -0.379 OA
ATOM     26  H   LIG A   1      -4.954  -2.634 126.526  0.00  0.00    +0.211 HD
ENDBRANCH   1  25
BRANCH  11  27
ATOM     27  O   LIG A   1      -7.741  -4.146 124.527  0.00  0.00    -0.387 OA
ATOM     28  H   LIG A   1      -8.428  -4.787 124.276  0.00  0.00    +0.210 HD
ENDBRANCH  11  27
TORSDOF 3
ENDMDL
MODEL 8
REMARK VINA RESULT:      -7.5      7.336     10.900
REMARK  Name = NuBBE_2168
REMARK  5 active torsions:
REMARK  status: ('A' for Active; 'I' for Inactive)
REMARK    1  A    between atoms: O_1  and  C_2
REMARK    2  A    between atoms: C_2  and  C_20
REMARK    3  A    between atoms: C_12  and  O_13
REMARK    4  A    between atoms: C_14  and  C_16
REMARK    5  A    between atoms: C_17  and  C_19
REMARK                            x       y       z     vdW  Elec       q    Type
REMARK                         _______ _______ _______ _____ _____    ______ ____
ROOT
ATOM      1  C   LIG A   1      -8.117   4.817 133.836  0.00  0.00    +0.123 C 
ATOM      2  C   LIG A   1      -7.477   3.499 133.406  0.00  0.00    +0.040 A 
ATOM      3  C   LIG A   1      -8.242   2.483 132.830  0.00  0.00    +0.173 A 
ATOM      4  O   LIG A   1      -9.590   2.533 132.614  0.00  0.00    -0.452 OA
ATOM      5  C   LIG A   1      -9.819   1.265 131.966  0.00  0.00    +0.466 C 
ATOM      6  O   LIG A   1      -8.634   0.453 131.870  0.00  0.00    -0.453 OA
ATOM      7  C   LIG A   1      -7.706   1.285 132.414  0.00  0.00    +0.167 A 
ATOM      8  C   LIG A   1      -6.371   1.000 132.559  0.00  0.00    +0.050 A 
ATOM      9  C   LIG A   1      -5.568   1.976 133.150  0.00  0.00    +0.010 A 
ATOM     10  C   LIG A   1      -6.101   3.223 133.568  0.00  0.00    -0.009 A 
ATOM     11  C   LIG A   1      -5.166   4.203 134.236  0.00  0.00    +0.148 C 
ATOM     12  C   LIG A   1      -5.652   5.656 134.164  0.00  0.00    +0.025 C 
ATOM     13  C   LIG A   1      -5.365   6.253 132.781  0.00  0.00    +0.011 C 
ATOM     14  C   LIG A   1      -7.141   5.802 134.581  0.00  0.00    +0.032 C 
ATOM     15  C   LIG A   1      -7.285   5.742 136.115  0.00  0.00    +0.011 C 
ENDROOT
BRANCH   1  16
ATOM     16  C   LIG A   1      -8.847   5.580 132.705  0.00  0.00    -0.008 A 
ATOM     17  C   LIG A   1     -10.244   5.774 132.799  0.00  0.00    +0.056 A 
ATOM     18  C   LIG A   1     -10.899   6.429 131.777  0.00  0.00    +0.167 A 
ATOM     19  C   LIG A   1     -10.227   6.914 130.684  0.00  0.00    +0.166 A 
ATOM     20  O   LIG A   1     -11.055   7.518 129.791  0.00  0.00    -0.453 OA
ATOM     21  C   LIG A   1     -12.331   7.338 130.441  0.00  0.00    +0.466 C 
ATOM     22  O   LIG A   1     -12.236   6.665 131.714  0.00  0.00    -0.453 OA
ATOM     23  C   LIG A   1      -8.865   6.773 130.554  0.00  0.00    +0.050 A 
ATOM     24  C   LIG A   1      -8.174   6.102 131.571  0.00  0.00    +0.010 A 
ENDBRANCH   1  16
BRANCH   1  25
ATOM     25  O   LIG A   1      -9.143   4.420 134.769  0.00  0.00    -0.379 OA
ATOM     26  H   LIG A   1      -9.949   4.280 134.235  0.00  0.00    +0.211 HD
ENDBRANCH   1  25
BRANCH  11  27
ATOM     27  O   LIG A   1      -4.984   3.824 135.599  0.00  0.00    -0.387 OA
ATOM     28  H   LIG A   1      -4.037   3.895 135.813  0.00  0.00    +0.210 HD
ENDBRANCH  11  27
TORSDOF 3
ENDMDL
MODEL 9
REMARK VINA RESULT:      -7.4      6.796     10.164
REMARK  Name = NuBBE_2168
REMARK  5 active torsions:
REMARK  status: ('A' for Active; 'I' for Inactive)
REMARK    1  A    between atoms: O_1  and  C_2
REMARK    2  A    between atoms: C_2  and  C_20
REMARK    3  A    between atoms: C_12  and  O_13
REMARK    4  A    between atoms: C_14  and  C_16
REMARK    5  A    between atoms: C_17  and  C_19
REMARK                            x       y       z     vdW  Elec       q    Type
REMARK                         _______ _______ _______ _____ _____    ______ ____
ROOT
ATOM      1  C   LIG A   1      -4.544   5.573 131.946  0.00  0.00    +0.123 C 
ATOM      2  C   LIG A   1      -4.068   4.828 130.702  0.00  0.00    +0.040 A 
ATOM      3  C   LIG A   1      -4.556   3.556 130.395  0.00  0.00    +0.173 A 
ATOM      4  O   LIG A   1      -5.455   2.851 131.145  0.00  0.00    -0.452 OA
ATOM      5  C   LIG A   1      -5.625   1.666 130.342  0.00  0.00    +0.466 C 
ATOM      6  O   LIG A   1      -4.783   1.644 129.175  0.00  0.00    -0.453 OA
ATOM      7  C   LIG A   1      -4.168   2.852 129.278  0.00  0.00    +0.167 A 
ATOM      8  C   LIG A   1      -3.247   3.353 128.391  0.00  0.00    +0.050 A 
ATOM      9  C   LIG A   1      -2.713   4.613 128.665  0.00  0.00    +0.010 A 
ATOM     10  C   LIG A   1      -3.116   5.359 129.804  0.00  0.00    -0.009 A 
ATOM     11  C   LIG A   1      -2.454   6.694 130.044  0.00  0.00    +0.148 C 
ATOM     12  C   LIG A   1      -3.282   7.636 130.927  0.00  0.00    +0.025 C 
ATOM     13  C   LIG A   1      -4.408   8.288 130.113  0.00  0.00    +0.011 C 
ATOM     14  C   LIG A   1      -3.803   6.936 132.212  0.00  0.00    +0.032 C 
ATOM     15  C   LIG A   1      -2.676   6.811 133.258  0.00  0.00    +0.011 C 
ENDROOT
BRANCH   1  16
ATOM     16  C   LIG A   1      -6.073   5.801 132.019  0.00  0.00    -0.008 A 
ATOM     17  C   LIG A   1      -6.758   6.229 130.859  0.00  0.00    +0.056 A 
ATOM     18  C   LIG A   1      -8.116   6.460 130.931  0.00  0.00    +0.167 A 
ATOM     19  C   LIG A   1      -8.820   6.268 132.094  0.00  0.00    +0.166 A 
ATOM     20  O   LIG A   1     -10.140   6.559 131.955  0.00  0.00    -0.453 OA
ATOM     21  C   LIG A   1     -10.181   6.978 130.574  0.00  0.00    +0.466 C 
ATOM     22  O   LIG A   1      -8.902   6.898 129.913  0.00  0.00    -0.453 OA
ATOM     23  C   LIG A   1      -8.206   5.831 133.245  0.00  0.00    +0.050 A 
ATOM     24  C   LIG A   1      -6.825   5.598 133.204  0.00  0.00    +0.010 A 
ENDBRANCH   1  16
BRANCH   1  25
ATOM     25  O   LIG A   1      -4.229   4.678 133.033  0.00  0.00    -0.379 OA
ATOM     26  H   LIG A   1      -4.406   5.179 133.851  0.00  0.00    +0.211 HD
ENDBRANCH   1  25
BRANCH  11  27
ATOM     27  O   LIG A   1      -1.173   6.484 130.636  0.00  0.00    -0.387 OA
ATOM     28  H   LIG A   1      -1.292   6.381 131.596  0.00  0.00    +0.210 HD
ENDBRANCH  11  27
TORSDOF 3
ENDMDL
