MODEL 1
REMARK VINA RESULT:      -7.9      0.000      0.000
REMARK  Name = NuBBE_2378
REMARK  7 active torsions:
REMARK  status: ('A' for Active; 'I' for Inactive)
REMARK    1  A    between atoms: C_1  and  C_24
REMARK    2  A    between atoms: C_1  and  C_25
REMARK    3  A    between atoms: C_11  and  O_19
REMARK    4  A    between atoms: C_12  and  O_18
REMARK    5  A    between atoms: C_13  and  C_14
REMARK    6  A    between atoms: C_14  and  C_15
REMARK    7  A    between atoms: C_14  and  C_16
REMARK                            x       y       z     vdW  Elec       q    Type
REMARK                         _______ _______ _______ _____ _____    ______ ____
ROOT
ATOM      1  C   LIG A   1      -7.919   2.261 131.476  0.00  0.00    -0.031 C 
ATOM      2  C   LIG A   1      -8.869   3.363 130.893  0.00  0.00    +0.020 C 
ATOM      3  C   LIG A   1      -8.895   4.743 131.661  0.00  0.00    +0.100 C 
ATOM      4  C   LIG A   1      -7.624   5.518 131.236  0.00  0.00    +0.319 C 
ATOM      5  O   LIG A   1      -6.795   5.986 132.005  0.00  0.00    -0.250 OA
ATOM      6  O   LIG A   1      -7.525   5.666 129.874  0.00  0.00    -0.456 OA
ATOM      7  C   LIG A   1      -8.637   5.132 129.119  0.00  0.00    +0.207 C 
ATOM      8  C   LIG A   1      -9.901   5.745 129.672  0.00  0.00    +0.001 A 
ATOM      9  C   LIG A   1     -10.059   5.566 131.065  0.00  0.00    +0.021 A 
ATOM     10  C   LIG A   1     -11.179   6.128 131.660  0.00  0.00    +0.163 A 
ATOM     11  C   LIG A   1     -12.147   6.782 130.878  0.00  0.00    +0.162 A 
ATOM     12  C   LIG A   1     -12.004   6.943 129.493  0.00  0.00    +0.001 A 
ATOM     13  C   LIG A   1     -10.849   6.419 128.896  0.00  0.00    +0.015 A 
ATOM     14  C   LIG A   1      -8.683   3.622 129.368  0.00  0.00    +0.055 C 
ATOM     15  C   LIG A   1      -8.958   4.528 133.183  0.00  0.00    +0.023 C 
ATOM     16  C   LIG A   1      -7.980   3.487 133.718  0.00  0.00    +0.002 C 
ATOM     17  C   LIG A   1      -8.145   2.153 133.001  0.00  0.00    +0.007 C 
ATOM     18  C   LIG A   1      -6.418   2.501 131.206  0.00  0.00    +0.011 C 
ATOM     19  C   LIG A   1      -8.279   0.894 130.847  0.00  0.00    +0.011 C 
ENDROOT
BRANCH  12  20
ATOM     20  C   LIG A   1     -13.023   7.657 128.621  0.00  0.00    +0.017 C 
ATOM     21  C   LIG A   1     -13.006   7.153 127.176  0.00  0.00    +0.012 C 
ATOM     22  C   LIG A   1     -12.879   9.180 128.682  0.00  0.00    +0.012 C 
ENDBRANCH  12  20
BRANCH  11  23
ATOM     23  O   LIG A   1     -13.250   7.283 131.520  0.00  0.00    -0.503 OA
ATOM     24  H   LIG A   1     -13.965   6.645 131.320  0.00  0.00    +0.292 HD
ENDBRANCH  11  23
BRANCH  10  25
ATOM     25  O   LIG A   1     -11.418   6.120 133.005  0.00  0.00    -0.503 OA
ATOM     26  H   LIG A   1     -10.557   6.237 133.443  0.00  0.00    +0.292 HD
ENDBRANCH  10  25
TORSDOF 3
ENDMDL
MODEL 2
REMARK VINA RESULT:      -7.7      7.433     10.140
REMARK  Name = NuBBE_2378
REMARK  7 active torsions:
REMARK  status: ('A' for Active; 'I' for Inactive)
REMARK    1  A    between atoms: C_1  and  C_24
REMARK    2  A    between atoms: C_1  and  C_25
REMARK    3  A    between atoms: C_11  and  O_19
REMARK    4  A    between atoms: C_12  and  O_18
REMARK    5  A    between atoms: C_13  and  C_14
REMARK    6  A    between atoms: C_14  and  C_15
REMARK    7  A    between atoms: C_14  and  C_16
REMARK                            x       y       z     vdW  Elec       q    Type
REMARK                         _______ _______ _______ _____ _____    ______ ____
ROOT
ATOM      1  C   LIG A   1      -8.303   1.670 123.935  0.00  0.00    -0.031 C 
ATOM      2  C   LIG A   1      -8.018   0.618 125.062  0.00  0.00    +0.020 C 
ATOM      3  C   LIG A   1      -8.061  -0.901 124.630  0.00  0.00    +0.100 C 
ATOM      4  C   LIG A   1      -6.722  -1.204 123.916  0.00  0.00    +0.319 C 
ATOM      5  O   LIG A   1      -6.613  -1.688 122.798  0.00  0.00    -0.250 OA
ATOM      6  O   LIG A   1      -5.628  -0.899 124.690  0.00  0.00    -0.456 OA
ATOM      7  C   LIG A   1      -5.936  -0.420 126.020  0.00  0.00    +0.207 C 
ATOM      8  C   LIG A   1      -6.837  -1.439 126.675  0.00  0.00    +0.001 A 
ATOM      9  C   LIG A   1      -7.998  -1.738 125.927  0.00  0.00    +0.021 A 
ATOM     10  C   LIG A   1      -8.864  -2.691 126.442  0.00  0.00    +0.163 A 
ATOM     11  C   LIG A   1      -8.618  -3.271 127.699  0.00  0.00    +0.162 A 
ATOM     12  C   LIG A   1      -7.478  -2.961 128.453  0.00  0.00    +0.001 A 
ATOM     13  C   LIG A   1      -6.575  -2.035 127.912  0.00  0.00    +0.015 A 
ATOM     14  C   LIG A   1      -6.715   0.889 125.872  0.00  0.00    +0.055 C 
ATOM     15  C   LIG A   1      -9.273  -1.185 123.727  0.00  0.00    +0.023 C 
ATOM     16  C   LIG A   1      -9.484  -0.168 122.609  0.00  0.00    +0.002 C 
ATOM     17  C   LIG A   1      -9.571   1.249 123.159  0.00  0.00    +0.007 C 
ATOM     18  C   LIG A   1      -7.143   1.865 122.934  0.00  0.00    +0.011 C 
ATOM     19  C   LIG A   1      -8.579   3.047 124.582  0.00  0.00    +0.011 C 
ENDROOT
BRANCH  12  20
ATOM     20  C   LIG A   1      -7.173  -3.580 129.808  0.00  0.00    +0.017 C 
ATOM     21  C   LIG A   1      -7.607  -2.682 130.969  0.00  0.00    +0.012 C 
ATOM     22  C   LIG A   1      -5.705  -3.996 129.942  0.00  0.00    +0.012 C 
ENDBRANCH  12  20
BRANCH  11  23
ATOM     23  O   LIG A   1      -9.532  -4.178 128.171  0.00  0.00    -0.503 OA
ATOM     24  H   LIG A   1      -9.465  -4.114 129.145  0.00  0.00    +0.292 HD
ENDBRANCH  11  23
BRANCH  10  25
ATOM     25  O   LIG A   1      -9.973  -3.151 125.791  0.00  0.00    -0.503 OA
ATOM     26  H   LIG A   1     -10.199  -4.007 126.193  0.00  0.00    +0.292 HD
ENDBRANCH  10  25
TORSDOF 3
ENDMDL
MODEL 3
REMARK VINA RESULT:      -7.7      7.076      9.156
REMARK  Name = NuBBE_2378
REMARK  7 active torsions:
REMARK  status: ('A' for Active; 'I' for Inactive)
REMARK    1  A    between atoms: C_1  and  C_24
REMARK    2  A    between atoms: C_1  and  C_25
REMARK    3  A    between atoms: C_11  and  O_19
REMARK    4  A    between atoms: C_12  and  O_18
REMARK    5  A    between atoms: C_13  and  C_14
REMARK    6  A    between atoms: C_14  and  C_15
REMARK    7  A    between atoms: C_14  and  C_16
REMARK                            x       y       z     vdW  Elec       q    Type
REMARK                         _______ _______ _______ _____ _____    ______ ____
ROOT
ATOM      1  C   LIG A   1      -7.261  -2.664 124.211  0.00  0.00    -0.031 C 
ATOM      2  C   LIG A   1      -6.659  -1.302 124.701  0.00  0.00    +0.020 C 
ATOM      3  C   LIG A   1      -7.624  -0.053 124.659  0.00  0.00    +0.100 C 
ATOM      4  C   LIG A   1      -8.555  -0.162 125.891  0.00  0.00    +0.319 C 
ATOM      5  O   LIG A   1      -9.777  -0.136 125.855  0.00  0.00    -0.250 OA
ATOM      6  O   LIG A   1      -7.860  -0.262 127.072  0.00  0.00    -0.456 OA
ATOM      7  C   LIG A   1      -6.421  -0.186 126.943  0.00  0.00    +0.207 C 
ATOM      8  C   LIG A   1      -6.096   1.083 126.191  0.00  0.00    +0.001 A 
ATOM      9  C   LIG A   1      -6.757   1.193 124.946  0.00  0.00    +0.021 A 
ATOM     10  C   LIG A   1      -6.540   2.346 124.206  0.00  0.00    +0.163 A 
ATOM     11  C   LIG A   1      -5.635   3.322 124.658  0.00  0.00    +0.162 A 
ATOM     12  C   LIG A   1      -4.962   3.206 125.882  0.00  0.00    +0.001 A 
ATOM     13  C   LIG A   1      -5.218   2.066 126.656  0.00  0.00    +0.015 A 
ATOM     14  C   LIG A   1      -5.968  -1.378 126.096  0.00  0.00    +0.055 C 
ATOM     15  C   LIG A   1      -8.415  -0.009 123.341  0.00  0.00    +0.023 C 
ATOM     16  C   LIG A   1      -9.032  -1.342 122.926  0.00  0.00    +0.002 C 
ATOM     17  C   LIG A   1      -7.981  -2.442 122.861  0.00  0.00    +0.007 C 
ATOM     18  C   LIG A   1      -8.246  -3.323 125.201  0.00  0.00    +0.011 C 
ATOM     19  C   LIG A   1      -6.114  -3.674 123.974  0.00  0.00    +0.011 C 
ENDROOT
BRANCH  12  20
ATOM     20  C   LIG A   1      -3.989   4.249 126.408  0.00  0.00    +0.017 C 
ATOM     21  C   LIG A   1      -2.602   3.664 126.681  0.00  0.00    +0.012 C 
ATOM     22  C   LIG A   1      -4.534   4.990 127.633  0.00  0.00    +0.012 C 
ENDBRANCH  12  20
BRANCH  11  23
ATOM     23  O   LIG A   1      -5.435   4.420 123.862  0.00  0.00    -0.503 OA
ATOM     24  H   LIG A   1      -5.879   4.200 123.019  0.00  0.00    +0.292 HD
ENDBRANCH  11  23
BRANCH  10  25
ATOM     25  O   LIG A   1      -7.179   2.635 123.034  0.00  0.00    -0.503 OA
ATOM     26  H   LIG A   1      -6.665   2.213 122.324  0.00  0.00    +0.292 HD
ENDBRANCH  10  25
TORSDOF 3
ENDMDL
MODEL 4
REMARK VINA RESULT:      -7.7      1.776      2.495
REMARK  Name = NuBBE_2378
REMARK  7 active torsions:
REMARK  status: ('A' for Active; 'I' for Inactive)
REMARK    1  A    between atoms: C_1  and  C_24
REMARK    2  A    between atoms: C_1  and  C_25
REMARK    3  A    between atoms: C_11  and  O_19
REMARK    4  A    between atoms: C_12  and  O_18
REMARK    5  A    between atoms: C_13  and  C_14
REMARK    6  A    between atoms: C_14  and  C_15
REMARK    7  A    between atoms: C_14  and  C_16
REMARK                            x       y       z     vdW  Elec       q    Type
REMARK                         _______ _______ _______ _____ _____    ______ ____
ROOT
ATOM      1  C   LIG A   1      -6.424   2.533 131.705  0.00  0.00    -0.031 C 
ATOM      2  C   LIG A   1      -7.325   3.720 131.219  0.00  0.00    +0.020 C 
ATOM      3  C   LIG A   1      -8.764   3.818 131.863  0.00  0.00    +0.100 C 
ATOM      4  C   LIG A   1      -8.587   4.439 133.269  0.00  0.00    +0.319 C 
ATOM      5  O   LIG A   1      -8.998   3.949 134.312  0.00  0.00    -0.250 OA
ATOM      6  O   LIG A   1      -7.933   5.647 133.236  0.00  0.00    -0.456 OA
ATOM      7  C   LIG A   1      -7.597   6.123 131.912  0.00  0.00    +0.207 C 
ATOM      8  C   LIG A   1      -8.867   6.136 131.095  0.00  0.00    +0.001 A 
ATOM      9  C   LIG A   1      -9.538   4.892 131.067  0.00  0.00    +0.021 A 
ATOM     10  C   LIG A   1     -10.733   4.825 130.365  0.00  0.00    +0.163 A 
ATOM     11  C   LIG A   1     -11.203   5.942 129.653  0.00  0.00    +0.162 A 
ATOM     12  C   LIG A   1     -10.529   7.171 129.661  0.00  0.00    +0.001 A 
ATOM     13  C   LIG A   1      -9.347   7.256 130.411  0.00  0.00    +0.015 A 
ATOM     14  C   LIG A   1      -6.631   5.114 131.288  0.00  0.00    +0.055 C 
ATOM     15  C   LIG A   1      -9.438   2.436 131.922  0.00  0.00    +0.023 C 
ATOM     16  C   LIG A   1      -8.545   1.318 132.452  0.00  0.00    +0.002 C 
ATOM     17  C   LIG A   1      -7.246   1.224 131.662  0.00  0.00    +0.007 C 
ATOM     18  C   LIG A   1      -5.838   2.711 133.123  0.00  0.00    +0.011 C 
ATOM     19  C   LIG A   1      -5.228   2.371 130.738  0.00  0.00    +0.011 C 
ENDROOT
BRANCH  12  20
ATOM     20  C   LIG A   1     -11.017   8.402 128.916  0.00  0.00    +0.017 C 
ATOM     21  C   LIG A   1     -12.412   8.840 129.366  0.00  0.00    +0.012 C 
ATOM     22  C   LIG A   1     -10.950   8.229 127.396  0.00  0.00    +0.012 C 
ENDBRANCH  12  20
BRANCH  11  23
ATOM     23  O   LIG A   1     -12.370   5.801 128.948  0.00  0.00    -0.503 OA
ATOM     24  H   LIG A   1     -12.455   6.631 128.437  0.00  0.00    +0.292 HD
ENDBRANCH  11  23
BRANCH  10  25
ATOM     25  O   LIG A   1     -11.538   3.723 130.327  0.00  0.00    -0.503 OA
ATOM     26  H   LIG A   1     -12.226   3.854 131.002  0.00  0.00    +0.292 HD
ENDBRANCH  10  25
TORSDOF 3
ENDMDL
MODEL 5
REMARK VINA RESULT:      -7.6      2.526      4.364
REMARK  Name = NuBBE_2378
REMARK  7 active torsions:
REMARK  status: ('A' for Active; 'I' for Inactive)
REMARK    1  A    between atoms: C_1  and  C_24
REMARK    2  A    between atoms: C_1  and  C_25
REMARK    3  A    between atoms: C_11  and  O_19
REMARK    4  A    between atoms: C_12  and  O_18
REMARK    5  A    between atoms: C_13  and  C_14
REMARK    6  A    between atoms: C_14  and  C_15
REMARK    7  A    between atoms: C_14  and  C_16
REMARK                            x       y       z     vdW  Elec       q    Type
REMARK                         _______ _______ _______ _____ _____    ______ ____
ROOT
ATOM      1  C   LIG A   1      -5.778   5.517 135.580  0.00  0.00    -0.031 C 
ATOM      2  C   LIG A   1      -6.941   5.736 134.553  0.00  0.00    +0.020 C 
ATOM      3  C   LIG A   1      -6.623   5.377 133.047  0.00  0.00    +0.100 C 
ATOM      4  C   LIG A   1      -6.714   3.837 132.924  0.00  0.00    +0.319 C 
ATOM      5  O   LIG A   1      -5.835   3.114 132.475  0.00  0.00    -0.250 OA
ATOM      6  O   LIG A   1      -7.923   3.342 133.348  0.00  0.00    -0.456 OA
ATOM      7  C   LIG A   1      -8.881   4.343 133.763  0.00  0.00    +0.207 C 
ATOM      8  C   LIG A   1      -9.031   5.329 132.630  0.00  0.00    +0.001 A 
ATOM      9  C   LIG A   1      -7.808   5.897 132.203  0.00  0.00    +0.021 A 
ATOM     10  C   LIG A   1      -7.853   6.789 131.143  0.00  0.00    +0.163 A 
ATOM     11  C   LIG A   1      -9.084   7.161 130.576  0.00  0.00    +0.162 A 
ATOM     12  C   LIG A   1     -10.300   6.617 131.011  0.00  0.00    +0.001 A 
ATOM     13  C   LIG A   1     -10.254   5.676 132.050  0.00  0.00    +0.015 A 
ATOM     14  C   LIG A   1      -8.291   5.078 134.969  0.00  0.00    +0.055 C 
ATOM     15  C   LIG A   1      -5.242   5.910 132.632  0.00  0.00    +0.023 C 
ATOM     16  C   LIG A   1      -4.125   5.628 133.634  0.00  0.00    +0.002 C 
ATOM     17  C   LIG A   1      -4.483   6.147 135.021  0.00  0.00    +0.007 C 
ATOM     18  C   LIG A   1      -5.505   4.039 135.934  0.00  0.00    +0.011 C 
ATOM     19  C   LIG A   1      -6.123   6.242 136.903  0.00  0.00    +0.011 C 
ENDROOT
BRANCH  12  20
ATOM     20  C   LIG A   1     -11.648   6.985 130.412  0.00  0.00    +0.017 C 
ATOM     21  C   LIG A   1     -12.689   7.319 131.482  0.00  0.00    +0.012 C 
ATOM     22  C   LIG A   1     -12.166   5.918 129.443  0.00  0.00    +0.012 C 
ENDBRANCH  12  20
BRANCH  11  23
ATOM     23  O   LIG A   1      -9.064   8.077 129.556  0.00  0.00    -0.503 OA
ATOM     24  H   LIG A   1      -9.994   8.140 129.260  0.00  0.00    +0.292 HD
ENDBRANCH  11  23
BRANCH  10  25
ATOM     25  O   LIG A   1      -6.748   7.344 130.561  0.00  0.00    -0.503 OA
ATOM     26  H   LIG A   1      -6.012   6.725 130.712  0.00  0.00    +0.292 HD
ENDBRANCH  10  25
TORSDOF 3
ENDMDL
MODEL 6
REMARK VINA RESULT:      -7.4      7.317      8.778
REMARK  Name = NuBBE_2378
REMARK  7 active torsions:
REMARK  status: ('A' for Active; 'I' for Inactive)
REMARK    1  A    between atoms: C_1  and  C_24
REMARK    2  A    between atoms: C_1  and  C_25
REMARK    3  A    between atoms: C_11  and  O_19
REMARK    4  A    between atoms: C_12  and  O_18
REMARK    5  A    between atoms: C_13  and  C_14
REMARK    6  A    between atoms: C_14  and  C_15
REMARK    7  A    between atoms: C_14  and  C_16
REMARK                            x       y       z     vdW  Elec       q    Type
REMARK                         _______ _______ _______ _____ _____    ______ ____
ROOT
ATOM      1  C   LIG A   1      -4.475  -3.041 129.829  0.00  0.00    -0.031 C 
ATOM      2  C   LIG A   1      -5.387  -2.592 128.636  0.00  0.00    +0.020 C 
ATOM      3  C   LIG A   1      -6.921  -2.403 128.958  0.00  0.00    +0.100 C 
ATOM      4  C   LIG A   1      -7.066  -1.037 129.671  0.00  0.00    +0.319 C 
ATOM      5  O   LIG A   1      -7.609  -0.861 130.753  0.00  0.00    -0.250 OA
ATOM      6  O   LIG A   1      -6.542   0.001 128.938  0.00  0.00    -0.456 OA
ATOM      7  C   LIG A   1      -6.020  -0.370 127.641  0.00  0.00    +0.207 C 
ATOM      8  C   LIG A   1      -7.115  -1.099 126.900  0.00  0.00    +0.001 A 
ATOM      9  C   LIG A   1      -7.642  -2.205 127.606  0.00  0.00    +0.021 A 
ATOM     10  C   LIG A   1      -8.676  -2.911 127.009  0.00  0.00    +0.163 A 
ATOM     11  C   LIG A   1      -9.118  -2.572 125.719  0.00  0.00    +0.162 A 
ATOM     12  C   LIG A   1      -8.584  -1.489 125.007  0.00  0.00    +0.001 A 
ATOM     13  C   LIG A   1      -7.572  -0.742 125.628  0.00  0.00    +0.015 A 
ATOM     14  C   LIG A   1      -4.860  -1.342 127.869  0.00  0.00    +0.055 C 
ATOM     15  C   LIG A   1      -7.453  -3.562 129.818  0.00  0.00    +0.023 C 
ATOM     16  C   LIG A   1      -6.564  -3.932 131.002  0.00  0.00    +0.002 C 
ATOM     17  C   LIG A   1      -5.140  -4.234 130.552  0.00  0.00    +0.007 C 
ATOM     18  C   LIG A   1      -4.178  -1.931 130.861  0.00  0.00    +0.011 C 
ATOM     19  C   LIG A   1      -3.113  -3.523 129.278  0.00  0.00    +0.011 C 
ENDROOT
BRANCH  12  20
ATOM     20  C   LIG A   1      -9.048  -1.085 123.618  0.00  0.00    +0.017 C 
ATOM     21  C   LIG A   1      -8.350  -1.884 122.515  0.00  0.00    +0.012 C 
ATOM     22  C   LIG A   1      -8.926   0.423 123.377  0.00  0.00    +0.012 C 
ENDBRANCH  12  20
BRANCH  11  23
ATOM     23  O   LIG A   1     -10.117  -3.332 125.169  0.00  0.00    -0.503 OA
ATOM     24  H   LIG A   1     -10.946  -2.899 125.456  0.00  0.00    +0.292 HD
ENDBRANCH  11  23
BRANCH  10  25
ATOM     25  O   LIG A   1      -9.346  -3.940 127.608  0.00  0.00    -0.503 OA
ATOM     26  H   LIG A   1      -9.406  -3.722 128.554  0.00  0.00    +0.292 HD
ENDBRANCH  10  25
TORSDOF 3
ENDMDL
MODEL 7
REMARK VINA RESULT:      -7.2      5.551      7.094
REMARK  Name = NuBBE_2378
REMARK  7 active torsions:
REMARK  status: ('A' for Active; 'I' for Inactive)
REMARK    1  A    between atoms: C_1  and  C_24
REMARK    2  A    between atoms: C_1  and  C_25
REMARK    3  A    between atoms: C_11  and  O_19
REMARK    4  A    between atoms: C_12  and  O_18
REMARK    5  A    between atoms: C_13  and  C_14
REMARK    6  A    between atoms: C_14  and  C_15
REMARK    7  A    between atoms: C_14  and  C_16
REMARK                            x       y       z     vdW  Elec       q    Type
REMARK                         _______ _______ _______ _____ _____    ______ ____
ROOT
ATOM      1  C   LIG A   1      -7.702  -2.427 128.715  0.00  0.00    -0.031 C 
ATOM      2  C   LIG A   1      -7.638  -1.351 127.577  0.00  0.00    +0.020 C 
ATOM      3  C   LIG A   1      -7.105   0.077 127.991  0.00  0.00    +0.100 C 
ATOM      4  C   LIG A   1      -5.563  -0.024 128.074  0.00  0.00    +0.319 C 
ATOM      5  O   LIG A   1      -4.888   0.293 129.043  0.00  0.00    -0.250 OA
ATOM      6  O   LIG A   1      -5.000  -0.488 126.909  0.00  0.00    -0.456 OA
ATOM      7  C   LIG A   1      -5.935  -0.729 125.832  0.00  0.00    +0.207 C 
ATOM      8  C   LIG A   1      -6.726   0.540 125.622  0.00  0.00    +0.001 A 
ATOM      9  C   LIG A   1      -7.361   1.016 126.792  0.00  0.00    +0.021 A 
ATOM     10  C   LIG A   1      -8.082   2.197 126.693  0.00  0.00    +0.163 A 
ATOM     11  C   LIG A   1      -8.227   2.841 125.451  0.00  0.00    +0.162 A 
ATOM     12  C   LIG A   1      -7.617   2.360 124.286  0.00  0.00    +0.001 A 
ATOM     13  C   LIG A   1      -6.846   1.194 124.392  0.00  0.00    +0.015 A 
ATOM     14  C   LIG A   1      -6.897  -1.827 126.291  0.00  0.00    +0.055 C 
ATOM     15  C   LIG A   1      -7.726   0.534 129.322  0.00  0.00    +0.023 C 
ATOM     16  C   LIG A   1      -7.719  -0.525 130.422  0.00  0.00    +0.002 C 
ATOM     17  C   LIG A   1      -8.388  -1.811 129.955  0.00  0.00    +0.007 C 
ATOM     18  C   LIG A   1      -6.330  -3.000 129.132  0.00  0.00    +0.011 C 
ATOM     19  C   LIG A   1      -8.565  -3.620 128.241  0.00  0.00    +0.011 C 
ENDROOT
BRANCH  12  20
ATOM     20  C   LIG A   1      -7.740   3.038 122.931  0.00  0.00    +0.017 C 
ATOM     21  C   LIG A   1      -8.991   2.595 122.170  0.00  0.00    +0.012 C 
ATOM     22  C   LIG A   1      -6.479   2.872 122.078  0.00  0.00    +0.012 C 
ENDBRANCH  12  20
BRANCH  11  23
ATOM     23  O   LIG A   1      -8.984   3.984 125.413  0.00  0.00    -0.503 OA
ATOM     24  H   LIG A   1      -8.860   4.394 126.292  0.00  0.00    +0.292 HD
ENDBRANCH  11  23
BRANCH  10  25
ATOM     25  O   LIG A   1      -8.669   2.828 127.753  0.00  0.00    -0.503 OA
ATOM     26  H   LIG A   1      -9.631   2.772 127.614  0.00  0.00    +0.292 HD
ENDBRANCH  10  25
TORSDOF 3
ENDMDL
MODEL 8
REMARK VINA RESULT:      -7.0      3.758      5.833
REMARK  Name = NuBBE_2378
REMARK  7 active torsions:
REMARK  status: ('A' for Active; 'I' for Inactive)
REMARK    1  A    between atoms: C_1  and  C_24
REMARK    2  A    between atoms: C_1  and  C_25
REMARK    3  A    between atoms: C_11  and  O_19
REMARK    4  A    between atoms: C_12  and  O_18
REMARK    5  A    between atoms: C_13  and  C_14
REMARK    6  A    between atoms: C_14  and  C_15
REMARK    7  A    between atoms: C_14  and  C_16
REMARK                            x       y       z     vdW  Elec       q    Type
REMARK                         _______ _______ _______ _____ _____    ______ ____
ROOT
ATOM      1  C   LIG A   1      -7.959  -2.149 127.170  0.00  0.00    -0.031 C 
ATOM      2  C   LIG A   1      -8.226  -0.791 127.906  0.00  0.00    +0.020 C 
ATOM      3  C   LIG A   1      -7.604  -0.641 129.350  0.00  0.00    +0.100 C 
ATOM      4  C   LIG A   1      -6.101  -0.321 129.161  0.00  0.00    +0.319 C 
ATOM      5  O   LIG A   1      -5.179  -0.943 129.668  0.00  0.00    -0.250 OA
ATOM      6  O   LIG A   1      -5.891   0.784 128.371  0.00  0.00    -0.456 OA
ATOM      7  C   LIG A   1      -7.094   1.455 127.927  0.00  0.00    +0.207 C 
ATOM      8  C   LIG A   1      -7.917   1.774 129.152  0.00  0.00    +0.001 A 
ATOM      9  C   LIG A   1      -8.194   0.648 129.961  0.00  0.00    +0.021 A 
ATOM     10  C   LIG A   1      -8.918   0.860 131.125  0.00  0.00    +0.163 A 
ATOM     11  C   LIG A   1      -9.414   2.139 131.433  0.00  0.00    +0.162 A 
ATOM     12  C   LIG A   1      -9.158   3.253 130.622  0.00  0.00    +0.001 A 
ATOM     13  C   LIG A   1      -8.384   3.052 129.471  0.00  0.00    +0.015 A 
ATOM     14  C   LIG A   1      -7.881   0.471 127.059  0.00  0.00    +0.055 C 
ATOM     15  C   LIG A   1      -7.821  -1.917 130.180  0.00  0.00    +0.023 C 
ATOM     16  C   LIG A   1      -7.497  -3.215 129.446  0.00  0.00    +0.002 C 
ATOM     17  C   LIG A   1      -8.266  -3.316 128.135  0.00  0.00    +0.007 C 
ATOM     18  C   LIG A   1      -6.522  -2.311 126.626  0.00  0.00    +0.011 C 
ATOM     19  C   LIG A   1      -8.916  -2.271 125.961  0.00  0.00    +0.011 C 
ENDROOT
BRANCH  12  20
ATOM     20  C   LIG A   1      -9.665   4.652 130.933  0.00  0.00    +0.017 C 
ATOM     21  C   LIG A   1     -11.071   4.897 130.380  0.00  0.00    +0.012 C 
ATOM     22  C   LIG A   1      -8.688   5.741 130.479  0.00  0.00    +0.012 C 
ENDBRANCH  12  20
BRANCH  11  23
ATOM     23  O   LIG A   1     -10.155   2.274 132.578  0.00  0.00    -0.503 OA
ATOM     24  H   LIG A   1      -9.603   2.827 133.168  0.00  0.00    +0.292 HD
ENDBRANCH  11  23
BRANCH  10  25
ATOM     25  O   LIG A   1      -9.181  -0.110 132.050  0.00  0.00    -0.503 OA
ATOM     26  H   LIG A   1      -9.949  -0.611 131.721  0.00  0.00    +0.292 HD
ENDBRANCH  10  25
TORSDOF 3
ENDMDL
MODEL 9
REMARK VINA RESULT:      -6.9      5.853      8.183
REMARK  Name = NuBBE_2378
REMARK  7 active torsions:
REMARK  status: ('A' for Active; 'I' for Inactive)
REMARK    1  A    between atoms: C_1  and  C_24
REMARK    2  A    between atoms: C_1  and  C_25
REMARK    3  A    between atoms: C_11  and  O_19
REMARK    4  A    between atoms: C_12  and  O_18
REMARK    5  A    between atoms: C_13  and  C_14
REMARK    6  A    between atoms: C_14  and  C_15
REMARK    7  A    between atoms: C_14  and  C_16
REMARK                            x       y       z     vdW  Elec       q    Type
REMARK                         _______ _______ _______ _____ _____    ______ ____
ROOT
ATOM      1  C   LIG A   1      -8.580  -2.958 124.885  0.00  0.00    -0.031 C 
ATOM      2  C   LIG A   1      -8.025  -1.512 125.125  0.00  0.00    +0.020 C 
ATOM      3  C   LIG A   1      -7.326  -1.252 126.517  0.00  0.00    +0.100 C 
ATOM      4  C   LIG A   1      -5.903  -1.855 126.425  0.00  0.00    +0.319 C 
ATOM      5  O   LIG A   1      -5.429  -2.664 127.211  0.00  0.00    -0.250 OA
ATOM      6  O   LIG A   1      -5.185  -1.358 125.365  0.00  0.00    -0.456 OA
ATOM      7  C   LIG A   1      -5.863  -0.342 124.590  0.00  0.00    +0.207 C 
ATOM      8  C   LIG A   1      -6.302   0.743 125.544  0.00  0.00    +0.001 A 
ATOM      9  C   LIG A   1      -7.088   0.271 126.620  0.00  0.00    +0.021 A 
ATOM     10  C   LIG A   1      -7.505   1.200 127.562  0.00  0.00    +0.163 A 
ATOM     11  C   LIG A   1      -7.212   2.564 127.395  0.00  0.00    +0.162 A 
ATOM     12  C   LIG A   1      -6.452   3.038 126.318  0.00  0.00    +0.001 A 
ATOM     13  C   LIG A   1      -5.986   2.096 125.390  0.00  0.00    +0.015 A 
ATOM     14  C   LIG A   1      -7.112  -0.983 123.979  0.00  0.00    +0.055 C 
ATOM     15  C   LIG A   1      -8.140  -1.865 127.668  0.00  0.00    +0.023 C 
ATOM     16  C   LIG A   1      -8.615  -3.294 127.418  0.00  0.00    +0.002 C 
ATOM     17  C   LIG A   1      -9.402  -3.396 126.118  0.00  0.00    +0.007 C 
ATOM     18  C   LIG A   1      -7.496  -4.021 124.601  0.00  0.00    +0.011 C 
ATOM     19  C   LIG A   1      -9.530  -2.944 123.664  0.00  0.00    +0.011 C 
ENDROOT
BRANCH  12  20
ATOM     20  C   LIG A   1      -6.104   4.504 126.114  0.00  0.00    +0.017 C 
ATOM     21  C   LIG A   1      -6.066   4.892 124.634  0.00  0.00    +0.012 C 
ATOM     22  C   LIG A   1      -4.810   4.901 126.829  0.00  0.00    +0.012 C 
ENDBRANCH  12  20
BRANCH  11  23
ATOM     23  O   LIG A   1      -7.686   3.436 128.341  0.00  0.00    -0.503 OA
ATOM     24  H   LIG A   1      -7.467   4.324 127.993  0.00  0.00    +0.292 HD
ENDBRANCH  11  23
BRANCH  10  25
ATOM     25  O   LIG A   1      -8.187   0.881 128.703  0.00  0.00    -0.503 OA
ATOM     26  H   LIG A   1      -9.088   1.233 128.597  0.00  0.00    +0.292 HD
ENDBRANCH  10  25
TORSDOF 3
ENDMDL
