MODEL 1
REMARK VINA RESULT:      -7.8      0.000      0.000
REMARK  Name = NuBBE_1650
REMARK  15 active torsions:
REMARK  status: ('A' for Active; 'I' for Inactive)
REMARK    1  A    between atoms: C_1  and  C_2
REMARK    2  A    between atoms: C_1  and  C_11
REMARK    3  A    between atoms: C_3  and  C_4
REMARK    4  A    between atoms: C_3  and  C_10
REMARK    5  A    between atoms: C_4  and  C_5
REMARK    6  A    between atoms: C_5  and  C_6
REMARK    7  A    between atoms: C_7  and  C_8
REMARK    8  A    between atoms: C_7  and  C_9
REMARK    9  A    between atoms: C_12  and  O_13
REMARK   10  A    between atoms: C_14  and  C_15
REMARK   11  A    between atoms: C_15  and  C_16
REMARK   12  A    between atoms: C_17  and  C_18
REMARK   13  A    between atoms: C_17  and  C_19
REMARK   14  A    between atoms: C_21  and  C_23
REMARK   15  A    between atoms: C_23  and  O_25
REMARK                            x       y       z     vdW  Elec       q    Type
REMARK                         _______ _______ _______ _____ _____    ______ ____
ROOT
ATOM      1  C   LIG A   1      -7.481   1.369 125.543  0.00  0.00    -0.001 A 
ATOM      2  C   LIG A   1      -6.720   2.187 124.706  0.00  0.00    +0.124 A 
ATOM      3  C   LIG A   1      -7.157   2.631 123.443  0.00  0.00    -0.001 A 
ATOM      4  C   LIG A   1      -8.408   2.238 123.013  0.00  0.00    +0.022 A 
ATOM      5  C   LIG A   1      -9.201   1.391 123.804  0.00  0.00    +0.060 A 
ATOM      6  C   LIG A   1      -8.734   0.972 125.064  0.00  0.00    +0.022 A 
ENDROOT
BRANCH   2   7
ATOM      7  O   LIG A   1      -5.487   2.530 125.140  0.00  0.00    -0.506 OA
ATOM      8  H   LIG A   1      -5.302   2.046 125.962  0.00  0.00    +0.292 HD
ENDBRANCH   2   7
BRANCH   5   9
ATOM      9  C   LIG A   1     -10.516   1.003 123.270  0.00  0.00    +0.337 C 
ATOM     10  O   LIG A   1     -10.621   0.284 122.218  0.00  0.00    -0.245 OA
BRANCH   9  11
ATOM     11  O   LIG A   1     -11.592   1.430 123.907  0.00  0.00    -0.477 OA
ATOM     12  H   LIG A   1     -12.355   0.815 123.909  0.00  0.00    +0.295 HD
ENDBRANCH   9  11
ENDBRANCH   5   9
BRANCH   1  13
ATOM     13  C   LIG A   1      -6.986   0.855 126.889  0.00  0.00    +0.066 C 
BRANCH  13  14
ATOM     14  C   LIG A   1      -7.676  -0.390 127.411  0.00  0.00    -0.023 C 
ATOM     15  C   LIG A   1      -7.163  -1.639 127.408  0.00  0.00    -0.076 C 
ATOM     16  C   LIG A   1      -5.804  -1.917 126.862  0.00  0.00    +0.038 C 
BRANCH  15  17
ATOM     17  C   LIG A   1      -7.851  -2.790 128.137  0.00  0.00    +0.034 C 
BRANCH  17  18
ATOM     18  C   LIG A   1      -8.869  -3.677 127.378  0.00  0.00    +0.031 C 
BRANCH  18  19
ATOM     19  C   LIG A   1      -9.320  -3.179 126.037  0.00  0.00    -0.028 C 
ATOM     20  C   LIG A   1      -8.726  -3.352 124.841  0.00  0.00    -0.080 C 
ATOM     21  C   LIG A   1      -7.497  -4.243 124.632  0.00  0.00    +0.038 C 
ATOM     22  C   LIG A   1      -9.324  -2.571 123.673  0.00  0.00    +0.038 C 
ENDBRANCH  18  19
ENDBRANCH  17  18
ENDBRANCH  15  17
ENDBRANCH  13  14
ENDBRANCH   1  13
BRANCH   3  23
ATOM     23  C   LIG A   1      -6.358   3.550 122.549  0.00  0.00    +0.066 C 
BRANCH  23  24
ATOM     24  C   LIG A   1      -6.995   3.728 121.216  0.00  0.00    -0.023 C 
ATOM     25  C   LIG A   1      -6.622   4.309 120.059  0.00  0.00    -0.079 C 
ATOM     26  C   LIG A   1      -5.364   5.065 119.925  0.00  0.00    +0.038 C 
ATOM     27  C   LIG A   1      -7.371   4.384 118.751  0.00  0.00    +0.038 C 
ENDBRANCH  23  24
ENDBRANCH   3  23
TORSDOF 10
ENDMDL
MODEL 2
REMARK VINA RESULT:      -7.5      2.828      4.946
REMARK  Name = NuBBE_1650
REMARK  15 active torsions:
REMARK  status: ('A' for Active; 'I' for Inactive)
REMARK    1  A    between atoms: C_1  and  C_2
REMARK    2  A    between atoms: C_1  and  C_11
REMARK    3  A    between atoms: C_3  and  C_4
REMARK    4  A    between atoms: C_3  and  C_10
REMARK    5  A    between atoms: C_4  and  C_5
REMARK    6  A    between atoms: C_5  and  C_6
REMARK    7  A    between atoms: C_7  and  C_8
REMARK    8  A    between atoms: C_7  and  C_9
REMARK    9  A    between atoms: C_12  and  O_13
REMARK   10  A    between atoms: C_14  and  C_15
REMARK   11  A    between atoms: C_15  and  C_16
REMARK   12  A    between atoms: C_17  and  C_18
REMARK   13  A    between atoms: C_17  and  C_19
REMARK   14  A    between atoms: C_21  and  C_23
REMARK   15  A    between atoms: C_23  and  O_25
REMARK                            x       y       z     vdW  Elec       q    Type
REMARK                         _______ _______ _______ _____ _____    ______ ____
ROOT
ATOM      1  C   LIG A   1      -7.991   2.667 123.652  0.00  0.00    -0.001 A 
ATOM      2  C   LIG A   1      -7.224   3.053 124.751  0.00  0.00    +0.124 A 
ATOM      3  C   LIG A   1      -6.047   3.821 124.650  0.00  0.00    -0.001 A 
ATOM      4  C   LIG A   1      -5.635   4.215 123.394  0.00  0.00    +0.022 A 
ATOM      5  C   LIG A   1      -6.356   3.829 122.253  0.00  0.00    +0.060 A 
ATOM      6  C   LIG A   1      -7.531   3.066 122.393  0.00  0.00    +0.022 A 
ENDROOT
BRANCH   2   7
ATOM      7  O   LIG A   1      -7.635   2.626 125.966  0.00  0.00    -0.506 OA
ATOM      8  H   LIG A   1      -8.029   1.744 125.867  0.00  0.00    +0.292 HD
ENDBRANCH   2   7
BRANCH   5   9
ATOM      9  C   LIG A   1      -5.844   4.275 120.947  0.00  0.00    +0.337 C 
ATOM     10  O   LIG A   1      -6.273   3.766 119.855  0.00  0.00    -0.245 OA
BRANCH   9  11
ATOM     11  O   LIG A   1      -4.915   5.215 120.936  0.00  0.00    -0.477 OA
ATOM     12  H   LIG A   1      -4.279   5.173 120.192  0.00  0.00    +0.295 HD
ENDBRANCH   9  11
ENDBRANCH   5   9
BRANCH   1  13
ATOM     13  C   LIG A   1      -9.239   1.800 123.763  0.00  0.00    +0.066 C 
BRANCH  13  14
ATOM     14  C   LIG A   1      -9.061   0.343 123.385  0.00  0.00    -0.023 C 
ATOM     15  C   LIG A   1      -8.962  -0.691 124.247  0.00  0.00    -0.076 C 
ATOM     16  C   LIG A   1      -9.021  -0.479 125.723  0.00  0.00    +0.038 C 
BRANCH  15  17
ATOM     17  C   LIG A   1      -8.989  -2.140 123.769  0.00  0.00    +0.034 C 
BRANCH  17  18
ATOM     18  C   LIG A   1      -8.312  -3.241 124.623  0.00  0.00    +0.031 C 
BRANCH  18  19
ATOM     19  C   LIG A   1      -6.966  -3.715 124.159  0.00  0.00    -0.028 C 
ATOM     20  C   LIG A   1      -5.767  -3.134 124.351  0.00  0.00    -0.080 C 
ATOM     21  C   LIG A   1      -5.561  -1.898 125.232  0.00  0.00    +0.038 C 
ATOM     22  C   LIG A   1      -4.590  -3.755 123.602  0.00  0.00    +0.038 C 
ENDBRANCH  18  19
ENDBRANCH  17  18
ENDBRANCH  15  17
ENDBRANCH  13  14
ENDBRANCH   1  13
BRANCH   3  23
ATOM     23  C   LIG A   1      -5.233   4.279 125.838  0.00  0.00    +0.066 C 
BRANCH  23  24
ATOM     24  C   LIG A   1      -3.899   3.621 125.890  0.00  0.00    -0.023 C 
ATOM     25  C   LIG A   1      -2.815   3.741 126.681  0.00  0.00    -0.079 C 
ATOM     26  C   LIG A   1      -2.716   4.769 127.732  0.00  0.00    +0.038 C 
ATOM     27  C   LIG A   1      -1.520   2.968 126.637  0.00  0.00    +0.038 C 
ENDBRANCH  23  24
ENDBRANCH   3  23
TORSDOF 10
ENDMDL
MODEL 3
REMARK VINA RESULT:      -7.5      3.196      5.054
REMARK  Name = NuBBE_1650
REMARK  15 active torsions:
REMARK  status: ('A' for Active; 'I' for Inactive)
REMARK    1  A    between atoms: C_1  and  C_2
REMARK    2  A    between atoms: C_1  and  C_11
REMARK    3  A    between atoms: C_3  and  C_4
REMARK    4  A    between atoms: C_3  and  C_10
REMARK    5  A    between atoms: C_4  and  C_5
REMARK    6  A    between atoms: C_5  and  C_6
REMARK    7  A    between atoms: C_7  and  C_8
REMARK    8  A    between atoms: C_7  and  C_9
REMARK    9  A    between atoms: C_12  and  O_13
REMARK   10  A    between atoms: C_14  and  C_15
REMARK   11  A    between atoms: C_15  and  C_16
REMARK   12  A    between atoms: C_17  and  C_18
REMARK   13  A    between atoms: C_17  and  C_19
REMARK   14  A    between atoms: C_21  and  C_23
REMARK   15  A    between atoms: C_23  and  O_25
REMARK                            x       y       z     vdW  Elec       q    Type
REMARK                         _______ _______ _______ _____ _____    ______ ____
ROOT
ATOM      1  C   LIG A   1      -6.463   1.329 126.786  0.00  0.00    -0.001 A 
ATOM      2  C   LIG A   1      -5.138   1.538 127.172  0.00  0.00    +0.124 A 
ATOM      3  C   LIG A   1      -4.295   2.497 126.577  0.00  0.00    -0.001 A 
ATOM      4  C   LIG A   1      -4.810   3.274 125.560  0.00  0.00    +0.022 A 
ATOM      5  C   LIG A   1      -6.128   3.083 125.115  0.00  0.00    +0.060 A 
ATOM      6  C   LIG A   1      -6.944   2.119 125.737  0.00  0.00    +0.022 A 
ENDROOT
BRANCH   2   7
ATOM      7  O   LIG A   1      -4.651   0.741 128.150  0.00  0.00    -0.506 OA
ATOM      8  H   LIG A   1      -4.875  -0.180 127.937  0.00  0.00    +0.292 HD
ENDBRANCH   2   7
BRANCH   5   9
ATOM      9  C   LIG A   1      -6.600   3.939 124.015  0.00  0.00    +0.337 C 
ATOM     10  O   LIG A   1      -5.785   4.621 123.305  0.00  0.00    -0.245 OA
BRANCH   9  11
ATOM     11  O   LIG A   1      -7.901   3.991 123.787  0.00  0.00    -0.477 OA
ATOM     12  H   LIG A   1      -8.306   3.164 123.453  0.00  0.00    +0.295 HD
ENDBRANCH   9  11
ENDBRANCH   5   9
BRANCH   1  13
ATOM     13  C   LIG A   1      -7.358   0.261 127.403  0.00  0.00    +0.066 C 
BRANCH  13  14
ATOM     14  C   LIG A   1      -8.074  -0.643 126.420  0.00  0.00    -0.023 C 
ATOM     15  C   LIG A   1      -8.365  -1.947 126.612  0.00  0.00    -0.076 C 
ATOM     16  C   LIG A   1      -7.987  -2.649 127.873  0.00  0.00    +0.038 C 
BRANCH  15  17
ATOM     17  C   LIG A   1      -9.265  -2.719 125.650  0.00  0.00    +0.034 C 
BRANCH  17  18
ATOM     18  C   LIG A   1      -8.680  -3.259 124.321  0.00  0.00    +0.031 C 
BRANCH  18  19
ATOM     19  C   LIG A   1      -7.223  -3.617 124.330  0.00  0.00    -0.028 C 
ATOM     20  C   LIG A   1      -6.190  -2.917 123.824  0.00  0.00    -0.080 C 
ATOM     21  C   LIG A   1      -6.333  -1.506 123.244  0.00  0.00    +0.038 C 
ATOM     22  C   LIG A   1      -4.836  -3.622 123.819  0.00  0.00    +0.038 C 
ENDBRANCH  18  19
ENDBRANCH  17  18
ENDBRANCH  15  17
ENDBRANCH  13  14
ENDBRANCH   1  13
BRANCH   3  23
ATOM     23  C   LIG A   1      -2.873   2.759 127.016  0.00  0.00    +0.066 C 
BRANCH  23  24
ATOM     24  C   LIG A   1      -2.607   4.209 127.217  0.00  0.00    -0.023 C 
ATOM     25  C   LIG A   1      -2.648   5.040 128.277  0.00  0.00    -0.079 C 
ATOM     26  C   LIG A   1      -3.128   4.608 129.601  0.00  0.00    +0.038 C 
ATOM     27  C   LIG A   1      -2.311   6.510 128.342  0.00  0.00    +0.038 C 
ENDBRANCH  23  24
ENDBRANCH   3  23
TORSDOF 10
ENDMDL
MODEL 4
REMARK VINA RESULT:      -7.2      2.292      7.496
REMARK  Name = NuBBE_1650
REMARK  15 active torsions:
REMARK  status: ('A' for Active; 'I' for Inactive)
REMARK    1  A    between atoms: C_1  and  C_2
REMARK    2  A    between atoms: C_1  and  C_11
REMARK    3  A    between atoms: C_3  and  C_4
REMARK    4  A    between atoms: C_3  and  C_10
REMARK    5  A    between atoms: C_4  and  C_5
REMARK    6  A    between atoms: C_5  and  C_6
REMARK    7  A    between atoms: C_7  and  C_8
REMARK    8  A    between atoms: C_7  and  C_9
REMARK    9  A    between atoms: C_12  and  O_13
REMARK   10  A    between atoms: C_14  and  C_15
REMARK   11  A    between atoms: C_15  and  C_16
REMARK   12  A    between atoms: C_17  and  C_18
REMARK   13  A    between atoms: C_17  and  C_19
REMARK   14  A    between atoms: C_21  and  C_23
REMARK   15  A    between atoms: C_23  and  O_25
REMARK                            x       y       z     vdW  Elec       q    Type
REMARK                         _______ _______ _______ _____ _____    ______ ____
ROOT
ATOM      1  C   LIG A   1      -8.303   0.382 125.757  0.00  0.00    -0.001 A 
ATOM      2  C   LIG A   1      -8.365  -0.778 124.984  0.00  0.00    +0.124 A 
ATOM      3  C   LIG A   1      -8.120  -2.069 125.493  0.00  0.00    -0.001 A 
ATOM      4  C   LIG A   1      -7.807  -2.190 126.832  0.00  0.00    +0.022 A 
ATOM      5  C   LIG A   1      -7.704  -1.051 127.647  0.00  0.00    +0.060 A 
ATOM      6  C   LIG A   1      -7.961   0.222 127.104  0.00  0.00    +0.022 A 
ENDROOT
BRANCH   2   7
ATOM      7  O   LIG A   1      -8.643  -0.625 123.670  0.00  0.00    -0.506 OA
ATOM      8  H   LIG A   1      -9.376   0.006 123.581  0.00  0.00    +0.292 HD
ENDBRANCH   2   7
BRANCH   5   9
ATOM      9  C   LIG A   1      -7.350  -1.261 129.059  0.00  0.00    +0.337 C 
ATOM     10  O   LIG A   1      -8.167  -0.973 130.000  0.00  0.00    -0.245 OA
BRANCH   9  11
ATOM     11  O   LIG A   1      -6.152  -1.750 129.331  0.00  0.00    -0.477 OA
ATOM     12  H   LIG A   1      -5.864  -1.670 130.263  0.00  0.00    +0.295 HD
ENDBRANCH   9  11
ENDBRANCH   5   9
BRANCH   1  13
ATOM     13  C   LIG A   1      -8.525   1.779 125.192  0.00  0.00    +0.066 C 
BRANCH  13  14
ATOM     14  C   LIG A   1      -7.348   2.384 124.455  0.00  0.00    -0.023 C 
ATOM     15  C   LIG A   1      -7.367   2.870 123.196  0.00  0.00    -0.076 C 
ATOM     16  C   LIG A   1      -8.614   2.852 122.377  0.00  0.00    +0.038 C 
BRANCH  15  17
ATOM     17  C   LIG A   1      -6.185   3.641 122.614  0.00  0.00    +0.034 C 
BRANCH  17  18
ATOM     18  C   LIG A   1      -5.693   3.320 121.181  0.00  0.00    +0.031 C 
BRANCH  18  19
ATOM     19  C   LIG A   1      -5.531   4.488 120.253  0.00  0.00    -0.028 C 
ATOM     20  C   LIG A   1      -6.374   4.911 119.292  0.00  0.00    -0.080 C 
ATOM     21  C   LIG A   1      -7.768   4.313 119.072  0.00  0.00    +0.038 C 
ATOM     22  C   LIG A   1      -5.856   6.022 118.382  0.00  0.00    +0.038 C 
ENDBRANCH  18  19
ENDBRANCH  17  18
ENDBRANCH  15  17
ENDBRANCH  13  14
ENDBRANCH   1  13
BRANCH   3  23
ATOM     23  C   LIG A   1      -8.225  -3.334 124.674  0.00  0.00    +0.066 C 
BRANCH  23  24
ATOM     24  C   LIG A   1      -6.902  -3.987 124.480  0.00  0.00    -0.023 C 
ATOM     25  C   LIG A   1      -5.760  -3.642 123.854  0.00  0.00    -0.079 C 
ATOM     26  C   LIG A   1      -5.639  -2.411 123.052  0.00  0.00    +0.038 C 
ATOM     27  C   LIG A   1      -4.460  -4.404 123.767  0.00  0.00    +0.038 C 
ENDBRANCH  23  24
ENDBRANCH   3  23
TORSDOF 10
ENDMDL
MODEL 5
REMARK VINA RESULT:      -7.2      8.268     10.606
REMARK  Name = NuBBE_1650
REMARK  15 active torsions:
REMARK  status: ('A' for Active; 'I' for Inactive)
REMARK    1  A    between atoms: C_1  and  C_2
REMARK    2  A    between atoms: C_1  and  C_11
REMARK    3  A    between atoms: C_3  and  C_4
REMARK    4  A    between atoms: C_3  and  C_10
REMARK    5  A    between atoms: C_4  and  C_5
REMARK    6  A    between atoms: C_5  and  C_6
REMARK    7  A    between atoms: C_7  and  C_8
REMARK    8  A    between atoms: C_7  and  C_9
REMARK    9  A    between atoms: C_12  and  O_13
REMARK   10  A    between atoms: C_14  and  C_15
REMARK   11  A    between atoms: C_15  and  C_16
REMARK   12  A    between atoms: C_17  and  C_18
REMARK   13  A    between atoms: C_17  and  C_19
REMARK   14  A    between atoms: C_21  and  C_23
REMARK   15  A    between atoms: C_23  and  O_25
REMARK                            x       y       z     vdW  Elec       q    Type
REMARK                         _______ _______ _______ _____ _____    ______ ____
ROOT
ATOM      1  C   LIG A   1      -7.975   6.819 131.088  0.00  0.00    -0.001 A 
ATOM      2  C   LIG A   1      -9.250   6.966 130.540  0.00  0.00    +0.124 A 
ATOM      3  C   LIG A   1     -10.396   6.323 131.047  0.00  0.00    -0.001 A 
ATOM      4  C   LIG A   1     -10.248   5.506 132.149  0.00  0.00    +0.022 A 
ATOM      5  C   LIG A   1      -8.982   5.300 132.720  0.00  0.00    +0.060 A 
ATOM      6  C   LIG A   1      -7.860   5.965 132.190  0.00  0.00    +0.022 A 
ENDROOT
BRANCH   2   7
ATOM      7  O   LIG A   1      -9.359   7.748 129.443  0.00  0.00    -0.506 OA
ATOM      8  H   LIG A   1      -8.886   7.320 128.710  0.00  0.00    +0.292 HD
ENDBRANCH   2   7
BRANCH   5   9
ATOM      9  C   LIG A   1      -8.902   4.402 133.883  0.00  0.00    +0.337 C 
ATOM     10  O   LIG A   1      -9.074   3.141 133.762  0.00  0.00    -0.245 OA
BRANCH   9  11
ATOM     11  O   LIG A   1      -8.657   4.941 135.065  0.00  0.00    -0.477 OA
ATOM     12  H   LIG A   1      -7.741   5.259 135.203  0.00  0.00    +0.295 HD
ENDBRANCH   9  11
ENDBRANCH   5   9
BRANCH   1  13
ATOM     13  C   LIG A   1      -6.731   7.482 130.509  0.00  0.00    +0.066 C 
BRANCH  13  14
ATOM     14  C   LIG A   1      -5.409   7.008 131.078  0.00  0.00    -0.023 C 
ATOM     15  C   LIG A   1      -4.202   7.564 130.843  0.00  0.00    -0.076 C 
ATOM     16  C   LIG A   1      -4.055   8.753 129.955  0.00  0.00    +0.038 C 
BRANCH  15  17
ATOM     17  C   LIG A   1      -2.958   7.140 131.621  0.00  0.00    +0.034 C 
BRANCH  17  18
ATOM     18  C   LIG A   1      -1.955   6.150 130.978  0.00  0.00    +0.031 C 
BRANCH  18  19
ATOM     19  C   LIG A   1      -2.187   5.804 129.537  0.00  0.00    -0.028 C 
ATOM     20  C   LIG A   1      -2.873   4.763 129.030  0.00  0.00    -0.080 C 
ATOM     21  C   LIG A   1      -3.680   3.786 129.892  0.00  0.00    +0.038 C 
ATOM     22  C   LIG A   1      -2.784   4.569 127.518  0.00  0.00    +0.038 C 
ENDBRANCH  18  19
ENDBRANCH  17  18
ENDBRANCH  15  17
ENDBRANCH  13  14
ENDBRANCH   1  13
BRANCH   3  23
ATOM     23  C   LIG A   1     -11.787   6.509 130.487  0.00  0.00    +0.066 C 
BRANCH  23  24
ATOM     24  C   LIG A   1     -12.292   7.894 130.690  0.00  0.00    -0.023 C 
ATOM     25  C   LIG A   1     -12.712   8.877 129.870  0.00  0.00    -0.079 C 
ATOM     26  C   LIG A   1     -12.644   8.765 128.403  0.00  0.00    +0.038 C 
ATOM     27  C   LIG A   1     -13.241  10.245 130.226  0.00  0.00    +0.038 C 
ENDBRANCH  23  24
ENDBRANCH   3  23
TORSDOF 10
ENDMDL
MODEL 6
REMARK VINA RESULT:      -6.9      7.502      9.603
REMARK  Name = NuBBE_1650
REMARK  15 active torsions:
REMARK  status: ('A' for Active; 'I' for Inactive)
REMARK    1  A    between atoms: C_1  and  C_2
REMARK    2  A    between atoms: C_1  and  C_11
REMARK    3  A    between atoms: C_3  and  C_4
REMARK    4  A    between atoms: C_3  and  C_10
REMARK    5  A    between atoms: C_4  and  C_5
REMARK    6  A    between atoms: C_5  and  C_6
REMARK    7  A    between atoms: C_7  and  C_8
REMARK    8  A    between atoms: C_7  and  C_9
REMARK    9  A    between atoms: C_12  and  O_13
REMARK   10  A    between atoms: C_14  and  C_15
REMARK   11  A    between atoms: C_15  and  C_16
REMARK   12  A    between atoms: C_17  and  C_18
REMARK   13  A    between atoms: C_17  and  C_19
REMARK   14  A    between atoms: C_21  and  C_23
REMARK   15  A    between atoms: C_23  and  O_25
REMARK                            x       y       z     vdW  Elec       q    Type
REMARK                         _______ _______ _______ _____ _____    ______ ____
ROOT
ATOM      1  C   LIG A   1      -9.348   4.271 132.540  0.00  0.00    -0.001 A 
ATOM      2  C   LIG A   1      -9.841   5.499 132.100  0.00  0.00    +0.124 A 
ATOM      3  C   LIG A   1      -9.978   5.843 130.740  0.00  0.00    -0.001 A 
ATOM      4  C   LIG A   1      -9.607   4.909 129.794  0.00  0.00    +0.022 A 
ATOM      5  C   LIG A   1      -9.078   3.668 130.185  0.00  0.00    +0.060 A 
ATOM      6  C   LIG A   1      -8.962   3.358 131.553  0.00  0.00    +0.022 A 
ENDROOT
BRANCH   2   7
ATOM      7  O   LIG A   1     -10.166   6.406 133.049  0.00  0.00    -0.506 OA
ATOM      8  H   LIG A   1     -10.924   6.925 132.733  0.00  0.00    +0.292 HD
ENDBRANCH   2   7
BRANCH   5   9
ATOM      9  C   LIG A   1      -8.691   2.732 129.118  0.00  0.00    +0.337 C 
ATOM     10  O   LIG A   1      -8.552   1.482 129.348  0.00  0.00    -0.245 OA
BRANCH   9  11
ATOM     11  O   LIG A   1      -8.481   3.225 127.910  0.00  0.00    -0.477 OA
ATOM     12  H   LIG A   1      -8.828   2.689 127.168  0.00  0.00    +0.295 HD
ENDBRANCH   9  11
ENDBRANCH   5   9
BRANCH   1  13
ATOM     13  C   LIG A   1      -9.161   3.921 134.012  0.00  0.00    +0.066 C 
BRANCH  13  14
ATOM     14  C   LIG A   1      -7.863   4.391 134.638  0.00  0.00    -0.023 C 
ATOM     15  C   LIG A   1      -6.707   3.695 134.682  0.00  0.00    -0.076 C 
ATOM     16  C   LIG A   1      -6.601   2.331 134.087  0.00  0.00    +0.038 C 
BRANCH  15  17
ATOM     17  C   LIG A   1      -5.404   4.333 135.154  0.00  0.00    +0.034 C 
BRANCH  17  18
ATOM     18  C   LIG A   1      -4.604   5.244 134.189  0.00  0.00    +0.031 C 
BRANCH  18  19
ATOM     19  C   LIG A   1      -5.409   6.074 133.232  0.00  0.00    -0.028 C 
ATOM     20  C   LIG A   1      -5.728   5.798 131.954  0.00  0.00    -0.080 C 
ATOM     21  C   LIG A   1      -5.412   4.459 131.277  0.00  0.00    +0.038 C 
ATOM     22  C   LIG A   1      -6.406   6.919 131.171  0.00  0.00    +0.038 C 
ENDBRANCH  18  19
ENDBRANCH  17  18
ENDBRANCH  15  17
ENDBRANCH  13  14
ENDBRANCH   1  13
BRANCH   3  23
ATOM     23  C   LIG A   1     -10.549   7.154 130.254  0.00  0.00    +0.066 C 
BRANCH  23  24
ATOM     24  C   LIG A   1     -11.704   6.957 129.338  0.00  0.00    -0.023 C 
ATOM     25  C   LIG A   1     -12.662   7.761 128.837  0.00  0.00    -0.079 C 
ATOM     26  C   LIG A   1     -12.807   9.168 129.249  0.00  0.00    +0.038 C 
ATOM     27  C   LIG A   1     -13.772   7.424 127.871  0.00  0.00    +0.038 C 
ENDBRANCH  23  24
ENDBRANCH   3  23
TORSDOF 10
ENDMDL
MODEL 7
REMARK VINA RESULT:      -6.9      3.204      5.120
REMARK  Name = NuBBE_1650
REMARK  15 active torsions:
REMARK  status: ('A' for Active; 'I' for Inactive)
REMARK    1  A    between atoms: C_1  and  C_2
REMARK    2  A    between atoms: C_1  and  C_11
REMARK    3  A    between atoms: C_3  and  C_4
REMARK    4  A    between atoms: C_3  and  C_10
REMARK    5  A    between atoms: C_4  and  C_5
REMARK    6  A    between atoms: C_5  and  C_6
REMARK    7  A    between atoms: C_7  and  C_8
REMARK    8  A    between atoms: C_7  and  C_9
REMARK    9  A    between atoms: C_12  and  O_13
REMARK   10  A    between atoms: C_14  and  C_15
REMARK   11  A    between atoms: C_15  and  C_16
REMARK   12  A    between atoms: C_17  and  C_18
REMARK   13  A    between atoms: C_17  and  C_19
REMARK   14  A    between atoms: C_21  and  C_23
REMARK   15  A    between atoms: C_23  and  O_25
REMARK                            x       y       z     vdW  Elec       q    Type
REMARK                         _______ _______ _______ _____ _____    ______ ____
ROOT
ATOM      1  C   LIG A   1      -5.884   1.127 126.116  0.00  0.00    -0.001 A 
ATOM      2  C   LIG A   1      -5.347   1.632 127.301  0.00  0.00    +0.124 A 
ATOM      3  C   LIG A   1      -5.674   2.896 127.829  0.00  0.00    -0.001 A 
ATOM      4  C   LIG A   1      -6.579   3.675 127.137  0.00  0.00    +0.022 A 
ATOM      5  C   LIG A   1      -7.125   3.225 125.924  0.00  0.00    +0.060 A 
ATOM      6  C   LIG A   1      -6.780   1.953 125.430  0.00  0.00    +0.022 A 
ENDROOT
BRANCH   2   7
ATOM      7  O   LIG A   1      -4.440   0.860 127.941  0.00  0.00    -0.506 OA
ATOM      8  H   LIG A   1      -4.005   0.288 127.288  0.00  0.00    +0.292 HD
ENDBRANCH   2   7
BRANCH   5   9
ATOM      9  C   LIG A   1      -8.070   4.119 125.236  0.00  0.00    +0.337 C 
ATOM     10  O   LIG A   1      -8.781   4.962 125.884  0.00  0.00    -0.245 OA
BRANCH   9  11
ATOM     11  O   LIG A   1      -8.172   4.019 123.922  0.00  0.00    -0.477 OA
ATOM     12  H   LIG A   1      -8.765   3.311 123.596  0.00  0.00    +0.295 HD
ENDBRANCH   9  11
ENDBRANCH   5   9
BRANCH   1  13
ATOM     13  C   LIG A   1      -5.493  -0.223 125.526  0.00  0.00    +0.066 C 
BRANCH  13  14
ATOM     14  C   LIG A   1      -6.359  -0.715 124.385  0.00  0.00    -0.023 C 
ATOM     15  C   LIG A   1      -6.242  -1.906 123.759  0.00  0.00    -0.076 C 
ATOM     16  C   LIG A   1      -5.194  -2.890 124.156  0.00  0.00    +0.038 C 
BRANCH  15  17
ATOM     17  C   LIG A   1      -7.287  -2.393 122.759  0.00  0.00    +0.034 C 
BRANCH  17  18
ATOM     18  C   LIG A   1      -8.730  -2.686 123.241  0.00  0.00    +0.031 C 
BRANCH  18  19
ATOM     19  C   LIG A   1      -8.866  -3.336 124.587  0.00  0.00    -0.028 C 
ATOM     20  C   LIG A   1      -9.059  -2.745 125.781  0.00  0.00    -0.080 C 
ATOM     21  C   LIG A   1      -9.313  -1.243 125.947  0.00  0.00    +0.038 C 
ATOM     22  C   LIG A   1      -8.975  -3.655 127.004  0.00  0.00    +0.038 C 
ENDBRANCH  18  19
ENDBRANCH  17  18
ENDBRANCH  15  17
ENDBRANCH  13  14
ENDBRANCH   1  13
BRANCH   3  23
ATOM     23  C   LIG A   1      -5.130   3.433 129.132  0.00  0.00    +0.066 C 
BRANCH  23  24
ATOM     24  C   LIG A   1      -4.308   4.657 128.934  0.00  0.00    -0.023 C 
ATOM     25  C   LIG A   1      -3.166   4.933 128.273  0.00  0.00    -0.079 C 
ATOM     26  C   LIG A   1      -2.366   3.888 127.611  0.00  0.00    +0.038 C 
ATOM     27  C   LIG A   1      -2.452   6.254 128.127  0.00  0.00    +0.038 C 
ENDBRANCH  23  24
ENDBRANCH   3  23
TORSDOF 10
ENDMDL
MODEL 8
REMARK VINA RESULT:      -6.8      3.154      5.370
REMARK  Name = NuBBE_1650
REMARK  15 active torsions:
REMARK  status: ('A' for Active; 'I' for Inactive)
REMARK    1  A    between atoms: C_1  and  C_2
REMARK    2  A    between atoms: C_1  and  C_11
REMARK    3  A    between atoms: C_3  and  C_4
REMARK    4  A    between atoms: C_3  and  C_10
REMARK    5  A    between atoms: C_4  and  C_5
REMARK    6  A    between atoms: C_5  and  C_6
REMARK    7  A    between atoms: C_7  and  C_8
REMARK    8  A    between atoms: C_7  and  C_9
REMARK    9  A    between atoms: C_12  and  O_13
REMARK   10  A    between atoms: C_14  and  C_15
REMARK   11  A    between atoms: C_15  and  C_16
REMARK   12  A    between atoms: C_17  and  C_18
REMARK   13  A    between atoms: C_17  and  C_19
REMARK   14  A    between atoms: C_21  and  C_23
REMARK   15  A    between atoms: C_23  and  O_25
REMARK                            x       y       z     vdW  Elec       q    Type
REMARK                         _______ _______ _______ _____ _____    ______ ____
ROOT
ATOM      1  C   LIG A   1      -6.454   1.133 125.259  0.00  0.00    -0.001 A 
ATOM      2  C   LIG A   1      -5.311   1.193 126.058  0.00  0.00    +0.124 A 
ATOM      3  C   LIG A   1      -4.811   2.385 126.616  0.00  0.00    -0.001 A 
ATOM      4  C   LIG A   1      -5.494   3.557 126.362  0.00  0.00    +0.022 A 
ATOM      5  C   LIG A   1      -6.633   3.556 125.541  0.00  0.00    +0.060 A 
ATOM      6  C   LIG A   1      -7.107   2.343 125.005  0.00  0.00    +0.022 A 
ENDROOT
BRANCH   2   7
ATOM      7  O   LIG A   1      -4.646   0.034 126.264  0.00  0.00    -0.506 OA
ATOM      8  H   LIG A   1      -4.984  -0.632 125.642  0.00  0.00    +0.292 HD
ENDBRANCH   2   7
BRANCH   5   9
ATOM      9  C   LIG A   1      -7.296   4.847 125.303  0.00  0.00    +0.337 C 
ATOM     10  O   LIG A   1      -6.622   5.911 125.080  0.00  0.00    -0.245 OA
BRANCH   9  11
ATOM     11  O   LIG A   1      -8.617   4.879 125.338  0.00  0.00    -0.477 OA
ATOM     12  H   LIG A   1      -9.056   5.155 124.507  0.00  0.00    +0.295 HD
ENDBRANCH   9  11
ENDBRANCH   5   9
BRANCH   1  13
ATOM     13  C   LIG A   1      -6.965  -0.153 124.621  0.00  0.00    +0.066 C 
BRANCH  13  14
ATOM     14  C   LIG A   1      -8.051  -0.880 125.389  0.00  0.00    -0.023 C 
ATOM     15  C   LIG A   1      -8.398  -2.175 125.234  0.00  0.00    -0.076 C 
ATOM     16  C   LIG A   1      -7.708  -3.049 124.241  0.00  0.00    +0.038 C 
BRANCH  15  17
ATOM     17  C   LIG A   1      -9.363  -2.868 126.193  0.00  0.00    +0.034 C 
BRANCH  17  18
ATOM     18  C   LIG A   1      -8.824  -3.921 127.193  0.00  0.00    +0.031 C 
BRANCH  18  19
ATOM     19  C   LIG A   1      -8.611  -3.455 128.604  0.00  0.00    -0.028 C 
ATOM     20  C   LIG A   1      -7.519  -2.871 129.132  0.00  0.00    -0.080 C 
ATOM     21  C   LIG A   1      -6.303  -2.450 128.300  0.00  0.00    +0.038 C 
ATOM     22  C   LIG A   1      -7.527  -2.673 130.646  0.00  0.00    +0.038 C 
ENDBRANCH  18  19
ENDBRANCH  17  18
ENDBRANCH  15  17
ENDBRANCH  13  14
ENDBRANCH   1  13
BRANCH   3  23
ATOM     23  C   LIG A   1      -3.599   2.453 127.515  0.00  0.00    +0.066 C 
BRANCH  23  24
ATOM     24  C   LIG A   1      -3.062   3.836 127.627  0.00  0.00    -0.023 C 
ATOM     25  C   LIG A   1      -2.879   4.700 128.645  0.00  0.00    -0.079 C 
ATOM     26  C   LIG A   1      -3.337   4.415 130.016  0.00  0.00    +0.038 C 
ATOM     27  C   LIG A   1      -2.278   6.085 128.616  0.00  0.00    +0.038 C 
ENDBRANCH  23  24
ENDBRANCH   3  23
TORSDOF 10
ENDMDL
MODEL 9
REMARK VINA RESULT:      -6.7      3.108      5.854
REMARK  Name = NuBBE_1650
REMARK  15 active torsions:
REMARK  status: ('A' for Active; 'I' for Inactive)
REMARK    1  A    between atoms: C_1  and  C_2
REMARK    2  A    between atoms: C_1  and  C_11
REMARK    3  A    between atoms: C_3  and  C_4
REMARK    4  A    between atoms: C_3  and  C_10
REMARK    5  A    between atoms: C_4  and  C_5
REMARK    6  A    between atoms: C_5  and  C_6
REMARK    7  A    between atoms: C_7  and  C_8
REMARK    8  A    between atoms: C_7  and  C_9
REMARK    9  A    between atoms: C_12  and  O_13
REMARK   10  A    between atoms: C_14  and  C_15
REMARK   11  A    between atoms: C_15  and  C_16
REMARK   12  A    between atoms: C_17  and  C_18
REMARK   13  A    between atoms: C_17  and  C_19
REMARK   14  A    between atoms: C_21  and  C_23
REMARK   15  A    between atoms: C_23  and  O_25
REMARK                            x       y       z     vdW  Elec       q    Type
REMARK                         _______ _______ _______ _____ _____    ______ ____
ROOT
ATOM      1  C   LIG A   1      -6.403   0.895 125.072  0.00  0.00    -0.001 A 
ATOM      2  C   LIG A   1      -5.584   0.850 126.200  0.00  0.00    +0.124 A 
ATOM      3  C   LIG A   1      -5.431   1.925 127.097  0.00  0.00    -0.001 A 
ATOM      4  C   LIG A   1      -6.134   3.085 126.846  0.00  0.00    +0.022 A 
ATOM      5  C   LIG A   1      -6.949   3.193 125.708  0.00  0.00    +0.060 A 
ATOM      6  C   LIG A   1      -7.083   2.095 124.837  0.00  0.00    +0.022 A 
ENDROOT
BRANCH   2   7
ATOM      7  O   LIG A   1      -4.883  -0.289 126.404  0.00  0.00    -0.506 OA
ATOM      8  H   LIG A   1      -4.736  -0.719 125.546  0.00  0.00    +0.292 HD
ENDBRANCH   2   7
BRANCH   5   9
ATOM      9  C   LIG A   1      -7.654   4.468 125.500  0.00  0.00    +0.337 C 
ATOM     10  O   LIG A   1      -8.929   4.541 125.560  0.00  0.00    -0.245 OA
BRANCH   9  11
ATOM     11  O   LIG A   1      -6.927   5.540 125.237  0.00  0.00    -0.477 OA
ATOM     12  H   LIG A   1      -6.333   5.470 124.462  0.00  0.00    +0.295 HD
ENDBRANCH   9  11
ENDBRANCH   5   9
BRANCH   1  13
ATOM     13  C   LIG A   1      -6.531  -0.255 124.081  0.00  0.00    +0.066 C 
BRANCH  13  14
ATOM     14  C   LIG A   1      -7.607  -1.276 124.396  0.00  0.00    -0.023 C 
ATOM     15  C   LIG A   1      -7.429  -2.611 124.485  0.00  0.00    -0.076 C 
ATOM     16  C   LIG A   1      -6.090  -3.231 124.270  0.00  0.00    +0.038 C 
BRANCH  15  17
ATOM     17  C   LIG A   1      -8.528  -3.534 125.005  0.00  0.00    +0.034 C 
BRANCH  17  18
ATOM     18  C   LIG A   1      -9.315  -3.144 126.281  0.00  0.00    +0.031 C 
BRANCH  18  19
ATOM     19  C   LIG A   1      -8.686  -3.512 127.593  0.00  0.00    -0.028 C 
ATOM     20  C   LIG A   1      -7.958  -2.733 128.415  0.00  0.00    -0.080 C 
ATOM     21  C   LIG A   1      -7.756  -1.230 128.192  0.00  0.00    +0.038 C 
ATOM     22  C   LIG A   1      -7.292  -3.436 129.596  0.00  0.00    +0.038 C 
ENDBRANCH  18  19
ENDBRANCH  17  18
ENDBRANCH  15  17
ENDBRANCH  13  14
ENDBRANCH   1  13
BRANCH   3  23
ATOM     23  C   LIG A   1      -4.579   1.871 128.344  0.00  0.00    +0.066 C 
BRANCH  23  24
ATOM     24  C   LIG A   1      -5.336   1.361 129.518  0.00  0.00    -0.023 C 
ATOM     25  C   LIG A   1      -5.271   0.249 130.276  0.00  0.00    -0.079 C 
ATOM     26  C   LIG A   1      -4.360  -0.867 129.964  0.00  0.00    +0.038 C 
ATOM     27  C   LIG A   1      -6.097  -0.126 131.482  0.00  0.00    +0.038 C 
ENDBRANCH  23  24
ENDBRANCH   3  23
TORSDOF 10
ENDMDL
