MODEL 1
REMARK VINA RESULT:      -4.8      0.000      0.000
REMARK  Name = NuBBE_2254
REMARK  1 active torsions:
REMARK  status: ('A' for Active; 'I' for Inactive)
REMARK    1  A    between atoms: C_1  and  C_3
REMARK                            x       y       z     vdW  Elec       q    Type
REMARK                         _______ _______ _______ _____ _____    ______ ____
ROOT
ATOM      1  C   LIG A   1      -6.430   4.300 120.569  0.00  0.00    +0.014 A 
ATOM      2  C   LIG A   1      -7.716   4.197 120.031  0.00  0.00    +0.011 A 
ATOM      3  C   LIG A   1      -8.725   3.578 120.772  0.00  0.00    +0.001 A 
ATOM      4  C   LIG A   1      -8.447   3.065 122.040  0.00  0.00    +0.000 A 
ATOM      5  C   LIG A   1      -7.161   3.169 122.574  0.00  0.00    +0.001 A 
ATOM      6  C   LIG A   1      -6.150   3.788 121.839  0.00  0.00    +0.011 A 
ENDROOT
BRANCH   1   7
ATOM      7  C   LIG A   1      -5.368   4.957 119.781  0.00  0.00    +0.258 C 
ATOM      8  O   LIG A   1      -4.928   6.062 120.071  0.00  0.00    -0.296 OA
ENDBRANCH   1   7
TORSDOF 1
ENDMDL
MODEL 2
REMARK VINA RESULT:      -4.7      9.701     10.763
REMARK  Name = NuBBE_2254
REMARK  1 active torsions:
REMARK  status: ('A' for Active; 'I' for Inactive)
REMARK    1  A    between atoms: C_1  and  C_3
REMARK                            x       y       z     vdW  Elec       q    Type
REMARK                         _______ _______ _______ _____ _____    ______ ____
ROOT
ATOM      1  C   LIG A   1     -12.427   7.501 129.569  0.00  0.00    +0.014 A 
ATOM      2  C   LIG A   1     -11.206   8.116 129.279  0.00  0.00    +0.011 A 
ATOM      3  C   LIG A   1     -10.781   8.214 127.953  0.00  0.00    +0.001 A 
ATOM      4  C   LIG A   1     -11.573   7.699 126.924  0.00  0.00    +0.000 A 
ATOM      5  C   LIG A   1     -12.793   7.085 127.217  0.00  0.00    +0.001 A 
ATOM      6  C   LIG A   1     -13.222   6.986 128.541  0.00  0.00    +0.011 A 
ENDROOT
BRANCH   1   7
ATOM      7  C   LIG A   1     -12.872   7.401 130.973  0.00  0.00    +0.258 C 
ATOM      8  O   LIG A   1     -12.438   6.548 131.737  0.00  0.00    -0.296 OA
ENDBRANCH   1   7
TORSDOF 1
ENDMDL
MODEL 3
REMARK VINA RESULT:      -4.7      9.671     10.643
REMARK  Name = NuBBE_2254
REMARK  1 active torsions:
REMARK  status: ('A' for Active; 'I' for Inactive)
REMARK    1  A    between atoms: C_1  and  C_3
REMARK                            x       y       z     vdW  Elec       q    Type
REMARK                         _______ _______ _______ _____ _____    ______ ____
ROOT
ATOM      1  C   LIG A   1     -12.446   7.482 129.530  0.00  0.00    +0.014 A 
ATOM      2  C   LIG A   1     -13.235   6.948 128.507  0.00  0.00    +0.011 A 
ATOM      3  C   LIG A   1     -12.804   7.045 127.182  0.00  0.00    +0.001 A 
ATOM      4  C   LIG A   1     -11.593   7.673 126.884  0.00  0.00    +0.000 A 
ATOM      5  C   LIG A   1     -10.807   8.205 127.909  0.00  0.00    +0.001 A 
ATOM      6  C   LIG A   1     -11.232   8.110 129.234  0.00  0.00    +0.011 A 
ENDROOT
BRANCH   1   7
ATOM      7  C   LIG A   1     -12.906   7.377 130.928  0.00  0.00    +0.258 C 
ATOM      8  O   LIG A   1     -12.444   6.553 131.708  0.00  0.00    -0.296 OA
ENDBRANCH   1   7
TORSDOF 1
ENDMDL
MODEL 4
REMARK VINA RESULT:      -4.7      9.553     10.512
REMARK  Name = NuBBE_2254
REMARK  1 active torsions:
REMARK  status: ('A' for Active; 'I' for Inactive)
REMARK    1  A    between atoms: C_1  and  C_3
REMARK                            x       y       z     vdW  Elec       q    Type
REMARK                         _______ _______ _______ _____ _____    ______ ____
ROOT
ATOM      1  C   LIG A   1     -12.626   7.501 128.147  0.00  0.00    +0.014 A 
ATOM      2  C   LIG A   1     -12.649   6.550 129.171  0.00  0.00    +0.011 A 
ATOM      3  C   LIG A   1     -12.771   6.968 130.497  0.00  0.00    +0.001 A 
ATOM      4  C   LIG A   1     -12.868   8.328 130.796  0.00  0.00    +0.000 A 
ATOM      5  C   LIG A   1     -12.845   9.276 129.771  0.00  0.00    +0.001 A 
ATOM      6  C   LIG A   1     -12.724   8.863 128.444  0.00  0.00    +0.011 A 
ENDROOT
BRANCH   1   7
ATOM      7  C   LIG A   1     -12.498   7.053 126.746  0.00  0.00    +0.258 C 
ATOM      8  O   LIG A   1     -11.411   6.823 126.230  0.00  0.00    -0.296 OA
ENDBRANCH   1   7
TORSDOF 1
ENDMDL
MODEL 5
REMARK VINA RESULT:      -4.7      9.483     10.379
REMARK  Name = NuBBE_2254
REMARK  1 active torsions:
REMARK  status: ('A' for Active; 'I' for Inactive)
REMARK    1  A    between atoms: C_1  and  C_3
REMARK                            x       y       z     vdW  Elec       q    Type
REMARK                         _______ _______ _______ _____ _____    ______ ____
ROOT
ATOM      1  C   LIG A   1     -12.514   7.488 128.125  0.00  0.00    +0.014 A 
ATOM      2  C   LIG A   1     -12.637   8.842 128.451  0.00  0.00    +0.011 A 
ATOM      3  C   LIG A   1     -12.811   9.217 129.784  0.00  0.00    +0.001 A 
ATOM      4  C   LIG A   1     -12.864   8.243 130.784  0.00  0.00    +0.000 A 
ATOM      5  C   LIG A   1     -12.742   6.892 130.455  0.00  0.00    +0.001 A 
ATOM      6  C   LIG A   1     -12.566   6.512 129.124  0.00  0.00    +0.011 A 
ENDROOT
BRANCH   1   7
ATOM      7  C   LIG A   1     -12.329   7.097 126.714  0.00  0.00    +0.258 C 
ATOM      8  O   LIG A   1     -11.232   6.803 126.255  0.00  0.00    -0.296 OA
ENDBRANCH   1   7
TORSDOF 1
ENDMDL
MODEL 6
REMARK VINA RESULT:      -4.5      2.068      3.534
REMARK  Name = NuBBE_2254
REMARK  1 active torsions:
REMARK  status: ('A' for Active; 'I' for Inactive)
REMARK    1  A    between atoms: C_1  and  C_3
REMARK                            x       y       z     vdW  Elec       q    Type
REMARK                         _______ _______ _______ _____ _____    ______ ____
ROOT
ATOM      1  C   LIG A   1      -6.382   3.931 121.118  0.00  0.00    +0.014 A 
ATOM      2  C   LIG A   1      -5.267   4.694 120.758  0.00  0.00    +0.011 A 
ATOM      3  C   LIG A   1      -5.261   5.373 119.538  0.00  0.00    +0.001 A 
ATOM      4  C   LIG A   1      -6.362   5.286 118.684  0.00  0.00    +0.000 A 
ATOM      5  C   LIG A   1      -7.474   4.523 119.046  0.00  0.00    +0.001 A 
ATOM      6  C   LIG A   1      -7.486   3.844 120.264  0.00  0.00    +0.011 A 
ENDROOT
BRANCH   1   7
ATOM      7  C   LIG A   1      -6.384   3.216 122.409  0.00  0.00    +0.258 C 
ATOM      8  O   LIG A   1      -7.153   2.293 122.644  0.00  0.00    -0.296 OA
ENDBRANCH   1   7
TORSDOF 1
ENDMDL
MODEL 7
REMARK VINA RESULT:      -4.5      2.039      3.250
REMARK  Name = NuBBE_2254
REMARK  1 active torsions:
REMARK  status: ('A' for Active; 'I' for Inactive)
REMARK    1  A    between atoms: C_1  and  C_3
REMARK                            x       y       z     vdW  Elec       q    Type
REMARK                         _______ _______ _______ _____ _____    ______ ____
ROOT
ATOM      1  C   LIG A   1      -6.437   3.903 121.061  0.00  0.00    +0.014 A 
ATOM      2  C   LIG A   1      -7.505   3.862 120.160  0.00  0.00    +0.011 A 
ATOM      3  C   LIG A   1      -7.430   4.584 118.967  0.00  0.00    +0.001 A 
ATOM      4  C   LIG A   1      -6.294   5.342 118.679  0.00  0.00    +0.000 A 
ATOM      5  C   LIG A   1      -5.228   5.381 119.581  0.00  0.00    +0.001 A 
ATOM      6  C   LIG A   1      -5.298   4.661 120.774  0.00  0.00    +0.011 A 
ENDROOT
BRANCH   1   7
ATOM      7  C   LIG A   1      -6.522   3.138 122.320  0.00  0.00    +0.258 C 
ATOM      8  O   LIG A   1      -7.581   2.694 122.745  0.00  0.00    -0.296 OA
ENDBRANCH   1   7
TORSDOF 1
ENDMDL
MODEL 8
REMARK VINA RESULT:      -4.5      7.136      8.364
REMARK  Name = NuBBE_2254
REMARK  1 active torsions:
REMARK  status: ('A' for Active; 'I' for Inactive)
REMARK    1  A    between atoms: C_1  and  C_3
REMARK                            x       y       z     vdW  Elec       q    Type
REMARK                         _______ _______ _______ _____ _____    ______ ____
ROOT
ATOM      1  C   LIG A   1      -7.998  -2.974 123.795  0.00  0.00    +0.014 A 
ATOM      2  C   LIG A   1      -7.026  -3.750 124.432  0.00  0.00    +0.011 A 
ATOM      3  C   LIG A   1      -5.681  -3.582 124.097  0.00  0.00    +0.001 A 
ATOM      4  C   LIG A   1      -5.312  -2.646 123.129  0.00  0.00    +0.000 A 
ATOM      5  C   LIG A   1      -6.286  -1.872 122.494  0.00  0.00    +0.001 A 
ATOM      6  C   LIG A   1      -7.631  -2.035 122.826  0.00  0.00    +0.011 A 
ENDROOT
BRANCH   1   7
ATOM      7  C   LIG A   1      -9.418  -3.155 124.153  0.00  0.00    +0.258 C 
ATOM      8  O   LIG A   1      -9.853  -2.876 125.264  0.00  0.00    -0.296 OA
ENDBRANCH   1   7
TORSDOF 1
ENDMDL
MODEL 9
REMARK VINA RESULT:      -4.5     10.223     11.238
REMARK  Name = NuBBE_2254
REMARK  1 active torsions:
REMARK  status: ('A' for Active; 'I' for Inactive)
REMARK    1  A    between atoms: C_1  and  C_3
REMARK                            x       y       z     vdW  Elec       q    Type
REMARK                         _______ _______ _______ _____ _____    ______ ____
ROOT
ATOM      1  C   LIG A   1     -11.208   7.041 130.636  0.00  0.00    +0.014 A 
ATOM      2  C   LIG A   1     -10.207   7.326 129.702  0.00  0.00    +0.011 A 
ATOM      3  C   LIG A   1     -10.489   8.170 128.626  0.00  0.00    +0.001 A 
ATOM      4  C   LIG A   1     -11.762   8.724 128.486  0.00  0.00    +0.000 A 
ATOM      5  C   LIG A   1     -12.760   8.438 129.420  0.00  0.00    +0.001 A 
ATOM      6  C   LIG A   1     -12.484   7.596 130.498  0.00  0.00    +0.011 A 
ENDROOT
BRANCH   1   7
ATOM      7  C   LIG A   1     -10.905   6.149 131.772  0.00  0.00    +0.258 C 
ATOM      8  O   LIG A   1     -10.186   6.494 132.701  0.00  0.00    -0.296 OA
ENDBRANCH   1   7
TORSDOF 1
ENDMDL
