MODEL 1
REMARK VINA RESULT:      -7.5      0.000      0.000
REMARK  Name = NuBBE_363
REMARK  3 active torsions:
REMARK  status: ('A' for Active; 'I' for Inactive)
REMARK    1  A    between atoms: C_4  and  C_5
REMARK    2  A    between atoms: C_15  and  O_16
REMARK    3  A    between atoms: C_18  and  O_19
REMARK                            x       y       z     vdW  Elec       q    Type
REMARK                         _______ _______ _______ _____ _____    ______ ____
ROOT
ATOM      1  O   LIG A   1      -9.764   5.210 133.084  0.00  0.00    -0.287 OA
ATOM      2  C   LIG A   1      -9.228   5.895 132.222  0.00  0.00    +0.197 A 
ATOM      3  C   LIG A   1      -7.758   6.007 132.220  0.00  0.00    +0.098 A 
ATOM      4  C   LIG A   1      -7.147   6.744 131.284  0.00  0.00    +0.139 A 
ATOM      5  O   LIG A   1      -7.813   7.446 130.297  0.00  0.00    -0.454 OA
ATOM      6  C   LIG A   1      -9.947   6.633 131.159  0.00  0.00    +0.105 A 
ATOM      7  C   LIG A   1      -9.184   7.373 130.251  0.00  0.00    +0.146 A 
ATOM      8  C   LIG A   1      -9.795   8.094 129.221  0.00  0.00    +0.092 A 
ATOM      9  C   LIG A   1     -11.179   8.072 129.105  0.00  0.00    +0.124 A 
ATOM     10  C   LIG A   1     -11.958   7.344 129.998  0.00  0.00    +0.091 A 
ATOM     11  C   LIG A   1     -11.343   6.624 131.025  0.00  0.00    +0.135 A 
ENDROOT
BRANCH   4  12
ATOM     12  C   LIG A   1      -5.679   6.891 131.247  0.00  0.00    +0.017 A 
ATOM     13  C   LIG A   1      -4.890   6.311 132.253  0.00  0.00    +0.011 A 
ATOM     14  C   LIG A   1      -3.499   6.448 132.238  0.00  0.00    +0.001 A 
ATOM     15  C   LIG A   1      -2.881   7.172 131.222  0.00  0.00    +0.000 A 
ATOM     16  C   LIG A   1      -3.650   7.763 130.222  0.00  0.00    +0.001 A 
ATOM     17  C   LIG A   1      -5.041   7.624 130.235  0.00  0.00    +0.011 A 
ENDBRANCH   4  12
BRANCH   9  18
ATOM     18  O   LIG A   1     -11.823   8.758 128.119  0.00  0.00    -0.506 OA
ATOM     19  H   LIG A   1     -11.869   8.202 127.321  0.00  0.00    +0.292 HD
ENDBRANCH   9  18
BRANCH  11  20
ATOM     20  O   LIG A   1     -12.127   5.916 131.890  0.00  0.00    -0.506 OA
ATOM     21  H   LIG A   1     -11.605   5.620 132.653  0.00  0.00    +0.292 HD
ENDBRANCH  11  20
TORSDOF 3
ENDMDL
MODEL 2
REMARK VINA RESULT:      -7.3      9.840     10.556
REMARK  Name = NuBBE_363
REMARK  3 active torsions:
REMARK  status: ('A' for Active; 'I' for Inactive)
REMARK    1  A    between atoms: C_4  and  C_5
REMARK    2  A    between atoms: C_15  and  O_16
REMARK    3  A    between atoms: C_18  and  O_19
REMARK                            x       y       z     vdW  Elec       q    Type
REMARK                         _______ _______ _______ _____ _____    ______ ____
ROOT
ATOM      1  O   LIG A   1      -9.768   2.335 124.891  0.00  0.00    -0.287 OA
ATOM      2  C   LIG A   1      -8.841   1.968 124.181  0.00  0.00    +0.197 A 
ATOM      3  C   LIG A   1      -8.210   2.947 123.278  0.00  0.00    +0.098 A 
ATOM      4  C   LIG A   1      -7.191   2.572 122.497  0.00  0.00    +0.139 A 
ATOM      5  O   LIG A   1      -6.679   1.288 122.457  0.00  0.00    -0.454 OA
ATOM      6  C   LIG A   1      -8.290   0.594 124.155  0.00  0.00    +0.105 A 
ATOM      7  C   LIG A   1      -7.228   0.337 123.282  0.00  0.00    +0.146 A 
ATOM      8  C   LIG A   1      -6.656  -0.937 123.204  0.00  0.00    +0.092 A 
ATOM      9  C   LIG A   1      -7.156  -1.955 124.006  0.00  0.00    +0.124 A 
ATOM     10  C   LIG A   1      -8.211  -1.722 124.881  0.00  0.00    +0.091 A 
ATOM     11  C   LIG A   1      -8.778  -0.448 124.956  0.00  0.00    +0.135 A 
ENDROOT
BRANCH   4  12
ATOM     12  C   LIG A   1      -6.532   3.515 121.572  0.00  0.00    +0.017 A 
ATOM     13  C   LIG A   1      -5.325   4.130 121.939  0.00  0.00    +0.011 A 
ATOM     14  C   LIG A   1      -4.693   5.033 121.080  0.00  0.00    +0.001 A 
ATOM     15  C   LIG A   1      -5.262   5.336 119.846  0.00  0.00    +0.000 A 
ATOM     16  C   LIG A   1      -6.465   4.743 119.471  0.00  0.00    +0.001 A 
ATOM     17  C   LIG A   1      -7.097   3.838 120.329  0.00  0.00    +0.011 A 
ENDBRANCH   4  12
BRANCH   9  18
ATOM     18  O   LIG A   1      -6.633  -3.213 123.968  0.00  0.00    -0.506 OA
ATOM     19  H   LIG A   1      -5.667  -3.162 124.078  0.00  0.00    +0.292 HD
ENDBRANCH   9  18
BRANCH  11  20
ATOM     20  O   LIG A   1      -9.814  -0.242 125.822  0.00  0.00    -0.506 OA
ATOM     21  H   LIG A   1     -10.596   0.074 125.342  0.00  0.00    +0.292 HD
ENDBRANCH  11  20
TORSDOF 3
ENDMDL
MODEL 3
REMARK VINA RESULT:      -7.1      1.653      5.988
REMARK  Name = NuBBE_363
REMARK  3 active torsions:
REMARK  status: ('A' for Active; 'I' for Inactive)
REMARK    1  A    between atoms: C_4  and  C_5
REMARK    2  A    between atoms: C_15  and  O_16
REMARK    3  A    between atoms: C_18  and  O_19
REMARK                            x       y       z     vdW  Elec       q    Type
REMARK                         _______ _______ _______ _____ _____    ______ ____
ROOT
ATOM      1  O   LIG A   1      -9.170   4.944 133.661  0.00  0.00    -0.287 OA
ATOM      2  C   LIG A   1      -8.873   5.637 132.696  0.00  0.00    +0.197 A 
ATOM      3  C   LIG A   1      -9.951   6.123 131.815  0.00  0.00    +0.098 A 
ATOM      4  C   LIG A   1      -9.653   6.887 130.758  0.00  0.00    +0.139 A 
ATOM      5  O   LIG A   1      -8.367   7.252 130.405  0.00  0.00    -0.454 OA
ATOM      6  C   LIG A   1      -7.494   6.036 132.334  0.00  0.00    +0.105 A 
ATOM      7  C   LIG A   1      -7.325   6.830 131.195  0.00  0.00    +0.146 A 
ATOM      8  C   LIG A   1      -6.053   7.245 130.792  0.00  0.00    +0.092 A 
ATOM      9  C   LIG A   1      -4.946   6.859 131.538  0.00  0.00    +0.124 A 
ATOM     10  C   LIG A   1      -5.090   6.069 132.673  0.00  0.00    +0.091 A 
ATOM     11  C   LIG A   1      -6.364   5.658 133.072  0.00  0.00    +0.135 A 
ENDROOT
BRANCH   4  12
ATOM     12  C   LIG A   1     -10.697   7.390 129.844  0.00  0.00    +0.017 A 
ATOM     13  C   LIG A   1     -12.052   7.259 130.187  0.00  0.00    +0.011 A 
ATOM     14  C   LIG A   1     -13.054   7.721 129.330  0.00  0.00    +0.001 A 
ATOM     15  C   LIG A   1     -12.715   8.315 128.117  0.00  0.00    +0.000 A 
ATOM     16  C   LIG A   1     -11.376   8.443 127.757  0.00  0.00    +0.001 A 
ATOM     17  C   LIG A   1     -10.373   7.983 128.614  0.00  0.00    +0.011 A 
ENDBRANCH   4  12
BRANCH   9  18
ATOM     18  O   LIG A   1      -3.684   7.238 131.188  0.00  0.00    -0.506 OA
ATOM     19  H   LIG A   1      -3.407   6.737 130.402  0.00  0.00    +0.292 HD
ENDBRANCH   9  18
BRANCH  11  20
ATOM     20  O   LIG A   1      -6.482   4.882 134.190  0.00  0.00    -0.506 OA
ATOM     21  H   LIG A   1      -6.166   3.982 134.011  0.00  0.00    +0.292 HD
ENDBRANCH  11  20
TORSDOF 3
ENDMDL
MODEL 4
REMARK VINA RESULT:      -7.1      9.031     10.018
REMARK  Name = NuBBE_363
REMARK  3 active torsions:
REMARK  status: ('A' for Active; 'I' for Inactive)
REMARK    1  A    between atoms: C_4  and  C_5
REMARK    2  A    between atoms: C_15  and  O_16
REMARK    3  A    between atoms: C_18  and  O_19
REMARK                            x       y       z     vdW  Elec       q    Type
REMARK                         _______ _______ _______ _____ _____    ______ ____
ROOT
ATOM      1  O   LIG A   1     -10.513   1.495 123.575  0.00  0.00    -0.287 OA
ATOM      2  C   LIG A   1      -9.307   1.702 123.609  0.00  0.00    +0.197 A 
ATOM      3  C   LIG A   1      -8.703   2.546 122.562  0.00  0.00    +0.098 A 
ATOM      4  C   LIG A   1      -7.388   2.793 122.581  0.00  0.00    +0.139 A 
ATOM      5  O   LIG A   1      -6.520   2.284 123.529  0.00  0.00    -0.454 OA
ATOM      6  C   LIG A   1      -8.386   1.165 124.636  0.00  0.00    +0.105 A 
ATOM      7  C   LIG A   1      -7.031   1.495 124.530  0.00  0.00    +0.146 A 
ATOM      8  C   LIG A   1      -6.103   1.024 125.464  0.00  0.00    +0.092 A 
ATOM      9  C   LIG A   1      -6.540   0.218 126.507  0.00  0.00    +0.124 A 
ATOM     10  C   LIG A   1      -7.882  -0.123 126.632  0.00  0.00    +0.091 A 
ATOM     11  C   LIG A   1      -8.806   0.350 125.697  0.00  0.00    +0.135 A 
ENDROOT
BRANCH   4  12
ATOM     12  C   LIG A   1      -6.739   3.627 121.550  0.00  0.00    +0.017 A 
ATOM     13  C   LIG A   1      -7.390   3.867 120.330  0.00  0.00    +0.011 A 
ATOM     14  C   LIG A   1      -6.786   4.646 119.339  0.00  0.00    +0.001 A 
ATOM     15  C   LIG A   1      -5.522   5.188 119.553  0.00  0.00    +0.000 A 
ATOM     16  C   LIG A   1      -4.857   4.950 120.754  0.00  0.00    +0.001 A 
ATOM     17  C   LIG A   1      -5.462   4.173 121.746  0.00  0.00    +0.011 A 
ENDBRANCH   4  12
BRANCH   9  18
ATOM     18  O   LIG A   1      -5.676  -0.266 127.444  0.00  0.00    -0.506 OA
ATOM     19  H   LIG A   1      -4.842   0.234 127.398  0.00  0.00    +0.292 HD
ENDBRANCH   9  18
BRANCH  11  20
ATOM     20  O   LIG A   1     -10.119   0.003 125.839  0.00  0.00    -0.506 OA
ATOM     21  H   LIG A   1     -10.220  -0.647 126.552  0.00  0.00    +0.292 HD
ENDBRANCH  11  20
TORSDOF 3
ENDMDL
MODEL 5
REMARK VINA RESULT:      -7.1      2.689      4.110
REMARK  Name = NuBBE_363
REMARK  3 active torsions:
REMARK  status: ('A' for Active; 'I' for Inactive)
REMARK    1  A    between atoms: C_4  and  C_5
REMARK    2  A    between atoms: C_15  and  O_16
REMARK    3  A    between atoms: C_18  and  O_19
REMARK                            x       y       z     vdW  Elec       q    Type
REMARK                         _______ _______ _______ _____ _____    ______ ____
ROOT
ATOM      1  O   LIG A   1      -8.726   5.159 127.489  0.00  0.00    -0.287 OA
ATOM      2  C   LIG A   1      -9.197   5.670 128.497  0.00  0.00    +0.197 A 
ATOM      3  C   LIG A   1      -8.704   5.223 129.813  0.00  0.00    +0.098 A 
ATOM      4  C   LIG A   1      -9.197   5.770 130.930  0.00  0.00    +0.139 A 
ATOM      5  O   LIG A   1     -10.181   6.742 130.946  0.00  0.00    -0.454 OA
ATOM      6  C   LIG A   1     -10.239   6.721 128.505  0.00  0.00    +0.105 A 
ATOM      7  C   LIG A   1     -10.672   7.198 129.746  0.00  0.00    +0.146 A 
ATOM      8  C   LIG A   1     -11.653   8.190 129.832  0.00  0.00    +0.092 A 
ATOM      9  C   LIG A   1     -12.201   8.704 128.663  0.00  0.00    +0.124 A 
ATOM     10  C   LIG A   1     -11.787   8.244 127.418  0.00  0.00    +0.091 A 
ATOM     11  C   LIG A   1     -10.806   7.253 127.338  0.00  0.00    +0.135 A 
ENDROOT
BRANCH   4  12
ATOM     12  C   LIG A   1      -8.740   5.349 132.269  0.00  0.00    +0.017 A 
ATOM     13  C   LIG A   1      -7.619   5.962 132.851  0.00  0.00    +0.011 A 
ATOM     14  C   LIG A   1      -7.167   5.571 134.114  0.00  0.00    +0.001 A 
ATOM     15  C   LIG A   1      -7.824   4.557 134.807  0.00  0.00    +0.000 A 
ATOM     16  C   LIG A   1      -8.931   3.931 134.238  0.00  0.00    +0.001 A 
ATOM     17  C   LIG A   1      -9.386   4.324 132.976  0.00  0.00    +0.011 A 
ENDBRANCH   4  12
BRANCH   9  18
ATOM     18  O   LIG A   1     -13.160   9.672 128.692  0.00  0.00    -0.506 OA
ATOM     19  H   LIG A   1     -13.648   9.664 127.850  0.00  0.00    +0.292 HD
ENDBRANCH   9  18
BRANCH  11  20
ATOM     20  O   LIG A   1     -10.414   6.816 126.105  0.00  0.00    -0.506 OA
ATOM     21  H   LIG A   1     -10.948   7.238 125.413  0.00  0.00    +0.292 HD
ENDBRANCH  11  20
TORSDOF 3
ENDMDL
MODEL 6
REMARK VINA RESULT:      -7.0      8.838      9.879
REMARK  Name = NuBBE_363
REMARK  3 active torsions:
REMARK  status: ('A' for Active; 'I' for Inactive)
REMARK    1  A    between atoms: C_4  and  C_5
REMARK    2  A    between atoms: C_15  and  O_16
REMARK    3  A    between atoms: C_18  and  O_19
REMARK                            x       y       z     vdW  Elec       q    Type
REMARK                         _______ _______ _______ _____ _____    ______ ____
ROOT
ATOM      1  O   LIG A   1      -4.943   3.602 125.469  0.00  0.00    -0.287 OA
ATOM      2  C   LIG A   1      -5.820   3.331 124.658  0.00  0.00    +0.197 A 
ATOM      3  C   LIG A   1      -5.711   3.872 123.291  0.00  0.00    +0.098 A 
ATOM      4  C   LIG A   1      -6.652   3.585 122.385  0.00  0.00    +0.139 A 
ATOM      5  O   LIG A   1      -7.766   2.809 122.646  0.00  0.00    -0.454 OA
ATOM      6  C   LIG A   1      -7.002   2.487 124.942  0.00  0.00    +0.105 A 
ATOM      7  C   LIG A   1      -7.914   2.276 123.903  0.00  0.00    +0.146 A 
ATOM      8  C   LIG A   1      -9.054   1.489 124.098  0.00  0.00    +0.092 A 
ATOM      9  C   LIG A   1      -9.276   0.914 125.343  0.00  0.00    +0.124 A 
ATOM     10  C   LIG A   1      -8.384   1.112 126.390  0.00  0.00    +0.091 A 
ATOM     11  C   LIG A   1      -7.246   1.897 126.191  0.00  0.00    +0.135 A 
ENDROOT
BRANCH   4  12
ATOM     12  C   LIG A   1      -6.589   4.109 121.006  0.00  0.00    +0.017 A 
ATOM     13  C   LIG A   1      -5.434   4.769 120.559  0.00  0.00    +0.011 A 
ATOM     14  C   LIG A   1      -5.360   5.280 119.260  0.00  0.00    +0.001 A 
ATOM     15  C   LIG A   1      -6.443   5.144 118.396  0.00  0.00    +0.000 A 
ATOM     16  C   LIG A   1      -7.601   4.502 118.827  0.00  0.00    +0.001 A 
ATOM     17  C   LIG A   1      -7.674   3.988 120.125  0.00  0.00    +0.011 A 
ENDBRANCH   4  12
BRANCH   9  18
ATOM     18  O   LIG A   1     -10.372   0.139 125.583  0.00  0.00    -0.506 OA
ATOM     19  H   LIG A   1     -10.799  -0.082 124.737  0.00  0.00    +0.292 HD
ENDBRANCH   9  18
BRANCH  11  20
ATOM     20  O   LIG A   1      -6.383   2.078 127.233  0.00  0.00    -0.506 OA
ATOM     21  H   LIG A   1      -5.512   1.707 127.017  0.00  0.00    +0.292 HD
ENDBRANCH  11  20
TORSDOF 3
ENDMDL
MODEL 7
REMARK VINA RESULT:      -7.0      9.517      9.931
REMARK  Name = NuBBE_363
REMARK  3 active torsions:
REMARK  status: ('A' for Active; 'I' for Inactive)
REMARK    1  A    between atoms: C_4  and  C_5
REMARK    2  A    between atoms: C_15  and  O_16
REMARK    3  A    between atoms: C_18  and  O_19
REMARK                            x       y       z     vdW  Elec       q    Type
REMARK                         _______ _______ _______ _____ _____    ______ ____
ROOT
ATOM      1  O   LIG A   1      -9.482  -2.631 123.721  0.00  0.00    -0.287 OA
ATOM      2  C   LIG A   1      -8.986  -1.929 124.592  0.00  0.00    +0.197 A 
ATOM      3  C   LIG A   1      -8.299  -2.581 125.721  0.00  0.00    +0.098 A 
ATOM      4  C   LIG A   1      -7.741  -1.836 126.683  0.00  0.00    +0.139 A 
ATOM      5  O   LIG A   1      -7.778  -0.453 126.708  0.00  0.00    -0.454 OA
ATOM      6  C   LIG A   1      -9.017  -0.448 124.605  0.00  0.00    +0.105 A 
ATOM      7  C   LIG A   1      -8.403   0.205 125.677  0.00  0.00    +0.146 A 
ATOM      8  C   LIG A   1      -8.392   1.601 125.756  0.00  0.00    +0.092 A 
ATOM      9  C   LIG A   1      -9.003   2.341 124.751  0.00  0.00    +0.124 A 
ATOM     10  C   LIG A   1      -9.621   1.713 123.676  0.00  0.00    +0.091 A 
ATOM     11  C   LIG A   1      -9.628   0.318 123.602  0.00  0.00    +0.135 A 
ENDROOT
BRANCH   4  12
ATOM     12  C   LIG A   1      -7.049  -2.444 127.836  0.00  0.00    +0.017 A 
ATOM     13  C   LIG A   1      -5.651  -2.369 127.934  0.00  0.00    +0.011 A 
ATOM     14  C   LIG A   1      -4.978  -2.948 129.013  0.00  0.00    +0.001 A 
ATOM     15  C   LIG A   1      -5.695  -3.615 130.004  0.00  0.00    +0.000 A 
ATOM     16  C   LIG A   1      -7.081  -3.707 129.916  0.00  0.00    +0.001 A 
ATOM     17  C   LIG A   1      -7.755  -3.127 128.838  0.00  0.00    +0.011 A 
ENDBRANCH   4  12
BRANCH   9  18
ATOM     18  O   LIG A   1      -9.021   3.704 124.781  0.00  0.00    -0.506 OA
ATOM     19  H   LIG A   1      -8.295   4.045 124.231  0.00  0.00    +0.292 HD
ENDBRANCH   9  18
BRANCH  11  20
ATOM     20  O   LIG A   1     -10.240  -0.279 122.537  0.00  0.00    -0.506 OA
ATOM     21  H   LIG A   1      -9.984  -1.213 122.481  0.00  0.00    +0.292 HD
ENDBRANCH  11  20
TORSDOF 3
ENDMDL
MODEL 8
REMARK VINA RESULT:      -7.0      3.100      6.558
REMARK  Name = NuBBE_363
REMARK  3 active torsions:
REMARK  status: ('A' for Active; 'I' for Inactive)
REMARK    1  A    between atoms: C_4  and  C_5
REMARK    2  A    between atoms: C_15  and  O_16
REMARK    3  A    between atoms: C_18  and  O_19
REMARK                            x       y       z     vdW  Elec       q    Type
REMARK                         _______ _______ _______ _____ _____    ______ ____
ROOT
ATOM      1  O   LIG A   1      -7.645   6.460 132.102  0.00  0.00    -0.287 OA
ATOM      2  C   LIG A   1      -8.622   5.907 131.613  0.00  0.00    +0.197 A 
ATOM      3  C   LIG A   1      -9.591   6.721 130.857  0.00  0.00    +0.098 A 
ATOM      4  C   LIG A   1     -10.663   6.139 130.307  0.00  0.00    +0.139 A 
ATOM      5  O   LIG A   1     -10.952   4.791 130.413  0.00  0.00    -0.454 OA
ATOM      6  C   LIG A   1      -8.916   4.460 131.720  0.00  0.00    +0.105 A 
ATOM      7  C   LIG A   1     -10.078   3.986 131.104  0.00  0.00    +0.146 A 
ATOM      8  C   LIG A   1     -10.420   2.632 131.163  0.00  0.00    +0.092 A 
ATOM      9  C   LIG A   1      -9.589   1.752 131.844  0.00  0.00    +0.124 A 
ATOM     10  C   LIG A   1      -8.428   2.201 132.464  0.00  0.00    +0.091 A 
ATOM     11  C   LIG A   1      -8.091   3.555 132.402  0.00  0.00    +0.135 A 
ENDROOT
BRANCH   4  12
ATOM     12  C   LIG A   1     -11.664   6.914 129.547  0.00  0.00    +0.017 A 
ATOM     13  C   LIG A   1     -12.765   6.262 128.971  0.00  0.00    +0.011 A 
ATOM     14  C   LIG A   1     -13.717   6.978 128.240  0.00  0.00    +0.001 A 
ATOM     15  C   LIG A   1     -13.576   8.353 128.070  0.00  0.00    +0.000 A 
ATOM     16  C   LIG A   1     -12.483   9.013 128.626  0.00  0.00    +0.001 A 
ATOM     17  C   LIG A   1     -11.532   8.298 129.359  0.00  0.00    +0.011 A 
ENDBRANCH   4  12
BRANCH   9  18
ATOM     18  O   LIG A   1      -9.877   0.422 131.930  0.00  0.00    -0.506 OA
ATOM     19  H   LIG A   1      -9.949   0.052 131.033  0.00  0.00    +0.292 HD
ENDBRANCH   9  18
BRANCH  11  20
ATOM     20  O   LIG A   1      -6.946   3.974 133.018  0.00  0.00    -0.506 OA
ATOM     21  H   LIG A   1      -6.684   4.846 132.683  0.00  0.00    +0.292 HD
ENDBRANCH  11  20
TORSDOF 3
ENDMDL
MODEL 9
REMARK VINA RESULT:      -6.9      3.406      6.189
REMARK  Name = NuBBE_363
REMARK  3 active torsions:
REMARK  status: ('A' for Active; 'I' for Inactive)
REMARK    1  A    between atoms: C_4  and  C_5
REMARK    2  A    between atoms: C_15  and  O_16
REMARK    3  A    between atoms: C_18  and  O_19
REMARK                            x       y       z     vdW  Elec       q    Type
REMARK                         _______ _______ _______ _____ _____    ______ ____
ROOT
ATOM      1  O   LIG A   1      -9.843   2.479 131.017  0.00  0.00    -0.287 OA
ATOM      2  C   LIG A   1      -9.755   3.647 131.375  0.00  0.00    +0.197 A 
ATOM      3  C   LIG A   1     -10.422   4.686 130.570  0.00  0.00    +0.098 A 
ATOM      4  C   LIG A   1     -10.347   5.969 130.943  0.00  0.00    +0.139 A 
ATOM      5  O   LIG A   1      -9.652   6.411 132.054  0.00  0.00    -0.454 OA
ATOM      6  C   LIG A   1      -9.021   4.110 132.574  0.00  0.00    +0.105 A 
ATOM      7  C   LIG A   1      -9.015   5.483 132.842  0.00  0.00    +0.146 A 
ATOM      8  C   LIG A   1      -8.343   5.993 133.956  0.00  0.00    +0.092 A 
ATOM      9  C   LIG A   1      -7.673   5.119 134.803  0.00  0.00    +0.124 A 
ATOM     10  C   LIG A   1      -7.665   3.751 134.556  0.00  0.00    +0.091 A 
ATOM     11  C   LIG A   1      -8.339   3.246 133.441  0.00  0.00    +0.135 A 
ENDROOT
BRANCH   4  12
ATOM     12  C   LIG A   1     -10.992   7.044 130.165  0.00  0.00    +0.017 A 
ATOM     13  C   LIG A   1     -12.221   7.576 130.590  0.00  0.00    +0.011 A 
ATOM     14  C   LIG A   1     -12.851   8.588 129.860  0.00  0.00    +0.001 A 
ATOM     15  C   LIG A   1     -12.265   9.076 128.695  0.00  0.00    +0.000 A 
ATOM     16  C   LIG A   1     -11.052   8.551 128.255  0.00  0.00    +0.001 A 
ATOM     17  C   LIG A   1     -10.420   7.541 128.984  0.00  0.00    +0.011 A 
ENDBRANCH   4  12
BRANCH   9  18
ATOM     18  O   LIG A   1      -7.003   5.566 135.903  0.00  0.00    -0.506 OA
ATOM     19  H   LIG A   1      -7.397   5.171 136.700  0.00  0.00    +0.292 HD
ENDBRANCH   9  18
BRANCH  11  20
ATOM     20  O   LIG A   1      -8.317   1.899 133.218  0.00  0.00    -0.506 OA
ATOM     21  H   LIG A   1      -7.479   1.639 132.804  0.00  0.00    +0.292 HD
ENDBRANCH  11  20
TORSDOF 3
ENDMDL
