MODEL 1
REMARK VINA RESULT:      -8.3      0.000      0.000
REMARK  Name = NuBBE_592
REMARK  7 active torsions:
REMARK  status: ('A' for Active; 'I' for Inactive)
REMARK    1  A    between atoms: C_3  and  C_29
REMARK    2  A    between atoms: C_5  and  C_28
REMARK    3  A    between atoms: C_7  and  C_19
REMARK    4  A    between atoms: C_12  and  O_17
REMARK    5  A    between atoms: C_13  and  O_14
REMARK    6  A    between atoms: O_14  and  C_15
REMARK    7  A    between atoms: O_17  and  C_18
REMARK                            x       y       z     vdW  Elec       q    Type
REMARK                         _______ _______ _______ _____ _____    ______ ____
ROOT
ATOM      1  O   LIG A   1      -6.034  -1.713 122.187  0.00  0.00    -0.292 OA
ATOM      2  C   LIG A   1      -6.742  -1.864 123.177  0.00  0.00    +0.167 C 
ATOM      3  C   LIG A   1      -7.069  -3.255 123.701  0.00  0.00    +0.061 C 
ATOM      4  C   LIG A   1      -8.338  -3.295 124.575  0.00  0.00    +0.008 C 
ATOM      5  C   LIG A   1      -8.429  -2.158 125.623  0.00  0.00    +0.053 C 
ATOM      6  C   LIG A   1      -8.030  -0.808 125.064  0.00  0.00    -0.025 A 
ATOM      7  C   LIG A   1      -7.248  -0.675 123.917  0.00  0.00    +0.025 A 
ATOM      8  C   LIG A   1      -6.931   0.603 123.440  0.00  0.00    +0.061 A 
ATOM      9  C   LIG A   1      -7.372   1.758 124.103  0.00  0.00    +0.162 A 
ATOM     10  C   LIG A   1      -8.169   1.637 125.250  0.00  0.00    +0.162 A 
ATOM     11  C   LIG A   1      -8.485   0.356 125.720  0.00  0.00    +0.054 A 
ATOM     12  C   LIG A   1      -9.584  -3.257 123.661  0.00  0.00    +0.009 C 
ATOM     13  C   LIG A   1      -5.830  -3.842 124.374  0.00  0.00    +0.016 C 
ENDROOT
BRANCH   5  14
ATOM     14  C   LIG A   1      -7.782  -2.486 126.968  0.00  0.00    -0.036 A 
ATOM     15  C   LIG A   1      -8.431  -3.257 127.963  0.00  0.00    +0.008 A 
ATOM     16  C   LIG A   1      -7.791  -3.585 129.164  0.00  0.00    +0.050 A 
ATOM     17  C   LIG A   1      -6.496  -3.156 129.340  0.00  0.00    +0.166 A 
ATOM     18  O   LIG A   1      -5.712  -3.411 130.421  0.00  0.00    -0.453 OA
ATOM     19  C   LIG A   1      -4.484  -2.769 130.021  0.00  0.00    +0.466 C 
ATOM     20  O   LIG A   1      -4.570  -2.112 128.739  0.00  0.00    -0.453 OA
ATOM     21  C   LIG A   1      -5.849  -2.413 128.384  0.00  0.00    +0.167 A 
ATOM     22  C   LIG A   1      -6.462  -2.052 127.203  0.00  0.00    +0.053 A 
ENDBRANCH   5  14
BRANCH  10  23
ATOM     23  O   LIG A   1      -8.693   2.769 125.816  0.00  0.00    -0.491 OA
ATOM     24  C   LIG A   1      -7.901   3.386 126.829  0.00  0.00    +0.277 C 
ENDBRANCH  10  23
BRANCH   9  25
ATOM     25  O   LIG A   1      -6.973   2.915 123.490  0.00  0.00    -0.491 OA
ATOM     26  C   LIG A   1      -7.383   3.125 122.145  0.00  0.00    +0.277 C 
ENDBRANCH   9  25
TORSDOF 3
ENDMDL
MODEL 2
REMARK VINA RESULT:      -8.3      0.730      1.375
REMARK  Name = NuBBE_592
REMARK  7 active torsions:
REMARK  status: ('A' for Active; 'I' for Inactive)
REMARK    1  A    between atoms: C_3  and  C_29
REMARK    2  A    between atoms: C_5  and  C_28
REMARK    3  A    between atoms: C_7  and  C_19
REMARK    4  A    between atoms: C_12  and  O_17
REMARK    5  A    between atoms: C_13  and  O_14
REMARK    6  A    between atoms: O_14  and  C_15
REMARK    7  A    between atoms: O_17  and  C_18
REMARK                            x       y       z     vdW  Elec       q    Type
REMARK                         _______ _______ _______ _____ _____    ______ ____
ROOT
ATOM      1  O   LIG A   1      -6.096  -1.773 122.072  0.00  0.00    -0.292 OA
ATOM      2  C   LIG A   1      -6.657  -1.921 123.152  0.00  0.00    +0.167 C 
ATOM      3  C   LIG A   1      -6.793  -3.300 123.781  0.00  0.00    +0.061 C 
ATOM      4  C   LIG A   1      -7.932  -3.389 124.815  0.00  0.00    +0.008 C 
ATOM      5  C   LIG A   1      -7.989  -2.203 125.809  0.00  0.00    +0.053 C 
ATOM      6  C   LIG A   1      -7.782  -0.861 125.138  0.00  0.00    -0.025 A 
ATOM      7  C   LIG A   1      -7.166  -0.734 123.893  0.00  0.00    +0.025 A 
ATOM      8  C   LIG A   1      -7.024   0.534 123.317  0.00  0.00    +0.061 A 
ATOM      9  C   LIG A   1      -7.477   1.687 123.975  0.00  0.00    +0.162 A 
ATOM     10  C   LIG A   1      -8.108   1.571 125.221  0.00  0.00    +0.162 A 
ATOM     11  C   LIG A   1      -8.249   0.299 125.790  0.00  0.00    +0.054 A 
ATOM     12  C   LIG A   1      -9.282  -3.505 124.072  0.00  0.00    +0.009 C 
ATOM     13  C   LIG A   1      -5.432  -3.746 124.313  0.00  0.00    +0.016 C 
ENDROOT
BRANCH   5  14
ATOM     14  C   LIG A   1      -7.149  -2.398 127.072  0.00  0.00    -0.036 A 
ATOM     15  C   LIG A   1      -5.779  -2.045 127.143  0.00  0.00    +0.008 A 
ATOM     16  C   LIG A   1      -5.051  -2.186 128.329  0.00  0.00    +0.050 A 
ATOM     17  C   LIG A   1      -5.714  -2.656 129.439  0.00  0.00    +0.166 A 
ATOM     18  O   LIG A   1      -5.178  -2.821 130.677  0.00  0.00    -0.453 OA
ATOM     19  C   LIG A   1      -6.333  -3.276 131.412  0.00  0.00    +0.466 C 
ATOM     20  O   LIG A   1      -7.516  -3.414 130.596  0.00  0.00    -0.453 OA
ATOM     21  C   LIG A   1      -7.043  -2.997 129.390  0.00  0.00    +0.167 A 
ATOM     22  C   LIG A   1      -7.780  -2.894 128.229  0.00  0.00    +0.053 A 
ENDBRANCH   5  14
BRANCH  10  23
ATOM     23  O   LIG A   1      -8.652   2.690 125.796  0.00  0.00    -0.491 OA
ATOM     24  C   LIG A   1      -7.792   3.434 126.656  0.00  0.00    +0.277 C 
ENDBRANCH  10  23
BRANCH   9  25
ATOM     25  O   LIG A   1      -7.261   2.834 123.260  0.00  0.00    -0.491 OA
ATOM     26  C   LIG A   1      -8.191   3.159 122.236  0.00  0.00    +0.277 C 
ENDBRANCH   9  25
TORSDOF 3
ENDMDL
MODEL 3
REMARK VINA RESULT:      -7.2      1.860      6.050
REMARK  Name = NuBBE_592
REMARK  7 active torsions:
REMARK  status: ('A' for Active; 'I' for Inactive)
REMARK    1  A    between atoms: C_3  and  C_29
REMARK    2  A    between atoms: C_5  and  C_28
REMARK    3  A    between atoms: C_7  and  C_19
REMARK    4  A    between atoms: C_12  and  O_17
REMARK    5  A    between atoms: C_13  and  O_14
REMARK    6  A    between atoms: O_14  and  C_15
REMARK    7  A    between atoms: O_17  and  C_18
REMARK                            x       y       z     vdW  Elec       q    Type
REMARK                         _______ _______ _______ _____ _____    ______ ____
ROOT
ATOM      1  O   LIG A   1      -9.825  -3.372 123.818  0.00  0.00    -0.292 OA
ATOM      2  C   LIG A   1      -8.943  -2.529 123.942  0.00  0.00    +0.167 C 
ATOM      3  C   LIG A   1      -8.562  -1.618 122.784  0.00  0.00    +0.061 C 
ATOM      4  C   LIG A   1      -7.149  -1.017 122.920  0.00  0.00    +0.008 C 
ATOM      5  C   LIG A   1      -6.822  -0.463 124.328  0.00  0.00    +0.053 C 
ATOM      6  C   LIG A   1      -7.283  -1.378 125.444  0.00  0.00    -0.025 A 
ATOM      7  C   LIG A   1      -8.269  -2.348 125.257  0.00  0.00    +0.025 A 
ATOM      8  C   LIG A   1      -8.635  -3.177 126.325  0.00  0.00    +0.061 A 
ATOM      9  C   LIG A   1      -8.039  -3.044 127.588  0.00  0.00    +0.162 A 
ATOM     10  C   LIG A   1      -7.039  -2.081 127.784  0.00  0.00    +0.162 A 
ATOM     11  C   LIG A   1      -6.675  -1.257 126.712  0.00  0.00    +0.054 A 
ATOM     12  C   LIG A   1      -6.104  -2.087 122.530  0.00  0.00    +0.009 C 
ATOM     13  C   LIG A   1      -9.663  -0.581 122.577  0.00  0.00    +0.016 C 
ENDROOT
BRANCH   5  14
ATOM     14  C   LIG A   1      -7.206   1.003 124.534  0.00  0.00    -0.036 A 
ATOM     15  C   LIG A   1      -8.529   1.413 124.832  0.00  0.00    +0.008 A 
ATOM     16  C   LIG A   1      -8.839   2.757 125.067  0.00  0.00    +0.050 A 
ATOM     17  C   LIG A   1      -7.812   3.671 125.026  0.00  0.00    +0.166 A 
ATOM     18  O   LIG A   1      -7.921   5.005 125.264  0.00  0.00    -0.453 OA
ATOM     19  C   LIG A   1      -6.545   5.416 125.133  0.00  0.00    +0.466 C 
ATOM     20  O   LIG A   1      -5.654   4.337 124.780  0.00  0.00    -0.453 OA
ATOM     21  C   LIG A   1      -6.523   3.290 124.746  0.00  0.00    +0.167 A 
ATOM     22  C   LIG A   1      -6.191   1.978 124.484  0.00  0.00    +0.053 A 
ENDBRANCH   5  14
BRANCH  10  23
ATOM     23  O   LIG A   1      -6.381  -2.043 128.986  0.00  0.00    -0.491 OA
ATOM     24  C   LIG A   1      -5.094  -2.655 129.015  0.00  0.00    +0.277 C 
ENDBRANCH  10  23
BRANCH   9  25
ATOM     25  O   LIG A   1      -8.515  -3.942 128.504  0.00  0.00    -0.491 OA
ATOM     26  C   LIG A   1      -9.871  -4.350 128.386  0.00  0.00    +0.277 C 
ENDBRANCH   9  25
TORSDOF 3
ENDMDL
MODEL 4
REMARK VINA RESULT:      -7.2      7.054     10.640
REMARK  Name = NuBBE_592
REMARK  7 active torsions:
REMARK  status: ('A' for Active; 'I' for Inactive)
REMARK    1  A    between atoms: C_3  and  C_29
REMARK    2  A    between atoms: C_5  and  C_28
REMARK    3  A    between atoms: C_7  and  C_19
REMARK    4  A    between atoms: C_12  and  O_17
REMARK    5  A    between atoms: C_13  and  O_14
REMARK    6  A    between atoms: O_14  and  C_15
REMARK    7  A    between atoms: O_17  and  C_18
REMARK                            x       y       z     vdW  Elec       q    Type
REMARK                         _______ _______ _______ _____ _____    ______ ____
ROOT
ATOM      1  O   LIG A   1      -4.400   4.366 134.972  0.00  0.00    -0.292 OA
ATOM      2  C   LIG A   1      -4.215   5.080 133.993  0.00  0.00    +0.167 C 
ATOM      3  C   LIG A   1      -2.806   5.441 133.543  0.00  0.00    +0.061 C 
ATOM      4  C   LIG A   1      -2.752   6.713 132.673  0.00  0.00    +0.008 C 
ATOM      5  C   LIG A   1      -3.834   6.780 131.568  0.00  0.00    +0.053 C 
ATOM      6  C   LIG A   1      -5.201   6.347 132.054  0.00  0.00    -0.025 A 
ATOM      7  C   LIG A   1      -5.375   5.559 133.193  0.00  0.00    +0.025 A 
ATOM      8  C   LIG A   1      -6.669   5.211 133.602  0.00  0.00    +0.061 A 
ATOM      9  C   LIG A   1      -7.797   5.626 132.880  0.00  0.00    +0.162 A 
ATOM     10  C   LIG A   1      -7.635   6.429 131.742  0.00  0.00    +0.162 A 
ATOM     11  C   LIG A   1      -6.340   6.776 131.340  0.00  0.00    +0.054 A 
ATOM     12  C   LIG A   1      -2.867   7.955 133.586  0.00  0.00    +0.009 C 
ATOM     13  C   LIG A   1      -2.155   4.218 132.900  0.00  0.00    +0.016 C 
ENDROOT
BRANCH   5  14
ATOM     14  C   LIG A   1      -3.421   6.143 130.241  0.00  0.00    -0.036 A 
ATOM     15  C   LIG A   1      -2.688   6.843 129.251  0.00  0.00    +0.008 A 
ATOM     16  C   LIG A   1      -2.279   6.217 128.068  0.00  0.00    +0.050 A 
ATOM     17  C   LIG A   1      -2.588   4.887 127.905  0.00  0.00    +0.166 A 
ATOM     18  O   LIG A   1      -2.242   4.112 126.843  0.00  0.00    -0.453 OA
ATOM     19  C   LIG A   1      -2.781   2.838 127.251  0.00  0.00    +0.466 C 
ATOM     20  O   LIG A   1      -3.471   2.885 128.518  0.00  0.00    -0.453 OA
ATOM     21  C   LIG A   1      -3.292   4.191 128.856  0.00  0.00    +0.167 A 
ATOM     22  C   LIG A   1      -3.731   4.788 130.019  0.00  0.00    +0.053 A 
ENDBRANCH   5  14
BRANCH  10  23
ATOM     23  O   LIG A   1      -8.749   6.927 131.117  0.00  0.00    -0.491 OA
ATOM     24  C   LIG A   1      -9.281   6.133 130.059  0.00  0.00    +0.277 C 
ENDBRANCH  10  23
BRANCH   9  25
ATOM     25  O   LIG A   1      -8.975   5.199 133.430  0.00  0.00    -0.491 OA
ATOM     26  C   LIG A   1      -9.023   3.873 133.940  0.00  0.00    +0.277 C 
ENDBRANCH   9  25
TORSDOF 3
ENDMDL
MODEL 5
REMARK VINA RESULT:      -7.2      2.262      4.823
REMARK  Name = NuBBE_592
REMARK  7 active torsions:
REMARK  status: ('A' for Active; 'I' for Inactive)
REMARK    1  A    between atoms: C_3  and  C_29
REMARK    2  A    between atoms: C_5  and  C_28
REMARK    3  A    between atoms: C_7  and  C_19
REMARK    4  A    between atoms: C_12  and  O_17
REMARK    5  A    between atoms: C_13  and  O_14
REMARK    6  A    between atoms: O_14  and  C_15
REMARK    7  A    between atoms: O_17  and  C_18
REMARK                            x       y       z     vdW  Elec       q    Type
REMARK                         _______ _______ _______ _____ _____    ______ ____
ROOT
ATOM      1  O   LIG A   1      -9.033   0.935 126.729  0.00  0.00    -0.292 OA
ATOM      2  C   LIG A   1      -7.971   0.423 127.068  0.00  0.00    +0.167 C 
ATOM      3  C   LIG A   1      -7.243   0.891 128.320  0.00  0.00    +0.061 C 
ATOM      4  C   LIG A   1      -5.740   0.546 128.316  0.00  0.00    +0.008 C 
ATOM      5  C   LIG A   1      -5.417  -0.900 127.867  0.00  0.00    +0.053 C 
ATOM      6  C   LIG A   1      -6.219  -1.336 126.658  0.00  0.00    -0.025 A 
ATOM      7  C   LIG A   1      -7.408  -0.709 126.284  0.00  0.00    +0.025 A 
ATOM      8  C   LIG A   1      -8.091  -1.147 125.142  0.00  0.00    +0.061 A 
ATOM      9  C   LIG A   1      -7.611  -2.216 124.371  0.00  0.00    +0.162 A 
ATOM     10  C   LIG A   1      -6.411  -2.845 124.730  0.00  0.00    +0.162 A 
ATOM     11  C   LIG A   1      -5.731  -2.401 125.872  0.00  0.00    +0.054 A 
ATOM     12  C   LIG A   1      -4.993   1.548 127.407  0.00  0.00    +0.009 C 
ATOM     13  C   LIG A   1      -7.993   0.394 129.554  0.00  0.00    +0.016 C 
ENDROOT
BRANCH   5  14
ATOM     14  C   LIG A   1      -5.405  -1.925 129.001  0.00  0.00    -0.036 A 
ATOM     15  C   LIG A   1      -6.422  -2.897 129.166  0.00  0.00    +0.008 A 
ATOM     16  C   LIG A   1      -6.357  -3.856 130.183  0.00  0.00    +0.050 A 
ATOM     17  C   LIG A   1      -5.256  -3.843 131.008  0.00  0.00    +0.166 A 
ATOM     18  O   LIG A   1      -5.008  -4.716 132.020  0.00  0.00    -0.453 OA
ATOM     19  C   LIG A   1      -3.721  -4.246 132.472  0.00  0.00    +0.466 C 
ATOM     20  O   LIG A   1      -3.249  -3.086 131.756  0.00  0.00    -0.453 OA
ATOM     21  C   LIG A   1      -4.258  -2.912 130.860  0.00  0.00    +0.167 A 
ATOM     22  C   LIG A   1      -4.308  -1.939 129.884  0.00  0.00    +0.053 A 
ENDBRANCH   5  14
BRANCH  10  23
ATOM     23  O   LIG A   1      -5.891  -3.806 123.902  0.00  0.00    -0.491 OA
ATOM     24  C   LIG A   1      -4.528  -3.633 123.522  0.00  0.00    +0.277 C 
ENDBRANCH  10  23
BRANCH   9  25
ATOM     25  O   LIG A   1      -8.403  -2.498 123.291  0.00  0.00    -0.491 OA
ATOM     26  C   LIG A   1      -9.556  -3.300 123.510  0.00  0.00    +0.277 C 
ENDBRANCH   9  25
TORSDOF 3
ENDMDL
MODEL 6
REMARK VINA RESULT:      -7.1      2.531      5.711
REMARK  Name = NuBBE_592
REMARK  7 active torsions:
REMARK  status: ('A' for Active; 'I' for Inactive)
REMARK    1  A    between atoms: C_3  and  C_29
REMARK    2  A    between atoms: C_5  and  C_28
REMARK    3  A    between atoms: C_7  and  C_19
REMARK    4  A    between atoms: C_12  and  O_17
REMARK    5  A    between atoms: C_13  and  O_14
REMARK    6  A    between atoms: O_14  and  C_15
REMARK    7  A    between atoms: O_17  and  C_18
REMARK                            x       y       z     vdW  Elec       q    Type
REMARK                         _______ _______ _______ _____ _____    ______ ____
ROOT
ATOM      1  O   LIG A   1      -8.658  -0.594 131.508  0.00  0.00    -0.292 OA
ATOM      2  C   LIG A   1      -7.915  -0.609 130.533  0.00  0.00    +0.167 C 
ATOM      3  C   LIG A   1      -7.068  -1.833 130.214  0.00  0.00    +0.061 C 
ATOM      4  C   LIG A   1      -5.852  -1.516 129.320  0.00  0.00    +0.008 C 
ATOM      5  C   LIG A   1      -6.166  -0.600 128.113  0.00  0.00    +0.053 C 
ATOM      6  C   LIG A   1      -7.066   0.564 128.474  0.00  0.00    -0.025 A 
ATOM      7  C   LIG A   1      -7.876   0.559 129.611  0.00  0.00    +0.025 A 
ATOM      8  C   LIG A   1      -8.670   1.676 129.900  0.00  0.00    +0.061 A 
ATOM      9  C   LIG A   1      -8.679   2.799 129.060  0.00  0.00    +0.162 A 
ATOM     10  C   LIG A   1      -7.860   2.821 127.923  0.00  0.00    +0.162 A 
ATOM     11  C   LIG A   1      -7.067   1.702 127.641  0.00  0.00    +0.054 A 
ATOM     12  C   LIG A   1      -4.744  -0.873 130.184  0.00  0.00    +0.009 C 
ATOM     13  C   LIG A   1      -7.969  -2.940 129.670  0.00  0.00    +0.016 C 
ENDROOT
BRANCH   5  14
ATOM     14  C   LIG A   1      -6.599  -1.345 126.850  0.00  0.00    -0.036 A 
ATOM     15  C   LIG A   1      -5.679  -2.006 125.999  0.00  0.00    +0.008 A 
ATOM     16  C   LIG A   1      -6.111  -2.725 124.879  0.00  0.00    +0.050 A 
ATOM     17  C   LIG A   1      -7.464  -2.792 124.640  0.00  0.00    +0.166 A 
ATOM     18  O   LIG A   1      -8.062  -3.471 123.626  0.00  0.00    -0.453 OA
ATOM     19  C   LIG A   1      -9.453  -3.223 123.918  0.00  0.00    +0.466 C 
ATOM     20  O   LIG A   1      -9.656  -2.372 125.066  0.00  0.00    -0.453 OA
ATOM     21  C   LIG A   1      -8.370  -2.162 125.457  0.00  0.00    +0.167 A 
ATOM     22  C   LIG A   1      -7.973  -1.425 126.553  0.00  0.00    +0.053 A 
ENDBRANCH   5  14
BRANCH  10  23
ATOM     23  O   LIG A   1      -7.788   3.970 127.179  0.00  0.00    -0.491 OA
ATOM     24  C   LIG A   1      -7.868   3.807 125.765  0.00  0.00    +0.277 C 
ENDBRANCH  10  23
BRANCH   9  25
ATOM     25  O   LIG A   1      -9.507   3.795 129.504  0.00  0.00    -0.491 OA
ATOM     26  C   LIG A   1     -10.214   3.574 130.717  0.00  0.00    +0.277 C 
ENDBRANCH   9  25
TORSDOF 3
ENDMDL
MODEL 7
REMARK VINA RESULT:      -7.0      3.115      5.645
REMARK  Name = NuBBE_592
REMARK  7 active torsions:
REMARK  status: ('A' for Active; 'I' for Inactive)
REMARK    1  A    between atoms: C_3  and  C_29
REMARK    2  A    between atoms: C_5  and  C_28
REMARK    3  A    between atoms: C_7  and  C_19
REMARK    4  A    between atoms: C_12  and  O_17
REMARK    5  A    between atoms: C_13  and  O_14
REMARK    6  A    between atoms: O_14  and  C_15
REMARK    7  A    between atoms: O_17  and  C_18
REMARK                            x       y       z     vdW  Elec       q    Type
REMARK                         _______ _______ _______ _____ _____    ______ ____
ROOT
ATOM      1  O   LIG A   1      -5.035   4.794 123.432  0.00  0.00    -0.292 OA
ATOM      2  C   LIG A   1      -5.706   3.973 124.046  0.00  0.00    +0.167 C 
ATOM      3  C   LIG A   1      -7.009   3.439 123.468  0.00  0.00    +0.061 C 
ATOM      4  C   LIG A   1      -7.957   2.858 124.537  0.00  0.00    +0.008 C 
ATOM      5  C   LIG A   1      -7.268   1.935 125.570  0.00  0.00    +0.053 C 
ATOM      6  C   LIG A   1      -5.944   2.484 126.062  0.00  0.00    -0.025 A 
ATOM      7  C   LIG A   1      -5.222   3.442 125.350  0.00  0.00    +0.025 A 
ATOM      8  C   LIG A   1      -4.014   3.925 125.869  0.00  0.00    +0.061 A 
ATOM      9  C   LIG A   1      -3.506   3.453 127.089  0.00  0.00    +0.162 A 
ATOM     10  C   LIG A   1      -4.229   2.500 127.818  0.00  0.00    +0.162 A 
ATOM     11  C   LIG A   1      -5.437   2.023 127.295  0.00  0.00    +0.054 A 
ATOM     12  C   LIG A   1      -8.664   4.020 125.271  0.00  0.00    +0.009 C 
ATOM     13  C   LIG A   1      -6.695   2.476 122.325  0.00  0.00    +0.016 C 
ENDROOT
BRANCH   5  14
ATOM     14  C   LIG A   1      -7.212   0.462 125.163  0.00  0.00    -0.036 A 
ATOM     15  C   LIG A   1      -5.993  -0.242 125.002  0.00  0.00    +0.008 A 
ATOM     16  C   LIG A   1      -5.975  -1.603 124.680  0.00  0.00    +0.050 A 
ATOM     17  C   LIG A   1      -7.183  -2.249 124.549  0.00  0.00    +0.166 A 
ATOM     18  O   LIG A   1      -7.356  -3.569 124.276  0.00  0.00    -0.453 OA
ATOM     19  C   LIG A   1      -8.795  -3.666 124.313  0.00  0.00    +0.466 C 
ATOM     20  O   LIG A   1      -9.450  -2.404 124.562  0.00  0.00    -0.453 OA
ATOM     21  C   LIG A   1      -8.374  -1.584 124.706  0.00  0.00    +0.167 A 
ATOM     22  C   LIG A   1      -8.423  -0.237 124.998  0.00  0.00    +0.053 A 
ENDBRANCH   5  14
BRANCH  10  23
ATOM     23  O   LIG A   1      -3.782   2.137 129.063  0.00  0.00    -0.491 OA
ATOM     24  C   LIG A   1      -4.401   2.796 130.166  0.00  0.00    +0.277 C 
ENDBRANCH  10  23
BRANCH   9  25
ATOM     25  O   LIG A   1      -2.322   4.042 127.441  0.00  0.00    -0.491 OA
ATOM     26  C   LIG A   1      -2.381   5.299 128.102  0.00  0.00    +0.277 C 
ENDBRANCH   9  25
TORSDOF 3
ENDMDL
MODEL 8
REMARK VINA RESULT:      -7.0      7.296      9.975
REMARK  Name = NuBBE_592
REMARK  7 active torsions:
REMARK  status: ('A' for Active; 'I' for Inactive)
REMARK    1  A    between atoms: C_3  and  C_29
REMARK    2  A    between atoms: C_5  and  C_28
REMARK    3  A    between atoms: C_7  and  C_19
REMARK    4  A    between atoms: C_12  and  O_17
REMARK    5  A    between atoms: C_13  and  O_14
REMARK    6  A    between atoms: O_14  and  C_15
REMARK    7  A    between atoms: O_17  and  C_18
REMARK                            x       y       z     vdW  Elec       q    Type
REMARK                         _______ _______ _______ _____ _____    ______ ____
ROOT
ATOM      1  O   LIG A   1      -5.807   3.332 134.819  0.00  0.00    -0.292 OA
ATOM      2  C   LIG A   1      -6.455   3.345 133.778  0.00  0.00    +0.167 C 
ATOM      3  C   LIG A   1      -7.947   3.045 133.781  0.00  0.00    +0.061 C 
ATOM      4  C   LIG A   1      -8.481   2.592 132.408  0.00  0.00    +0.008 C 
ATOM      5  C   LIG A   1      -7.983   3.444 131.215  0.00  0.00    +0.053 C 
ATOM      6  C   LIG A   1      -6.506   3.769 131.297  0.00  0.00    -0.025 A 
ATOM      7  C   LIG A   1      -5.794   3.713 132.496  0.00  0.00    +0.025 A 
ATOM      8  C   LIG A   1      -4.424   4.005 132.501  0.00  0.00    +0.061 A 
ATOM      9  C   LIG A   1      -3.752   4.367 131.324  0.00  0.00    +0.162 A 
ATOM     10  C   LIG A   1      -4.455   4.414 130.112  0.00  0.00    +0.162 A 
ATOM     11  C   LIG A   1      -5.824   4.118 130.113  0.00  0.00    +0.054 A 
ATOM     12  C   LIG A   1      -8.100   1.111 132.180  0.00  0.00    +0.009 C 
ATOM     13  C   LIG A   1      -8.697   4.232 134.381  0.00  0.00    +0.016 C 
ENDROOT
BRANCH   5  14
ATOM     14  C   LIG A   1      -8.863   4.652 130.892  0.00  0.00    -0.036 A 
ATOM     15  C   LIG A   1      -8.415   5.987 131.040  0.00  0.00    +0.008 A 
ATOM     16  C   LIG A   1      -9.225   7.072 130.686  0.00  0.00    +0.050 A 
ATOM     17  C   LIG A   1     -10.468   6.801 130.162  0.00  0.00    +0.166 A 
ATOM     18  O   LIG A   1     -11.370   7.723 129.732  0.00  0.00    -0.453 OA
ATOM     19  C   LIG A   1     -12.427   6.864 129.255  0.00  0.00    +0.466 C 
ATOM     20  O   LIG A   1     -12.157   5.459 129.447  0.00  0.00    -0.453 OA
ATOM     21  C   LIG A   1     -10.917   5.513 130.005  0.00  0.00    +0.167 A 
ATOM     22  C   LIG A   1     -10.151   4.425 130.370  0.00  0.00    +0.053 A 
ENDBRANCH   5  14
BRANCH  10  23
ATOM     23  O   LIG A   1      -3.763   4.650 128.953  0.00  0.00    -0.491 OA
ATOM     24  C   LIG A   1      -3.656   6.016 128.555  0.00  0.00    +0.277 C 
ENDBRANCH  10  23
BRANCH   9  25
ATOM     25  O   LIG A   1      -2.419   4.608 131.518  0.00  0.00    -0.491 OA
ATOM     26  C   LIG A   1      -1.861   4.255 132.777  0.00  0.00    +0.277 C 
ENDBRANCH   9  25
TORSDOF 3
ENDMDL
MODEL 9
REMARK VINA RESULT:      -6.9      3.457      5.178
REMARK  Name = NuBBE_592
REMARK  7 active torsions:
REMARK  status: ('A' for Active; 'I' for Inactive)
REMARK    1  A    between atoms: C_3  and  C_29
REMARK    2  A    between atoms: C_5  and  C_28
REMARK    3  A    between atoms: C_7  and  C_19
REMARK    4  A    between atoms: C_12  and  O_17
REMARK    5  A    between atoms: C_13  and  O_14
REMARK    6  A    between atoms: O_14  and  C_15
REMARK    7  A    between atoms: O_17  and  C_18
REMARK                            x       y       z     vdW  Elec       q    Type
REMARK                         _______ _______ _______ _____ _____    ______ ____
ROOT
ATOM      1  O   LIG A   1      -7.273  -0.217 126.549  0.00  0.00    -0.292 OA
ATOM      2  C   LIG A   1      -7.289  -0.884 127.577  0.00  0.00    +0.167 C 
ATOM      3  C   LIG A   1      -6.794  -2.323 127.584  0.00  0.00    +0.061 C 
ATOM      4  C   LIG A   1      -7.351  -3.154 128.757  0.00  0.00    +0.008 C 
ATOM      5  C   LIG A   1      -7.307  -2.436 130.128  0.00  0.00    +0.053 C 
ATOM      6  C   LIG A   1      -7.748  -0.989 130.050  0.00  0.00    -0.025 A 
ATOM      7  C   LIG A   1      -7.745  -0.270 128.854  0.00  0.00    +0.025 A 
ATOM      8  C   LIG A   1      -8.185   1.060 128.846  0.00  0.00    +0.061 A 
ATOM      9  C   LIG A   1      -8.616   1.692 130.022  0.00  0.00    +0.162 A 
ATOM     10  C   LIG A   1      -8.634   0.976 131.226  0.00  0.00    +0.162 A 
ATOM     11  C   LIG A   1      -8.196  -0.355 131.228  0.00  0.00    +0.054 A 
ATOM     12  C   LIG A   1      -8.804  -3.570 128.437  0.00  0.00    +0.009 C 
ATOM     13  C   LIG A   1      -5.270  -2.330 127.484  0.00  0.00    +0.016 C 
ENDROOT
BRANCH   5  14
ATOM     14  C   LIG A   1      -6.009  -2.645 130.909  0.00  0.00    -0.036 A 
ATOM     15  C   LIG A   1      -5.060  -1.612 131.106  0.00  0.00    +0.008 A 
ATOM     16  C   LIG A   1      -3.906  -1.819 131.871  0.00  0.00    +0.050 A 
ATOM     17  C   LIG A   1      -3.732  -3.055 132.450  0.00  0.00    +0.166 A 
ATOM     18  O   LIG A   1      -2.696  -3.422 133.249  0.00  0.00    -0.453 OA
ATOM     19  C   LIG A   1      -3.078  -4.772 133.584  0.00  0.00    +0.466 C 
ATOM     20  O   LIG A   1      -4.303  -5.197 132.949  0.00  0.00    -0.453 OA
ATOM     21  C   LIG A   1      -4.644  -4.066 132.274  0.00  0.00    +0.167 A 
ATOM     22  C   LIG A   1      -5.777  -3.899 131.505  0.00  0.00    +0.053 A 
ENDBRANCH   5  14
BRANCH  10  23
ATOM     23  O   LIG A   1      -9.171   1.566 132.341  0.00  0.00    -0.491 OA
ATOM     24  C   LIG A   1      -8.277   2.358 133.121  0.00  0.00    +0.277 C 
ENDBRANCH  10  23
BRANCH   9  25
ATOM     25  O   LIG A   1      -9.015   2.986 129.821  0.00  0.00    -0.491 OA
ATOM     26  C   LIG A   1      -8.004   3.971 129.660  0.00  0.00    +0.277 C 
ENDBRANCH   9  25
TORSDOF 3
ENDMDL
