MODEL 1
REMARK VINA RESULT:      -9.2      0.000      0.000
REMARK  Name = NuBBE_1347
REMARK  12 active torsions:
REMARK  status: ('A' for Active; 'I' for Inactive)
REMARK    1  A    between atoms: C_1  and  C_2
REMARK    2  A    between atoms: C_2  and  C_3
REMARK    3  A    between atoms: C_4  and  O_34
REMARK    4  A    between atoms: C_7  and  C_8
REMARK    5  A    between atoms: C_12  and  C_13
REMARK    6  A    between atoms: C_18  and  C_19
REMARK    7  A    between atoms: C_22  and  C_23
REMARK    8  A    between atoms: C_25  and  C_27
REMARK    9  A    between atoms: C_28  and  C_30
REMARK   10  A    between atoms: O_34  and  C_35
REMARK   11  A    between atoms: C_35  and  C_36
REMARK   12  A    between atoms: C_36  and  C_37
REMARK                            x       y       z     vdW  Elec       q    Type
REMARK                         _______ _______ _______ _____ _____    ______ ____
ROOT
ATOM      1  C   LIG A   1      -8.779  -3.676 128.939  0.00  0.00    +0.015 C 
ATOM      2  C   LIG A   1      -7.383  -3.005 129.014  0.00  0.00    +0.005 C 
ATOM      3  C   LIG A   1      -6.450  -4.068 129.627  0.00  0.00    +0.015 C 
ATOM      4  C   LIG A   1      -6.914  -2.642 127.565  0.00  0.00    +0.182 C 
ATOM      5  C   LIG A   1      -5.562  -1.924 127.586  0.00  0.00    +0.046 C 
ATOM      6  C   LIG A   1      -5.614  -0.633 128.408  0.00  0.00    +0.011 C 
ATOM      7  C   LIG A   1      -6.182  -0.782 129.858  0.00  0.00    -0.025 C 
ATOM      8  C   LIG A   1      -5.038  -1.374 130.722  0.00  0.00    +0.012 C 
ATOM      9  C   LIG A   1      -7.475  -1.672 129.843  0.00  0.00    +0.004 C 
ATOM     10  C   LIG A   1      -8.070  -1.791 131.262  0.00  0.00    +0.005 C 
ATOM     11  C   LIG A   1      -8.503  -0.414 131.793  0.00  0.00    +0.008 C 
ATOM     12  C   LIG A   1      -7.425   0.720 131.748  0.00  0.00    -0.019 C 
ATOM     13  C   LIG A   1      -6.462   0.471 132.939  0.00  0.00    +0.012 C 
ATOM     14  C   LIG A   1      -6.654   0.649 130.365  0.00  0.00    +0.006 C 
ATOM     15  C   LIG A   1      -5.554   1.718 130.276  0.00  0.00    +0.031 C 
ATOM     16  C   LIG A   1      -6.023   3.070 130.692  0.00  0.00    -0.026 C 
ATOM     17  C   LIG A   1      -7.153   3.333 131.369  0.00  0.00    -0.063 C 
ATOM     18  C   LIG A   1      -8.105   2.214 131.875  0.00  0.00    -0.005 C 
ATOM     19  C   LIG A   1      -9.418   2.276 131.035  0.00  0.00    +0.016 C 
ATOM     20  C   LIG A   1      -8.535   2.599 133.338  0.00  0.00    +0.012 C 
ATOM     21  C   LIG A   1      -7.526   3.492 134.081  0.00  0.00    +0.008 C 
ATOM     22  C   LIG A   1      -7.214   4.849 133.346  0.00  0.00    -0.025 C 
ATOM     23  C   LIG A   1      -8.122   5.932 133.982  0.00  0.00    +0.012 C 
ATOM     24  C   LIG A   1      -7.533   4.753 131.824  0.00  0.00    +0.024 C 
ATOM     25  C   LIG A   1      -7.000   5.944 130.946  0.00  0.00    -0.004 C 
ATOM     26  C   LIG A   1      -8.177   6.797 130.432  0.00  0.00    +0.008 C 
ATOM     27  C   LIG A   1      -5.954   6.845 131.645  0.00  0.00    -0.011 C 
ATOM     28  C   LIG A   1      -5.120   7.645 130.631  0.00  0.00    +0.008 C 
ATOM     29  C   LIG A   1      -5.020   6.034 132.534  0.00  0.00    +0.004 C 
ATOM     30  C   LIG A   1      -5.724   5.200 133.604  0.00  0.00    +0.007 C 
ENDROOT
BRANCH   4  31
ATOM     31  O   LIG A   1      -7.835  -1.699 126.955  0.00  0.00    -0.461 OA
BRANCH  31  32
ATOM     32  C   LIG A   1      -7.972  -1.675 125.605  0.00  0.00    +0.312 C 
ATOM     33  O   LIG A   1      -7.718  -2.613 124.852  0.00  0.00    -0.251 OA
BRANCH  32  34
ATOM     34  C   LIG A   1      -8.544  -0.343 125.173  0.00  0.00    +0.155 C 
BRANCH  34  35
ATOM     35  C   LIG A   1      -7.902   0.834 125.863  0.00  0.00    -0.037 A 
ATOM     36  C   LIG A   1      -8.549   1.468 126.932  0.00  0.00    +0.004 A 
ATOM     37  C   LIG A   1      -7.969   2.577 127.550  0.00  0.00    +0.000 A 
ATOM     38  C   LIG A   1      -6.742   3.065 127.104  0.00  0.00    +0.000 A 
ATOM     39  C   LIG A   1      -6.087   2.436 126.045  0.00  0.00    +0.000 A 
ATOM     40  C   LIG A   1      -6.664   1.326 125.426  0.00  0.00    +0.004 A 
ENDBRANCH  34  35
ENDBRANCH  32  34
ENDBRANCH  31  32
ENDBRANCH   4  31
TORSDOF 4
ENDMDL
MODEL 2
REMARK VINA RESULT:      -9.1      1.800      3.012
REMARK  Name = NuBBE_1347
REMARK  12 active torsions:
REMARK  status: ('A' for Active; 'I' for Inactive)
REMARK    1  A    between atoms: C_1  and  C_2
REMARK    2  A    between atoms: C_2  and  C_3
REMARK    3  A    between atoms: C_4  and  O_34
REMARK    4  A    between atoms: C_7  and  C_8
REMARK    5  A    between atoms: C_12  and  C_13
REMARK    6  A    between atoms: C_18  and  C_19
REMARK    7  A    between atoms: C_22  and  C_23
REMARK    8  A    between atoms: C_25  and  C_27
REMARK    9  A    between atoms: C_28  and  C_30
REMARK   10  A    between atoms: O_34  and  C_35
REMARK   11  A    between atoms: C_35  and  C_36
REMARK   12  A    between atoms: C_36  and  C_37
REMARK                            x       y       z     vdW  Elec       q    Type
REMARK                         _______ _______ _______ _____ _____    ______ ____
ROOT
ATOM      1  C   LIG A   1      -6.887  -3.687 130.152  0.00  0.00    +0.015 C 
ATOM      2  C   LIG A   1      -6.226  -2.476 129.444  0.00  0.00    +0.005 C 
ATOM      3  C   LIG A   1      -4.708  -2.690 129.597  0.00  0.00    +0.015 C 
ATOM      4  C   LIG A   1      -6.627  -2.491 127.931  0.00  0.00    +0.182 C 
ATOM      5  C   LIG A   1      -6.046  -1.280 127.195  0.00  0.00    +0.046 C 
ATOM      6  C   LIG A   1      -6.525   0.041 127.802  0.00  0.00    +0.011 C 
ATOM      7  C   LIG A   1      -6.319   0.184 129.346  0.00  0.00    -0.025 C 
ATOM      8  C   LIG A   1      -4.825   0.540 129.562  0.00  0.00    +0.012 C 
ATOM      9  C   LIG A   1      -6.756  -1.136 130.074  0.00  0.00    +0.004 C 
ATOM     10  C   LIG A   1      -6.599  -0.992 131.603  0.00  0.00    +0.005 C 
ATOM     11  C   LIG A   1      -7.512   0.119 132.146  0.00  0.00    +0.008 C 
ATOM     12  C   LIG A   1      -7.395   1.518 131.453  0.00  0.00    -0.019 C 
ATOM     13  C   LIG A   1      -6.110   2.188 132.008  0.00  0.00    +0.012 C 
ATOM     14  C   LIG A   1      -7.300   1.313 129.884  0.00  0.00    +0.006 C 
ATOM     15  C   LIG A   1      -7.146   2.653 129.148  0.00  0.00    +0.031 C 
ATOM     16  C   LIG A   1      -8.114   3.687 129.613  0.00  0.00    -0.026 C 
ATOM     17  C   LIG A   1      -8.840   3.627 130.742  0.00  0.00    -0.063 C 
ATOM     18  C   LIG A   1      -8.705   2.466 131.764  0.00  0.00    -0.005 C 
ATOM     19  C   LIG A   1     -10.008   1.611 131.705  0.00  0.00    +0.016 C 
ATOM     20  C   LIG A   1      -8.702   3.110 133.199  0.00  0.00    +0.012 C 
ATOM     21  C   LIG A   1      -8.206   4.566 133.238  0.00  0.00    +0.008 C 
ATOM     22  C   LIG A   1      -9.030   5.546 132.322  0.00  0.00    -0.025 C 
ATOM     23  C   LIG A   1     -10.082   6.238 133.224  0.00  0.00    +0.012 C 
ATOM     24  C   LIG A   1      -9.768   4.771 131.189  0.00  0.00    +0.024 C 
ATOM     25  C   LIG A   1     -10.388   5.665 130.053  0.00  0.00    -0.004 C 
ATOM     26  C   LIG A   1     -11.927   5.632 130.129  0.00  0.00    +0.008 C 
ATOM     27  C   LIG A   1      -9.886   7.129 130.036  0.00  0.00    -0.011 C 
ATOM     28  C   LIG A   1     -10.111   7.793 128.668  0.00  0.00    +0.008 C 
ATOM     29  C   LIG A   1      -8.409   7.219 130.401  0.00  0.00    +0.004 C 
ATOM     30  C   LIG A   1      -8.050   6.606 131.754  0.00  0.00    +0.007 C 
ENDROOT
BRANCH   4  31
ATOM     31  O   LIG A   1      -8.067  -2.367 127.786  0.00  0.00    -0.461 OA
BRANCH  31  32
ATOM     32  C   LIG A   1      -8.768  -3.364 127.188  0.00  0.00    +0.312 C 
ATOM     33  O   LIG A   1      -8.935  -4.488 127.656  0.00  0.00    -0.251 OA
BRANCH  32  34
ATOM     34  C   LIG A   1      -9.363  -2.864 125.890  0.00  0.00    +0.155 C 
BRANCH  34  35
ATOM     35  C   LIG A   1      -8.325  -2.522 124.852  0.00  0.00    -0.037 A 
ATOM     36  C   LIG A   1      -7.326  -3.444 124.517  0.00  0.00    +0.004 A 
ATOM     37  C   LIG A   1      -6.347  -3.115 123.579  0.00  0.00    +0.000 A 
ATOM     38  C   LIG A   1      -6.354  -1.861 122.970  0.00  0.00    +0.000 A 
ATOM     39  C   LIG A   1      -7.349  -0.938 123.291  0.00  0.00    +0.000 A 
ATOM     40  C   LIG A   1      -8.330  -1.265 124.228  0.00  0.00    +0.004 A 
ENDBRANCH  34  35
ENDBRANCH  32  34
ENDBRANCH  31  32
ENDBRANCH   4  31
TORSDOF 4
ENDMDL
MODEL 3
REMARK VINA RESULT:      -9.1      1.799      2.727
REMARK  Name = NuBBE_1347
REMARK  12 active torsions:
REMARK  status: ('A' for Active; 'I' for Inactive)
REMARK    1  A    between atoms: C_1  and  C_2
REMARK    2  A    between atoms: C_2  and  C_3
REMARK    3  A    between atoms: C_4  and  O_34
REMARK    4  A    between atoms: C_7  and  C_8
REMARK    5  A    between atoms: C_12  and  C_13
REMARK    6  A    between atoms: C_18  and  C_19
REMARK    7  A    between atoms: C_22  and  C_23
REMARK    8  A    between atoms: C_25  and  C_27
REMARK    9  A    between atoms: C_28  and  C_30
REMARK   10  A    between atoms: O_34  and  C_35
REMARK   11  A    between atoms: C_35  and  C_36
REMARK   12  A    between atoms: C_36  and  C_37
REMARK                            x       y       z     vdW  Elec       q    Type
REMARK                         _______ _______ _______ _____ _____    ______ ____
ROOT
ATOM      1  C   LIG A   1      -8.190  -3.280 128.722  0.00  0.00    +0.015 C 
ATOM      2  C   LIG A   1      -6.825  -2.884 129.344  0.00  0.00    +0.005 C 
ATOM      3  C   LIG A   1      -6.388  -4.101 130.182  0.00  0.00    +0.015 C 
ATOM      4  C   LIG A   1      -5.799  -2.620 128.193  0.00  0.00    +0.182 C 
ATOM      5  C   LIG A   1      -4.446  -2.169 128.751  0.00  0.00    +0.046 C 
ATOM      6  C   LIG A   1      -4.570  -0.888 129.582  0.00  0.00    +0.011 C 
ATOM      7  C   LIG A   1      -5.651  -0.924 130.714  0.00  0.00    -0.025 C 
ATOM      8  C   LIG A   1      -5.030  -1.719 131.892  0.00  0.00    +0.012 C 
ATOM      9  C   LIG A   1      -6.981  -1.555 130.170  0.00  0.00    +0.004 C 
ATOM     10  C   LIG A   1      -8.070  -1.556 131.265  0.00  0.00    +0.005 C 
ATOM     11  C   LIG A   1      -8.419  -0.121 131.692  0.00  0.00    +0.008 C 
ATOM     12  C   LIG A   1      -7.219   0.790 132.119  0.00  0.00    -0.019 C 
ATOM     13  C   LIG A   1      -6.824   0.368 133.559  0.00  0.00    +0.012 C 
ATOM     14  C   LIG A   1      -6.017   0.571 131.109  0.00  0.00    +0.006 C 
ATOM     15  C   LIG A   1      -4.793   1.414 131.498  0.00  0.00    +0.031 C 
ATOM     16  C   LIG A   1      -5.136   2.831 131.804  0.00  0.00    -0.026 C 
ATOM     17  C   LIG A   1      -6.371   3.304 132.040  0.00  0.00    -0.063 C 
ATOM     18  C   LIG A   1      -7.624   2.386 132.090  0.00  0.00    -0.005 C 
ATOM     19  C   LIG A   1      -8.501   2.692 130.836  0.00  0.00    +0.016 C 
ATOM     20  C   LIG A   1      -8.489   2.849 133.318  0.00  0.00    +0.012 C 
ATOM     21  C   LIG A   1      -7.686   3.538 134.435  0.00  0.00    +0.008 C 
ATOM     22  C   LIG A   1      -6.891   4.811 133.957  0.00  0.00    -0.025 C 
ATOM     23  C   LIG A   1      -7.765   6.046 134.290  0.00  0.00    +0.012 C 
ATOM     24  C   LIG A   1      -6.637   4.771 132.420  0.00  0.00    +0.024 C 
ATOM     25  C   LIG A   1      -5.616   5.839 131.878  0.00  0.00    -0.004 C 
ATOM     26  C   LIG A   1      -6.350   6.896 131.029  0.00  0.00    +0.008 C 
ATOM     27  C   LIG A   1      -4.762   6.529 132.968  0.00  0.00    -0.011 C 
ATOM     28  C   LIG A   1      -3.486   7.154 132.382  0.00  0.00    +0.008 C 
ATOM     29  C   LIG A   1      -4.381   5.559 134.079  0.00  0.00    +0.004 C 
ATOM     30  C   LIG A   1      -5.565   4.876 134.762  0.00  0.00    +0.007 C 
ENDROOT
BRANCH   4  31
ATOM     31  O   LIG A   1      -6.247  -1.522 127.354  0.00  0.00    -0.461 OA
BRANCH  31  32
ATOM     32  C   LIG A   1      -5.632  -1.291 126.166  0.00  0.00    +0.312 C 
ATOM     33  O   LIG A   1      -5.074  -0.242 125.852  0.00  0.00    -0.251 OA
BRANCH  32  34
ATOM     34  C   LIG A   1      -5.681  -2.540 125.314  0.00  0.00    +0.155 C 
BRANCH  34  35
ATOM     35  C   LIG A   1      -6.966  -2.682 124.539  0.00  0.00    -0.037 A 
ATOM     36  C   LIG A   1      -7.153  -1.981 123.340  0.00  0.00    +0.004 A 
ATOM     37  C   LIG A   1      -8.355  -2.088 122.640  0.00  0.00    +0.000 A 
ATOM     38  C   LIG A   1      -9.382  -2.892 123.131  0.00  0.00    +0.000 A 
ATOM     39  C   LIG A   1      -9.204  -3.600 124.318  0.00  0.00    +0.000 A 
ATOM     40  C   LIG A   1      -8.002  -3.495 125.021  0.00  0.00    +0.004 A 
ENDBRANCH  34  35
ENDBRANCH  32  34
ENDBRANCH  31  32
ENDBRANCH   4  31
TORSDOF 4
ENDMDL
MODEL 4
REMARK VINA RESULT:      -9.0      4.441      7.975
REMARK  Name = NuBBE_1347
REMARK  12 active torsions:
REMARK  status: ('A' for Active; 'I' for Inactive)
REMARK    1  A    between atoms: C_1  and  C_2
REMARK    2  A    between atoms: C_2  and  C_3
REMARK    3  A    between atoms: C_4  and  O_34
REMARK    4  A    between atoms: C_7  and  C_8
REMARK    5  A    between atoms: C_12  and  C_13
REMARK    6  A    between atoms: C_18  and  C_19
REMARK    7  A    between atoms: C_22  and  C_23
REMARK    8  A    between atoms: C_25  and  C_27
REMARK    9  A    between atoms: C_28  and  C_30
REMARK   10  A    between atoms: O_34  and  C_35
REMARK   11  A    between atoms: C_35  and  C_36
REMARK   12  A    between atoms: C_36  and  C_37
REMARK                            x       y       z     vdW  Elec       q    Type
REMARK                         _______ _______ _______ _____ _____    ______ ____
ROOT
ATOM      1  C   LIG A   1      -5.439   1.998 132.184  0.00  0.00    +0.015 C 
ATOM      2  C   LIG A   1      -5.128   3.143 131.185  0.00  0.00    +0.005 C 
ATOM      3  C   LIG A   1      -4.522   2.454 129.947  0.00  0.00    +0.015 C 
ATOM      4  C   LIG A   1      -6.465   3.864 130.806  0.00  0.00    +0.182 C 
ATOM      5  C   LIG A   1      -6.208   5.043 129.863  0.00  0.00    +0.046 C 
ATOM      6  C   LIG A   1      -5.268   6.078 130.487  0.00  0.00    +0.011 C 
ATOM      7  C   LIG A   1      -3.919   5.512 131.043  0.00  0.00    -0.025 C 
ATOM      8  C   LIG A   1      -2.992   5.297 129.818  0.00  0.00    +0.012 C 
ATOM      9  C   LIG A   1      -4.182   4.200 131.863  0.00  0.00    +0.004 C 
ATOM     10  C   LIG A   1      -2.864   3.655 132.454  0.00  0.00    +0.005 C 
ATOM     11  C   LIG A   1      -2.248   4.661 133.440  0.00  0.00    +0.008 C 
ATOM     12  C   LIG A   1      -2.045   6.120 132.910  0.00  0.00    -0.019 C 
ATOM     13  C   LIG A   1      -0.780   6.100 132.012  0.00  0.00    +0.012 C 
ATOM     14  C   LIG A   1      -3.325   6.556 132.084  0.00  0.00    +0.006 C 
ATOM     15  C   LIG A   1      -3.170   7.971 131.506  0.00  0.00    +0.031 C 
ATOM     16  C   LIG A   1      -2.674   8.957 132.507  0.00  0.00    -0.026 C 
ATOM     17  C   LIG A   1      -2.113   8.657 133.690  0.00  0.00    -0.063 C 
ATOM     18  C   LIG A   1      -1.844   7.195 134.142  0.00  0.00    -0.005 C 
ATOM     19  C   LIG A   1      -2.824   6.859 135.309  0.00  0.00    +0.016 C 
ATOM     20  C   LIG A   1      -0.411   7.167 134.789  0.00  0.00    +0.012 C 
ATOM     21  C   LIG A   1       0.536   8.266 134.279  0.00  0.00    +0.008 C 
ATOM     22  C   LIG A   1      -0.010   9.728 134.491  0.00  0.00    -0.025 C 
ATOM     23  C   LIG A   1       0.623  10.265 135.800  0.00  0.00    +0.012 C 
ATOM     24  C   LIG A   1      -1.561   9.733 134.640  0.00  0.00    +0.024 C 
ATOM     25  C   LIG A   1      -2.240  11.151 134.574  0.00  0.00    -0.004 C 
ATOM     26  C   LIG A   1      -2.799  11.540 135.957  0.00  0.00    +0.008 C 
ATOM     27  C   LIG A   1      -1.330  12.279 134.030  0.00  0.00    -0.011 C 
ATOM     28  C   LIG A   1      -2.148  13.478 133.523  0.00  0.00    +0.008 C 
ATOM     29  C   LIG A   1      -0.425  11.779 132.911  0.00  0.00    +0.004 C 
ATOM     30  C   LIG A   1       0.460  10.592 133.290  0.00  0.00    +0.007 C 
ENDROOT
BRANCH   4  31
ATOM     31  O   LIG A   1      -7.079   4.449 131.985  0.00  0.00    -0.461 OA
BRANCH  31  32
ATOM     32  C   LIG A   1      -8.431   4.469 132.096  0.00  0.00    +0.312 C 
ATOM     33  O   LIG A   1      -9.167   3.497 131.942  0.00  0.00    -0.251 OA
BRANCH  32  34
ATOM     34  C   LIG A   1      -8.891   5.854 132.498  0.00  0.00    +0.155 C 
BRANCH  34  35
ATOM     35  C   LIG A   1      -9.867   6.464 131.525  0.00  0.00    -0.037 A 
ATOM     36  C   LIG A   1      -9.411   7.064 130.344  0.00  0.00    +0.004 A 
ATOM     37  C   LIG A   1     -10.312   7.657 129.459  0.00  0.00    +0.000 A 
ATOM     38  C   LIG A   1     -11.676   7.660 129.747  0.00  0.00    +0.000 A 
ATOM     39  C   LIG A   1     -12.141   7.060 130.916  0.00  0.00    +0.000 A 
ATOM     40  C   LIG A   1     -11.242   6.465 131.803  0.00  0.00    +0.004 A 
ENDBRANCH  34  35
ENDBRANCH  32  34
ENDBRANCH  31  32
ENDBRANCH   4  31
TORSDOF 4
ENDMDL
MODEL 5
REMARK VINA RESULT:      -8.9      2.581      4.447
REMARK  Name = NuBBE_1347
REMARK  12 active torsions:
REMARK  status: ('A' for Active; 'I' for Inactive)
REMARK    1  A    between atoms: C_1  and  C_2
REMARK    2  A    between atoms: C_2  and  C_3
REMARK    3  A    between atoms: C_4  and  O_34
REMARK    4  A    between atoms: C_7  and  C_8
REMARK    5  A    between atoms: C_12  and  C_13
REMARK    6  A    between atoms: C_18  and  C_19
REMARK    7  A    between atoms: C_22  and  C_23
REMARK    8  A    between atoms: C_25  and  C_27
REMARK    9  A    between atoms: C_28  and  C_30
REMARK   10  A    between atoms: O_34  and  C_35
REMARK   11  A    between atoms: C_35  and  C_36
REMARK   12  A    between atoms: C_36  and  C_37
REMARK                            x       y       z     vdW  Elec       q    Type
REMARK                         _______ _______ _______ _____ _____    ______ ____
ROOT
ATOM      1  C   LIG A   1      -9.711  -2.689 125.183  0.00  0.00    +0.015 C 
ATOM      2  C   LIG A   1      -8.196  -2.379 125.292  0.00  0.00    +0.005 C 
ATOM      3  C   LIG A   1      -7.484  -3.569 124.618  0.00  0.00    +0.015 C 
ATOM      4  C   LIG A   1      -7.890  -1.054 124.517  0.00  0.00    +0.182 C 
ATOM      5  C   LIG A   1      -6.413  -0.670 124.641  0.00  0.00    +0.046 C 
ATOM      6  C   LIG A   1      -5.994  -0.476 126.101  0.00  0.00    +0.011 C 
ATOM      7  C   LIG A   1      -6.338  -1.663 127.062  0.00  0.00    -0.025 C 
ATOM      8  C   LIG A   1      -5.263  -2.754 126.819  0.00  0.00    +0.012 C 
ATOM      9  C   LIG A   1      -7.803  -2.163 126.799  0.00  0.00    +0.004 C 
ATOM     10  C   LIG A   1      -8.170  -3.305 127.771  0.00  0.00    +0.005 C 
ATOM     11  C   LIG A   1      -8.139  -2.816 129.228  0.00  0.00    +0.008 C 
ATOM     12  C   LIG A   1      -6.825  -2.105 129.696  0.00  0.00    -0.019 C 
ATOM     13  C   LIG A   1      -5.780  -3.221 129.960  0.00  0.00    +0.012 C 
ATOM     14  C   LIG A   1      -6.333  -1.120 128.556  0.00  0.00    +0.006 C 
ATOM     15  C   LIG A   1      -5.023  -0.417 128.943  0.00  0.00    +0.031 C 
ATOM     16  C   LIG A   1      -5.050   0.146 130.322  0.00  0.00    -0.026 C 
ATOM     17  C   LIG A   1      -5.948  -0.159 131.274  0.00  0.00    -0.063 C 
ATOM     18  C   LIG A   1      -7.063  -1.220 131.064  0.00  0.00    -0.005 C 
ATOM     19  C   LIG A   1      -8.433  -0.478 130.988  0.00  0.00    +0.016 C 
ATOM     20  C   LIG A   1      -7.136  -2.081 132.378  0.00  0.00    +0.012 C 
ATOM     21  C   LIG A   1      -5.823  -2.127 133.179  0.00  0.00    +0.008 C 
ATOM     22  C   LIG A   1      -5.292  -0.710 133.615  0.00  0.00    -0.025 C 
ATOM     23  C   LIG A   1      -5.772  -0.470 135.068  0.00  0.00    +0.012 C 
ATOM     24  C   LIG A   1      -5.868   0.413 132.700  0.00  0.00    +0.024 C 
ATOM     25  C   LIG A   1      -5.193   1.825 132.860  0.00  0.00    -0.004 C 
ATOM     26  C   LIG A   1      -6.175   2.815 133.517  0.00  0.00    +0.008 C 
ATOM     27  C   LIG A   1      -3.849   1.817 133.629  0.00  0.00    -0.011 C 
ATOM     28  C   LIG A   1      -3.012   3.071 133.328  0.00  0.00    +0.008 C 
ATOM     29  C   LIG A   1      -3.027   0.575 133.307  0.00  0.00    +0.004 C 
ATOM     30  C   LIG A   1      -3.741  -0.749 133.577  0.00  0.00    +0.007 C 
ENDROOT
BRANCH   4  31
ATOM     31  O   LIG A   1      -8.620   0.057 125.103  0.00  0.00    -0.461 OA
BRANCH  31  32
ATOM     32  C   LIG A   1      -9.377   0.855 124.307  0.00  0.00    +0.312 C 
ATOM     33  O   LIG A   1     -10.318   0.474 123.616  0.00  0.00    -0.251 OA
BRANCH  32  34
ATOM     34  C   LIG A   1      -8.925   2.292 124.448  0.00  0.00    +0.155 C 
BRANCH  34  35
ATOM     35  C   LIG A   1      -8.128   2.785 123.268  0.00  0.00    -0.037 A 
ATOM     36  C   LIG A   1      -6.745   2.976 123.375  0.00  0.00    +0.004 A 
ATOM     37  C   LIG A   1      -6.013   3.463 122.292  0.00  0.00    +0.000 A 
ATOM     38  C   LIG A   1      -6.655   3.768 121.093  0.00  0.00    +0.000 A 
ATOM     39  C   LIG A   1      -8.031   3.576 120.973  0.00  0.00    +0.000 A 
ATOM     40  C   LIG A   1      -8.766   3.088 122.055  0.00  0.00    +0.004 A 
ENDBRANCH  34  35
ENDBRANCH  32  34
ENDBRANCH  31  32
ENDBRANCH   4  31
TORSDOF 4
ENDMDL
MODEL 6
REMARK VINA RESULT:      -8.9      2.086      5.473
REMARK  Name = NuBBE_1347
REMARK  12 active torsions:
REMARK  status: ('A' for Active; 'I' for Inactive)
REMARK    1  A    between atoms: C_1  and  C_2
REMARK    2  A    between atoms: C_2  and  C_3
REMARK    3  A    between atoms: C_4  and  O_34
REMARK    4  A    between atoms: C_7  and  C_8
REMARK    5  A    between atoms: C_12  and  C_13
REMARK    6  A    between atoms: C_18  and  C_19
REMARK    7  A    between atoms: C_22  and  C_23
REMARK    8  A    between atoms: C_25  and  C_27
REMARK    9  A    between atoms: C_28  and  C_30
REMARK   10  A    between atoms: O_34  and  C_35
REMARK   11  A    between atoms: C_35  and  C_36
REMARK   12  A    between atoms: C_36  and  C_37
REMARK                            x       y       z     vdW  Elec       q    Type
REMARK                         _______ _______ _______ _____ _____    ______ ____
ROOT
ATOM      1  C   LIG A   1      -6.761   0.290 123.459  0.00  0.00    +0.015 C 
ATOM      2  C   LIG A   1      -7.611   1.164 124.417  0.00  0.00    +0.005 C 
ATOM      3  C   LIG A   1      -8.536   1.993 123.505  0.00  0.00    +0.015 C 
ATOM      4  C   LIG A   1      -8.458   0.228 125.342  0.00  0.00    +0.182 C 
ATOM      5  C   LIG A   1      -9.276   1.040 126.350  0.00  0.00    +0.046 C 
ATOM      6  C   LIG A   1      -8.384   1.910 127.241  0.00  0.00    +0.011 C 
ATOM      7  C   LIG A   1      -7.371   2.831 126.482  0.00  0.00    -0.025 C 
ATOM      8  C   LIG A   1      -8.181   4.051 125.971  0.00  0.00    +0.012 C 
ATOM      9  C   LIG A   1      -6.667   2.026 125.332  0.00  0.00    +0.004 C 
ATOM     10  C   LIG A   1      -5.633   2.912 124.604  0.00  0.00    +0.005 C 
ATOM     11  C   LIG A   1      -4.517   3.355 125.564  0.00  0.00    +0.008 C 
ATOM     12  C   LIG A   1      -4.975   4.037 126.896  0.00  0.00    -0.019 C 
ATOM     13  C   LIG A   1      -5.364   5.497 126.542  0.00  0.00    +0.012 C 
ATOM     14  C   LIG A   1      -6.212   3.243 127.488  0.00  0.00    +0.006 C 
ATOM     15  C   LIG A   1      -6.731   3.888 128.782  0.00  0.00    +0.031 C 
ATOM     16  C   LIG A   1      -5.643   4.213 129.747  0.00  0.00    -0.026 C 
ATOM     17  C   LIG A   1      -4.331   4.256 129.462  0.00  0.00    -0.063 C 
ATOM     18  C   LIG A   1      -3.778   4.031 128.028  0.00  0.00    -0.005 C 
ATOM     19  C   LIG A   1      -3.028   2.664 128.004  0.00  0.00    +0.016 C 
ATOM     20  C   LIG A   1      -2.664   5.114 127.786  0.00  0.00    +0.012 C 
ATOM     21  C   LIG A   1      -2.830   6.393 128.626  0.00  0.00    +0.008 C 
ATOM     22  C   LIG A   1      -2.861   6.137 130.179  0.00  0.00    -0.025 C 
ATOM     23  C   LIG A   1      -1.426   6.384 130.710  0.00  0.00    +0.012 C 
ATOM     24  C   LIG A   1      -3.273   4.669 130.500  0.00  0.00    +0.024 C 
ATOM     25  C   LIG A   1      -3.609   4.377 132.009  0.00  0.00    -0.004 C 
ATOM     26  C   LIG A   1      -2.525   3.477 132.633  0.00  0.00    +0.008 C 
ATOM     27  C   LIG A   1      -3.821   5.639 132.880  0.00  0.00    -0.011 C 
ATOM     28  C   LIG A   1      -4.615   5.323 134.158  0.00  0.00    +0.008 C 
ATOM     29  C   LIG A   1      -4.534   6.741 132.106  0.00  0.00    +0.004 C 
ATOM     30  C   LIG A   1      -3.837   7.164 130.813  0.00  0.00    +0.007 C 
ENDROOT
BRANCH   4  31
ATOM     31  O   LIG A   1      -7.588  -0.611 126.149  0.00  0.00    -0.461 OA
BRANCH  31  32
ATOM     32  C   LIG A   1      -8.059  -1.783 126.646  0.00  0.00    +0.312 C 
ATOM     33  O   LIG A   1      -9.027  -2.399 126.204  0.00  0.00    -0.251 OA
BRANCH  32  34
ATOM     34  C   LIG A   1      -7.178  -2.246 127.785  0.00  0.00    +0.155 C 
BRANCH  34  35
ATOM     35  C   LIG A   1      -6.887  -1.163 128.793  0.00  0.00    -0.037 A 
ATOM     36  C   LIG A   1      -5.630  -0.546 128.828  0.00  0.00    +0.004 A 
ATOM     37  C   LIG A   1      -5.351   0.433 129.781  0.00  0.00    +0.000 A 
ATOM     38  C   LIG A   1      -6.321   0.803 130.711  0.00  0.00    +0.000 A 
ATOM     39  C   LIG A   1      -7.578   0.200 130.680  0.00  0.00    +0.000 A 
ATOM     40  C   LIG A   1      -7.861  -0.780 129.727  0.00  0.00    +0.004 A 
ENDBRANCH  34  35
ENDBRANCH  32  34
ENDBRANCH  31  32
ENDBRANCH   4  31
TORSDOF 4
ENDMDL
MODEL 7
REMARK VINA RESULT:      -8.8      2.643      7.514
REMARK  Name = NuBBE_1347
REMARK  12 active torsions:
REMARK  status: ('A' for Active; 'I' for Inactive)
REMARK    1  A    between atoms: C_1  and  C_2
REMARK    2  A    between atoms: C_2  and  C_3
REMARK    3  A    between atoms: C_4  and  O_34
REMARK    4  A    between atoms: C_7  and  C_8
REMARK    5  A    between atoms: C_12  and  C_13
REMARK    6  A    between atoms: C_18  and  C_19
REMARK    7  A    between atoms: C_22  and  C_23
REMARK    8  A    between atoms: C_25  and  C_27
REMARK    9  A    between atoms: C_28  and  C_30
REMARK   10  A    between atoms: O_34  and  C_35
REMARK   11  A    between atoms: C_35  and  C_36
REMARK   12  A    between atoms: C_36  and  C_37
REMARK                            x       y       z     vdW  Elec       q    Type
REMARK                         _______ _______ _______ _____ _____    ______ ____
ROOT
ATOM      1  C   LIG A   1      -6.127   5.688 134.000  0.00  0.00    +0.015 C 
ATOM      2  C   LIG A   1      -7.194   5.403 132.912  0.00  0.00    +0.005 C 
ATOM      3  C   LIG A   1      -8.535   5.854 133.523  0.00  0.00    +0.015 C 
ATOM      4  C   LIG A   1      -6.863   6.255 131.641  0.00  0.00    +0.182 C 
ATOM      5  C   LIG A   1      -7.856   5.968 130.510  0.00  0.00    +0.046 C 
ATOM      6  C   LIG A   1      -7.852   4.491 130.108  0.00  0.00    +0.011 C 
ATOM      7  C   LIG A   1      -8.045   3.475 131.283  0.00  0.00    -0.025 C 
ATOM      8  C   LIG A   1      -9.561   3.460 131.610  0.00  0.00    +0.012 C 
ATOM      9  C   LIG A   1      -7.149   3.885 132.504  0.00  0.00    +0.004 C 
ATOM     10  C   LIG A   1      -7.297   2.866 133.654  0.00  0.00    +0.005 C 
ATOM     11  C   LIG A   1      -6.815   1.472 133.218  0.00  0.00    +0.008 C 
ATOM     12  C   LIG A   1      -7.439   0.901 131.900  0.00  0.00    -0.019 C 
ATOM     13  C   LIG A   1      -8.859   0.389 132.261  0.00  0.00    +0.012 C 
ATOM     14  C   LIG A   1      -7.506   2.054 130.815  0.00  0.00    +0.006 C 
ATOM     15  C   LIG A   1      -8.145   1.562 129.507  0.00  0.00    +0.031 C 
ATOM     16  C   LIG A   1      -7.588   0.262 129.041  0.00  0.00    -0.026 C 
ATOM     17  C   LIG A   1      -6.850  -0.584 129.781  0.00  0.00    -0.063 C 
ATOM     18  C   LIG A   1      -6.536  -0.329 131.280  0.00  0.00    -0.005 C 
ATOM     19  C   LIG A   1      -5.018   0.006 131.409  0.00  0.00    +0.016 C 
ATOM     20  C   LIG A   1      -6.719  -1.698 132.031  0.00  0.00    +0.012 C 
ATOM     21  C   LIG A   1      -7.693  -2.672 131.346  0.00  0.00    +0.008 C 
ATOM     22  C   LIG A   1      -7.296  -3.035 129.866  0.00  0.00    -0.025 C 
ATOM     23  C   LIG A   1      -6.526  -4.379 129.917  0.00  0.00    +0.012 C 
ATOM     24  C   LIG A   1      -6.370  -1.945 129.248  0.00  0.00    +0.024 C 
ATOM     25  C   LIG A   1      -6.140  -2.056 127.695  0.00  0.00    -0.004 C 
ATOM     26  C   LIG A   1      -4.686  -2.473 127.399  0.00  0.00    +0.008 C 
ATOM     27  C   LIG A   1      -7.126  -2.999 126.962  0.00  0.00    -0.011 C 
ATOM     28  C   LIG A   1      -7.192  -2.695 125.456  0.00  0.00    +0.008 C 
ATOM     29  C   LIG A   1      -8.527  -2.915 127.553  0.00  0.00    +0.004 C 
ATOM     30  C   LIG A   1      -8.604  -3.214 129.050  0.00  0.00    +0.007 C 
ENDROOT
BRANCH   4  31
ATOM     31  O   LIG A   1      -5.564   5.886 131.106  0.00  0.00    -0.461 OA
BRANCH  31  32
ATOM     32  C   LIG A   1      -4.914   6.741 130.276  0.00  0.00    +0.312 C 
ATOM     33  O   LIG A   1      -5.168   7.937 130.154  0.00  0.00    -0.251 OA
BRANCH  32  34
ATOM     34  C   LIG A   1      -3.790   6.013 129.571  0.00  0.00    +0.155 C 
BRANCH  34  35
ATOM     35  C   LIG A   1      -4.219   4.704 128.958  0.00  0.00    -0.037 A 
ATOM     36  C   LIG A   1      -3.796   3.489 129.513  0.00  0.00    +0.004 A 
ATOM     37  C   LIG A   1      -4.167   2.279 128.927  0.00  0.00    +0.000 A 
ATOM     38  C   LIG A   1      -4.959   2.270 127.780  0.00  0.00    +0.000 A 
ATOM     39  C   LIG A   1      -5.391   3.473 127.224  0.00  0.00    +0.000 A 
ATOM     40  C   LIG A   1      -5.022   4.686 127.809  0.00  0.00    +0.004 A 
ENDBRANCH  34  35
ENDBRANCH  32  34
ENDBRANCH  31  32
ENDBRANCH   4  31
TORSDOF 4
ENDMDL
MODEL 8
REMARK VINA RESULT:      -8.7      3.087      8.428
REMARK  Name = NuBBE_1347
REMARK  12 active torsions:
REMARK  status: ('A' for Active; 'I' for Inactive)
REMARK    1  A    between atoms: C_1  and  C_2
REMARK    2  A    between atoms: C_2  and  C_3
REMARK    3  A    between atoms: C_4  and  O_34
REMARK    4  A    between atoms: C_7  and  C_8
REMARK    5  A    between atoms: C_12  and  C_13
REMARK    6  A    between atoms: C_18  and  C_19
REMARK    7  A    between atoms: C_22  and  C_23
REMARK    8  A    between atoms: C_25  and  C_27
REMARK    9  A    between atoms: C_28  and  C_30
REMARK   10  A    between atoms: O_34  and  C_35
REMARK   11  A    between atoms: C_35  and  C_36
REMARK   12  A    between atoms: C_36  and  C_37
REMARK                            x       y       z     vdW  Elec       q    Type
REMARK                         _______ _______ _______ _____ _____    ______ ____
ROOT
ATOM      1  C   LIG A   1      -6.355   7.148 131.024  0.00  0.00    +0.015 C 
ATOM      2  C   LIG A   1      -5.111   6.225 130.947  0.00  0.00    +0.005 C 
ATOM      3  C   LIG A   1      -4.182   6.876 129.903  0.00  0.00    +0.015 C 
ATOM      4  C   LIG A   1      -4.414   6.193 132.348  0.00  0.00    +0.182 C 
ATOM      5  C   LIG A   1      -3.208   5.249 132.343  0.00  0.00    +0.046 C 
ATOM      6  C   LIG A   1      -3.606   3.816 131.974  0.00  0.00    +0.011 C 
ATOM      7  C   LIG A   1      -4.429   3.667 130.652  0.00  0.00    -0.025 C 
ATOM      8  C   LIG A   1      -3.412   3.766 129.485  0.00  0.00    +0.012 C 
ATOM      9  C   LIG A   1      -5.555   4.760 130.590  0.00  0.00    +0.004 C 
ATOM     10  C   LIG A   1      -6.402   4.595 129.311  0.00  0.00    +0.005 C 
ATOM     11  C   LIG A   1      -7.122   3.237 129.300  0.00  0.00    +0.008 C 
ATOM     12  C   LIG A   1      -6.226   1.973 129.525  0.00  0.00    -0.019 C 
ATOM     13  C   LIG A   1      -5.499   1.692 128.183  0.00  0.00    +0.012 C 
ATOM     14  C   LIG A   1      -5.189   2.272 130.685  0.00  0.00    +0.006 C 
ATOM     15  C   LIG A   1      -4.254   1.076 130.930  0.00  0.00    +0.031 C 
ATOM     16  C   LIG A   1      -4.982  -0.220 131.024  0.00  0.00    -0.026 C 
ATOM     17  C   LIG A   1      -6.251  -0.436 130.640  0.00  0.00    -0.063 C 
ATOM     18  C   LIG A   1      -7.120   0.662 129.967  0.00  0.00    -0.005 C 
ATOM     19  C   LIG A   1      -8.231   1.089 130.975  0.00  0.00    +0.016 C 
ATOM     20  C   LIG A   1      -7.887  -0.020 128.776  0.00  0.00    +0.012 C 
ATOM     21  C   LIG A   1      -7.185  -1.261 128.198  0.00  0.00    +0.008 C 
ATOM     22  C   LIG A   1      -6.923  -2.397 129.256  0.00  0.00    -0.025 C 
ATOM     23  C   LIG A   1      -8.083  -3.416 129.128  0.00  0.00    +0.012 C 
ATOM     24  C   LIG A   1      -6.910  -1.825 130.705  0.00  0.00    +0.024 C 
ATOM     25  C   LIG A   1      -6.382  -2.808 131.815  0.00  0.00    -0.004 C 
ATOM     26  C   LIG A   1      -7.538  -3.241 132.738  0.00  0.00    +0.008 C 
ATOM     27  C   LIG A   1      -5.636  -4.052 131.274  0.00  0.00    -0.011 C 
ATOM     28  C   LIG A   1      -4.734  -4.686 132.345  0.00  0.00    +0.008 C 
ATOM     29  C   LIG A   1      -4.797  -3.713 130.048  0.00  0.00    +0.004 C 
ATOM     30  C   LIG A   1      -5.580  -3.087 128.895  0.00  0.00    +0.007 C 
ENDROOT
BRANCH   4  31
ATOM     31  O   LIG A   1      -5.315   5.650 133.350  0.00  0.00    -0.461 OA
BRANCH  31  32
ATOM     32  C   LIG A   1      -5.100   5.926 134.662  0.00  0.00    +0.312 C 
ATOM     33  O   LIG A   1      -4.441   6.872 135.087  0.00  0.00    -0.251 OA
BRANCH  32  34
ATOM     34  C   LIG A   1      -5.847   4.930 135.522  0.00  0.00    +0.155 C 
BRANCH  34  35
ATOM     35  C   LIG A   1      -5.583   3.496 135.139  0.00  0.00    -0.037 A 
ATOM     36  C   LIG A   1      -6.534   2.769 134.411  0.00  0.00    +0.004 A 
ATOM     37  C   LIG A   1      -6.303   1.433 134.084  0.00  0.00    +0.000 A 
ATOM     38  C   LIG A   1      -5.123   0.808 134.485  0.00  0.00    +0.000 A 
ATOM     39  C   LIG A   1      -4.167   1.524 135.204  0.00  0.00    +0.000 A 
ATOM     40  C   LIG A   1      -4.395   2.861 135.531  0.00  0.00    +0.004 A 
ENDBRANCH  34  35
ENDBRANCH  32  34
ENDBRANCH  31  32
ENDBRANCH   4  31
TORSDOF 4
ENDMDL
MODEL 9
REMARK VINA RESULT:      -8.6      4.251      8.066
REMARK  Name = NuBBE_1347
REMARK  12 active torsions:
REMARK  status: ('A' for Active; 'I' for Inactive)
REMARK    1  A    between atoms: C_1  and  C_2
REMARK    2  A    between atoms: C_2  and  C_3
REMARK    3  A    between atoms: C_4  and  O_34
REMARK    4  A    between atoms: C_7  and  C_8
REMARK    5  A    between atoms: C_12  and  C_13
REMARK    6  A    between atoms: C_18  and  C_19
REMARK    7  A    between atoms: C_22  and  C_23
REMARK    8  A    between atoms: C_25  and  C_27
REMARK    9  A    between atoms: C_28  and  C_30
REMARK   10  A    between atoms: O_34  and  C_35
REMARK   11  A    between atoms: C_35  and  C_36
REMARK   12  A    between atoms: C_36  and  C_37
REMARK                            x       y       z     vdW  Elec       q    Type
REMARK                         _______ _______ _______ _____ _____    ______ ____
ROOT
ATOM      1  C   LIG A   1      -5.433   1.785 132.084  0.00  0.00    +0.015 C 
ATOM      2  C   LIG A   1      -5.116   2.927 131.083  0.00  0.00    +0.005 C 
ATOM      3  C   LIG A   1      -4.480   2.236 129.861  0.00  0.00    +0.015 C 
ATOM      4  C   LIG A   1      -6.453   3.630 130.674  0.00  0.00    +0.182 C 
ATOM      5  C   LIG A   1      -6.192   4.806 129.728  0.00  0.00    +0.046 C 
ATOM      6  C   LIG A   1      -5.275   5.856 130.362  0.00  0.00    +0.011 C 
ATOM      7  C   LIG A   1      -3.931   5.308 130.946  0.00  0.00    -0.025 C 
ATOM      8  C   LIG A   1      -2.978   5.096 129.741  0.00  0.00    +0.012 C 
ATOM      9  C   LIG A   1      -4.194   3.998 131.771  0.00  0.00    +0.004 C 
ATOM     10  C   LIG A   1      -2.881   3.473 132.390  0.00  0.00    +0.005 C 
ATOM     11  C   LIG A   1      -2.294   4.492 133.380  0.00  0.00    +0.008 C 
ATOM     12  C   LIG A   1      -2.098   5.949 132.844  0.00  0.00    -0.019 C 
ATOM     13  C   LIG A   1      -0.816   5.937 131.969  0.00  0.00    +0.012 C 
ATOM     14  C   LIG A   1      -3.367   6.365 131.992  0.00  0.00    +0.006 C 
ATOM     15  C   LIG A   1      -3.217   7.778 131.407  0.00  0.00    +0.031 C 
ATOM     16  C   LIG A   1      -2.751   8.776 132.410  0.00  0.00    -0.026 C 
ATOM     17  C   LIG A   1      -2.208   8.490 133.605  0.00  0.00    -0.063 C 
ATOM     18  C   LIG A   1      -1.931   7.034 134.072  0.00  0.00    -0.005 C 
ATOM     19  C   LIG A   1      -2.928   6.695 135.223  0.00  0.00    +0.016 C 
ATOM     20  C   LIG A   1      -0.510   7.026 134.745  0.00  0.00    +0.012 C 
ATOM     21  C   LIG A   1       0.434   8.133 134.245  0.00  0.00    +0.008 C 
ATOM     22  C   LIG A   1      -0.132   9.590 134.438  0.00  0.00    -0.025 C 
ATOM     23  C   LIG A   1       0.471  10.143 135.754  0.00  0.00    +0.012 C 
ATOM     24  C   LIG A   1      -1.685   9.579 134.558  0.00  0.00    +0.024 C 
ATOM     25  C   LIG A   1      -2.378  10.989 134.470  0.00  0.00    -0.004 C 
ATOM     26  C   LIG A   1      -2.967  11.380 135.840  0.00  0.00    +0.008 C 
ATOM     27  C   LIG A   1      -1.471  12.123 133.936  0.00  0.00    -0.011 C 
ATOM     28  C   LIG A   1      -2.293  13.309 133.406  0.00  0.00    +0.008 C 
ATOM     29  C   LIG A   1      -0.541  11.626 132.836  0.00  0.00    +0.004 C 
ATOM     30  C   LIG A   1       0.350  10.451 133.240  0.00  0.00    +0.007 C 
ENDROOT
BRANCH   4  31
ATOM     31  O   LIG A   1      -7.095   4.216 131.838  0.00  0.00    -0.461 OA
BRANCH  31  32
ATOM     32  C   LIG A   1      -8.377   3.884 132.134  0.00  0.00    +0.312 C 
ATOM     33  O   LIG A   1      -9.333   4.007 131.371  0.00  0.00    -0.251 OA
BRANCH  32  34
ATOM     34  C   LIG A   1      -8.443   3.283 133.521  0.00  0.00    +0.155 C 
BRANCH  34  35
ATOM     35  C   LIG A   1      -7.664   4.065 134.547  0.00  0.00    -0.037 A 
ATOM     36  C   LIG A   1      -8.188   5.246 135.089  0.00  0.00    +0.004 A 
ATOM     37  C   LIG A   1      -7.453   5.986 136.014  0.00  0.00    +0.000 A 
ATOM     38  C   LIG A   1      -6.185   5.557 136.405  0.00  0.00    +0.000 A 
ATOM     39  C   LIG A   1      -5.656   4.380 135.877  0.00  0.00    +0.000 A 
ATOM     40  C   LIG A   1      -6.391   3.637 134.952  0.00  0.00    +0.004 A 
ENDBRANCH  34  35
ENDBRANCH  32  34
ENDBRANCH  31  32
ENDBRANCH   4  31
TORSDOF 4
ENDMDL
