MODEL 1
REMARK VINA RESULT:      -7.9      0.000      0.000
REMARK  Name = NuBBE_1507
REMARK  5 active torsions:
REMARK  status: ('A' for Active; 'I' for Inactive)
REMARK    1  A    between atoms: O_1  and  C_2
REMARK    2  A    between atoms: C_13  and  C_16
REMARK    3  A    between atoms: C_17  and  C_22
REMARK    4  A    between atoms: C_22  and  C_23
REMARK    5  A    between atoms: C_29  and  O_31
REMARK                            x       y       z     vdW  Elec       q    Type
REMARK                         _______ _______ _______ _____ _____    ______ ____
ROOT
ATOM      1  C   LIG A   1      -7.069   3.343 122.503  0.00  0.00    +0.194 C 
ATOM      2  C   LIG A   1      -6.818   1.873 122.806  0.00  0.00    +0.077 C 
ATOM      3  C   LIG A   1      -7.510   1.774 124.173  0.00  0.00    +0.005 C 
ATOM      4  C   LIG A   1      -8.804   2.527 123.803  0.00  0.00    +0.171 C 
ATOM      5  O   LIG A   1      -8.422   3.584 122.910  0.00  0.00    -0.346 OA
ATOM      6  C   LIG A   1      -7.773   0.307 124.592  0.00  0.00    +0.001 C 
ATOM      7  C   LIG A   1      -6.454  -0.422 124.928  0.00  0.00    -0.003 C 
ATOM      8  C   LIG A   1      -6.703  -1.915 125.324  0.00  0.00    +0.006 C 
ATOM      9  C   LIG A   1      -7.881  -2.181 126.304  0.00  0.00    -0.019 C 
ATOM     10  C   LIG A   1      -9.112  -1.308 126.000  0.00  0.00    +0.008 C 
ATOM     11  C   LIG A   1      -8.814   0.156 125.714  0.00  0.00    +0.005 C 
ATOM     12  C   LIG A   1      -8.345  -3.659 126.186  0.00  0.00    +0.012 C 
ATOM     13  C   LIG A   1      -7.240  -1.902 127.693  0.00  0.00    +0.061 C 
ATOM     14  C   LIG A   1      -5.834  -2.453 127.467  0.00  0.00    +0.137 C 
ATOM     15  O   LIG A   1      -5.045  -2.739 128.358  0.00  0.00    -0.297 OA
ATOM     16  C   LIG A   1      -5.502  -2.595 125.997  0.00  0.00    +0.079 C 
ATOM     17  C   LIG A   1      -5.498   0.415 125.812  0.00  0.00    +0.004 C 
ATOM     18  C   LIG A   1      -6.047   1.742 126.321  0.00  0.00    +0.004 C 
ATOM     19  C   LIG A   1      -6.721   2.606 125.245  0.00  0.00    +0.001 C 
ATOM     20  C   LIG A   1      -5.671   3.556 124.625  0.00  0.00    +0.041 C 
ATOM     21  C   LIG A   1      -6.133   4.248 123.340  0.00  0.00    +0.174 C 
ENDROOT
BRANCH   1  22
ATOM     22  O   LIG A   1      -6.933   3.654 121.128  0.00  0.00    -0.363 OA
ATOM     23  H   LIG A   1      -5.987   3.840 121.004  0.00  0.00    +0.213 HD
ENDBRANCH   1  22
BRANCH  13  24
ATOM     24  C   LIG A   1      -7.951  -2.532 128.894  0.00  0.00    +0.008 C 
ATOM     25  C   LIG A   1      -7.927  -1.628 130.121  0.00  0.00    +0.004 C 
ENDBRANCH  13  24
BRANCH  21  26
ATOM     26  O   LIG A   1      -4.960   4.595 122.588  0.00  0.00    -0.387 OA
ATOM     27  H   LIG A   1      -4.939   5.575 122.608  0.00  0.00    +0.210 HD
ENDBRANCH  21  26
TORSDOF 3
ENDMDL
MODEL 2
REMARK VINA RESULT:      -7.7      3.289      6.928
REMARK  Name = NuBBE_1507
REMARK  5 active torsions:
REMARK  status: ('A' for Active; 'I' for Inactive)
REMARK    1  A    between atoms: O_1  and  C_2
REMARK    2  A    between atoms: C_13  and  C_16
REMARK    3  A    between atoms: C_17  and  C_22
REMARK    4  A    between atoms: C_22  and  C_23
REMARK    5  A    between atoms: C_29  and  O_31
REMARK                            x       y       z     vdW  Elec       q    Type
REMARK                         _______ _______ _______ _____ _____    ______ ____
ROOT
ATOM      1  C   LIG A   1      -4.533  -2.814 130.291  0.00  0.00    +0.194 C 
ATOM      2  C   LIG A   1      -4.718  -2.965 128.789  0.00  0.00    +0.077 C 
ATOM      3  C   LIG A   1      -5.726  -1.834 128.541  0.00  0.00    +0.005 C 
ATOM      4  C   LIG A   1      -5.020  -0.744 129.372  0.00  0.00    +0.171 C 
ATOM      5  O   LIG A   1      -4.461  -1.401 130.520  0.00  0.00    -0.346 OA
ATOM      6  C   LIG A   1      -5.835  -1.463 127.042  0.00  0.00    +0.001 C 
ATOM      7  C   LIG A   1      -6.522  -2.589 126.238  0.00  0.00    -0.003 C 
ATOM      8  C   LIG A   1      -6.612  -2.240 124.716  0.00  0.00    +0.006 C 
ATOM      9  C   LIG A   1      -7.069  -0.795 124.366  0.00  0.00    -0.019 C 
ATOM     10  C   LIG A   1      -6.461   0.262 125.305  0.00  0.00    +0.008 C 
ATOM     11  C   LIG A   1      -6.487  -0.094 126.784  0.00  0.00    +0.005 C 
ATOM     12  C   LIG A   1      -6.608  -0.427 122.927  0.00  0.00    +0.012 C 
ATOM     13  C   LIG A   1      -8.619  -0.896 124.451  0.00  0.00    +0.061 C 
ATOM     14  C   LIG A   1      -8.837  -2.299 123.891  0.00  0.00    +0.137 C 
ATOM     15  O   LIG A   1      -9.906  -2.726 123.473  0.00  0.00    -0.297 OA
ATOM     16  C   LIG A   1      -7.575  -3.135 123.922  0.00  0.00    +0.079 C 
ATOM     17  C   LIG A   1      -7.786  -3.154 126.930  0.00  0.00    +0.004 C 
ATOM     18  C   LIG A   1      -8.231  -2.439 128.200  0.00  0.00    +0.004 C 
ATOM     19  C   LIG A   1      -7.104  -2.178 129.210  0.00  0.00    +0.001 C 
ATOM     20  C   LIG A   1      -7.021  -3.363 130.199  0.00  0.00    +0.041 C 
ATOM     21  C   LIG A   1      -5.754  -3.377 131.057  0.00  0.00    +0.174 C 
ENDROOT
BRANCH   1  22
ATOM     22  O   LIG A   1      -3.347  -3.424 130.765  0.00  0.00    -0.363 OA
ATOM     23  H   LIG A   1      -3.178  -3.011 131.629  0.00  0.00    +0.213 HD
ENDBRANCH   1  22
BRANCH  13  24
ATOM     24  C   LIG A   1      -9.399   0.185 123.698  0.00  0.00    +0.008 C 
ATOM     25  C   LIG A   1      -9.973   1.243 124.634  0.00  0.00    +0.004 C 
ENDBRANCH  13  24
BRANCH  21  26
ATOM     26  O   LIG A   1      -5.517  -4.734 131.460  0.00  0.00    -0.387 OA
ATOM     27  H   LIG A   1      -6.383  -5.041 131.803  0.00  0.00    +0.210 HD
ENDBRANCH  21  26
TORSDOF 3
ENDMDL
MODEL 3
REMARK VINA RESULT:      -7.7      3.015      4.725
REMARK  Name = NuBBE_1507
REMARK  5 active torsions:
REMARK  status: ('A' for Active; 'I' for Inactive)
REMARK    1  A    between atoms: O_1  and  C_2
REMARK    2  A    between atoms: C_13  and  C_16
REMARK    3  A    between atoms: C_17  and  C_22
REMARK    4  A    between atoms: C_22  and  C_23
REMARK    5  A    between atoms: C_29  and  O_31
REMARK                            x       y       z     vdW  Elec       q    Type
REMARK                         _______ _______ _______ _____ _____    ______ ____
ROOT
ATOM      1  C   LIG A   1      -8.250   2.657 129.071  0.00  0.00    +0.194 C 
ATOM      2  C   LIG A   1      -8.684   1.893 127.830  0.00  0.00    +0.077 C 
ATOM      3  C   LIG A   1      -7.681   0.732 127.883  0.00  0.00    +0.005 C 
ATOM      4  C   LIG A   1      -7.827   0.402 129.382  0.00  0.00    +0.171 C 
ATOM      5  O   LIG A   1      -7.999   1.654 130.063  0.00  0.00    -0.346 OA
ATOM      6  C   LIG A   1      -8.098  -0.446 126.970  0.00  0.00    +0.001 C 
ATOM      7  C   LIG A   1      -7.965  -0.070 125.477  0.00  0.00    -0.003 C 
ATOM      8  C   LIG A   1      -8.412  -1.241 124.543  0.00  0.00    +0.006 C 
ATOM      9  C   LIG A   1      -7.899  -2.660 124.922  0.00  0.00    -0.019 C 
ATOM     10  C   LIG A   1      -7.919  -2.911 126.440  0.00  0.00    +0.008 C 
ATOM     11  C   LIG A   1      -7.384  -1.769 127.293  0.00  0.00    +0.005 C 
ATOM     12  C   LIG A   1      -8.811  -3.742 124.281  0.00  0.00    +0.012 C 
ATOM     13  C   LIG A   1      -6.474  -2.685 124.299  0.00  0.00    +0.061 C 
ATOM     14  C   LIG A   1      -6.716  -1.895 123.016  0.00  0.00    +0.137 C 
ATOM     15  O   LIG A   1      -5.974  -1.900 122.041  0.00  0.00    -0.297 OA
ATOM     16  C   LIG A   1      -7.986  -1.073 123.077  0.00  0.00    +0.079 C 
ATOM     17  C   LIG A   1      -6.641   0.661 125.145  0.00  0.00    +0.004 C 
ATOM     18  C   LIG A   1      -5.633   0.771 126.282  0.00  0.00    +0.004 C 
ATOM     19  C   LIG A   1      -6.227   1.258 127.613  0.00  0.00    +0.001 C 
ATOM     20  C   LIG A   1      -6.113   2.797 127.688  0.00  0.00    +0.041 C 
ATOM     21  C   LIG A   1      -6.936   3.433 128.811  0.00  0.00    +0.174 C 
ENDROOT
BRANCH   1  22
ATOM     22  O   LIG A   1      -9.244   3.546 129.548  0.00  0.00    -0.363 OA
ATOM     23  H   LIG A   1      -8.776   4.380 129.720  0.00  0.00    +0.213 HD
ENDBRANCH   1  22
BRANCH  13  24
ATOM     24  C   LIG A   1      -5.879  -4.075 124.052  0.00  0.00    +0.008 C 
ATOM     25  C   LIG A   1      -4.359  -4.043 123.944  0.00  0.00    +0.004 C 
ENDBRANCH  13  24
BRANCH  21  26
ATOM     26  O   LIG A   1      -7.215   4.788 128.430  0.00  0.00    -0.387 OA
ATOM     27  H   LIG A   1      -6.393   5.093 127.992  0.00  0.00    +0.210 HD
ENDBRANCH  21  26
TORSDOF 3
ENDMDL
MODEL 4
REMARK VINA RESULT:      -7.7      2.621      4.350
REMARK  Name = NuBBE_1507
REMARK  5 active torsions:
REMARK  status: ('A' for Active; 'I' for Inactive)
REMARK    1  A    between atoms: O_1  and  C_2
REMARK    2  A    between atoms: C_13  and  C_16
REMARK    3  A    between atoms: C_17  and  C_22
REMARK    4  A    between atoms: C_22  and  C_23
REMARK    5  A    between atoms: C_29  and  O_31
REMARK                            x       y       z     vdW  Elec       q    Type
REMARK                         _______ _______ _______ _____ _____    ______ ____
ROOT
ATOM      1  C   LIG A   1      -8.426  -1.484 124.051  0.00  0.00    +0.194 C 
ATOM      2  C   LIG A   1      -7.316  -1.994 124.957  0.00  0.00    +0.077 C 
ATOM      3  C   LIG A   1      -8.040  -1.922 126.310  0.00  0.00    +0.005 C 
ATOM      4  C   LIG A   1      -9.368  -2.569 125.867  0.00  0.00    +0.171 C 
ATOM      5  O   LIG A   1      -9.622  -2.110 124.530  0.00  0.00    -0.346 OA
ATOM      6  C   LIG A   1      -7.316  -2.739 127.407  0.00  0.00    +0.001 C 
ATOM      7  C   LIG A   1      -5.979  -2.076 127.805  0.00  0.00    -0.003 C 
ATOM      8  C   LIG A   1      -5.222  -2.908 128.892  0.00  0.00    +0.006 C 
ATOM      9  C   LIG A   1      -6.080  -3.441 130.074  0.00  0.00    -0.019 C 
ATOM     10  C   LIG A   1      -7.461  -3.947 129.621  0.00  0.00    +0.008 C 
ATOM     11  C   LIG A   1      -8.190  -3.048 128.634  0.00  0.00    +0.005 C 
ATOM     12  C   LIG A   1      -5.365  -4.645 130.748  0.00  0.00    +0.012 C 
ATOM     13  C   LIG A   1      -6.142  -2.216 131.030  0.00  0.00    +0.061 C 
ATOM     14  C   LIG A   1      -4.739  -1.644 130.842  0.00  0.00    +0.137 C 
ATOM     15  O   LIG A   1      -4.198  -0.855 131.607  0.00  0.00    -0.297 OA
ATOM     16  C   LIG A   1      -4.077  -2.149 129.578  0.00  0.00    +0.079 C 
ATOM     17  C   LIG A   1      -6.089  -0.545 128.006  0.00  0.00    +0.004 C 
ATOM     18  C   LIG A   1      -7.492   0.042 127.921  0.00  0.00    +0.004 C 
ATOM     19  C   LIG A   1      -8.305  -0.426 126.705  0.00  0.00    +0.001 C 
ATOM     20  C   LIG A   1      -8.085   0.560 125.536  0.00  0.00    +0.041 C 
ATOM     21  C   LIG A   1      -8.586   0.050 124.182  0.00  0.00    +0.174 C 
ENDROOT
BRANCH   1  22
ATOM     22  O   LIG A   1      -8.231  -1.830 122.691  0.00  0.00    -0.363 OA
ATOM     23  H   LIG A   1      -7.870  -2.732 122.709  0.00  0.00    +0.213 HD
ENDBRANCH   1  22
BRANCH  13  24
ATOM     24  C   LIG A   1      -6.478  -2.528 132.491  0.00  0.00    +0.008 C 
ATOM     25  C   LIG A   1      -7.785  -1.881 132.936  0.00  0.00    +0.004 C 
ENDBRANCH  13  24
BRANCH  21  26
ATOM     26  O   LIG A   1      -7.838   0.726 123.161  0.00  0.00    -0.387 OA
ATOM     27  H   LIG A   1      -7.864   1.670 123.423  0.00  0.00    +0.210 HD
ENDBRANCH  21  26
TORSDOF 3
ENDMDL
MODEL 5
REMARK VINA RESULT:      -7.6      3.174      4.567
REMARK  Name = NuBBE_1507
REMARK  5 active torsions:
REMARK  status: ('A' for Active; 'I' for Inactive)
REMARK    1  A    between atoms: O_1  and  C_2
REMARK    2  A    between atoms: C_13  and  C_16
REMARK    3  A    between atoms: C_17  and  C_22
REMARK    4  A    between atoms: C_22  and  C_23
REMARK    5  A    between atoms: C_29  and  O_31
REMARK                            x       y       z     vdW  Elec       q    Type
REMARK                         _______ _______ _______ _____ _____    ______ ____
ROOT
ATOM      1  C   LIG A   1      -8.834  -1.555 124.300  0.00  0.00    +0.194 C 
ATOM      2  C   LIG A   1      -8.454  -2.359 125.534  0.00  0.00    +0.077 C 
ATOM      3  C   LIG A   1      -7.948  -1.221 126.432  0.00  0.00    +0.005 C 
ATOM      4  C   LIG A   1      -9.103  -0.231 126.180  0.00  0.00    +0.171 C 
ATOM      5  O   LIG A   1      -9.474  -0.375 124.801  0.00  0.00    -0.346 OA
ATOM      6  C   LIG A   1      -7.842  -1.648 127.916  0.00  0.00    +0.001 C 
ATOM      7  C   LIG A   1      -6.693  -2.659 128.125  0.00  0.00    -0.003 C 
ATOM      8  C   LIG A   1      -6.593  -3.122 129.615  0.00  0.00    +0.006 C 
ATOM      9  C   LIG A   1      -6.704  -2.006 130.693  0.00  0.00    -0.019 C 
ATOM     10  C   LIG A   1      -7.767  -0.950 130.344  0.00  0.00    +0.008 C 
ATOM     11  C   LIG A   1      -7.754  -0.469 128.900  0.00  0.00    +0.005 C 
ATOM     12  C   LIG A   1      -7.124  -2.625 132.055  0.00  0.00    +0.012 C 
ATOM     13  C   LIG A   1      -5.255  -1.445 130.753  0.00  0.00    +0.061 C 
ATOM     14  C   LIG A   1      -4.451  -2.727 130.558  0.00  0.00    +0.137 C 
ATOM     15  O   LIG A   1      -3.264  -2.856 130.830  0.00  0.00    -0.297 OA
ATOM     16  C   LIG A   1      -5.283  -3.843 129.963  0.00  0.00    +0.079 C 
ATOM     17  C   LIG A   1      -5.385  -2.260 127.398  0.00  0.00    +0.004 C 
ATOM     18  C   LIG A   1      -5.385  -0.896 126.720  0.00  0.00    +0.004 C 
ATOM     19  C   LIG A   1      -6.621  -0.618 125.850  0.00  0.00    +0.001 C 
ATOM     20  C   LIG A   1      -6.333  -1.068 124.400  0.00  0.00    +0.041 C 
ATOM     21  C   LIG A   1      -7.573  -1.133 123.506  0.00  0.00    +0.174 C 
ENDROOT
BRANCH   1  22
ATOM     22  O   LIG A   1      -9.728  -2.245 123.446  0.00  0.00    -0.363 OA
ATOM     23  H   LIG A   1     -10.571  -1.767 123.523  0.00  0.00    +0.213 HD
ENDBRANCH   1  22
BRANCH  13  24
ATOM     24  C   LIG A   1      -4.887  -0.688 132.033  0.00  0.00    +0.008 C 
ATOM     25  C   LIG A   1      -4.167   0.624 131.743  0.00  0.00    +0.004 C 
ENDBRANCH  13  24
BRANCH  21  26
ATOM     26  O   LIG A   1      -7.301  -2.071 122.453  0.00  0.00    -0.387 OA
ATOM     27  H   LIG A   1      -8.144  -2.556 122.335  0.00  0.00    +0.210 HD
ENDBRANCH  21  26
TORSDOF 3
ENDMDL
MODEL 6
REMARK VINA RESULT:      -7.6      2.578      3.253
REMARK  Name = NuBBE_1507
REMARK  5 active torsions:
REMARK  status: ('A' for Active; 'I' for Inactive)
REMARK    1  A    between atoms: O_1  and  C_2
REMARK    2  A    between atoms: C_13  and  C_16
REMARK    3  A    between atoms: C_17  and  C_22
REMARK    4  A    between atoms: C_22  and  C_23
REMARK    5  A    between atoms: C_29  and  O_31
REMARK                            x       y       z     vdW  Elec       q    Type
REMARK                         _______ _______ _______ _____ _____    ______ ____
ROOT
ATOM      1  C   LIG A   1      -5.739   4.462 126.567  0.00  0.00    +0.194 C 
ATOM      2  C   LIG A   1      -5.975   3.422 125.482  0.00  0.00    +0.077 C 
ATOM      3  C   LIG A   1      -6.682   2.343 126.315  0.00  0.00    +0.005 C 
ATOM      4  C   LIG A   1      -7.661   3.269 127.063  0.00  0.00    +0.171 C 
ATOM      5  O   LIG A   1      -6.948   4.485 127.335  0.00  0.00    -0.346 OA
ATOM      6  C   LIG A   1      -7.407   1.300 125.429  0.00  0.00    +0.001 C 
ATOM      7  C   LIG A   1      -6.396   0.409 124.675  0.00  0.00    -0.003 C 
ATOM      8  C   LIG A   1      -7.115  -0.629 123.753  0.00  0.00    +0.006 C 
ATOM      9  C   LIG A   1      -8.330  -1.376 124.373  0.00  0.00    -0.019 C 
ATOM     10  C   LIG A   1      -9.212  -0.457 125.236  0.00  0.00    +0.008 C 
ATOM     11  C   LIG A   1      -8.457   0.465 126.181  0.00  0.00    +0.005 C 
ATOM     12  C   LIG A   1      -9.241  -1.934 123.244  0.00  0.00    +0.012 C 
ATOM     13  C   LIG A   1      -7.653  -2.528 125.169  0.00  0.00    +0.061 C 
ATOM     14  C   LIG A   1      -6.494  -2.869 124.235  0.00  0.00    +0.137 C 
ATOM     15  O   LIG A   1      -5.851  -3.910 124.273  0.00  0.00    -0.297 OA
ATOM     16  C   LIG A   1      -6.204  -1.758 123.249  0.00  0.00    +0.079 C 
ATOM     17  C   LIG A   1      -5.235  -0.092 125.568  0.00  0.00    +0.004 C 
ATOM     18  C   LIG A   1      -5.336   0.244 127.050  0.00  0.00    +0.004 C 
ATOM     19  C   LIG A   1      -5.683   1.711 127.347  0.00  0.00    +0.001 C 
ATOM     20  C   LIG A   1      -4.376   2.521 127.503  0.00  0.00    +0.041 C 
ATOM     21  C   LIG A   1      -4.574   4.038 127.494  0.00  0.00    +0.174 C 
ENDROOT
BRANCH   1  22
ATOM     22  O   LIG A   1      -5.490   5.755 126.047  0.00  0.00    -0.363 OA
ATOM     23  H   LIG A   1      -4.694   5.659 125.499  0.00  0.00    +0.213 HD
ENDBRANCH   1  22
BRANCH  13  24
ATOM     24  C   LIG A   1      -8.545  -3.730 125.491  0.00  0.00    +0.008 C 
ATOM     25  C   LIG A   1      -8.937  -3.782 126.964  0.00  0.00    +0.004 C 
ENDBRANCH  13  24
BRANCH  21  26
ATOM     26  O   LIG A   1      -3.341   4.634 127.062  0.00  0.00    -0.387 OA
ATOM     27  H   LIG A   1      -2.842   4.790 127.892  0.00  0.00    +0.210 HD
ENDBRANCH  21  26
TORSDOF 3
ENDMDL
MODEL 7
REMARK VINA RESULT:      -7.2      2.468      7.141
REMARK  Name = NuBBE_1507
REMARK  5 active torsions:
REMARK  status: ('A' for Active; 'I' for Inactive)
REMARK    1  A    between atoms: O_1  and  C_2
REMARK    2  A    between atoms: C_13  and  C_16
REMARK    3  A    between atoms: C_17  and  C_22
REMARK    4  A    between atoms: C_22  and  C_23
REMARK    5  A    between atoms: C_29  and  O_31
REMARK                            x       y       z     vdW  Elec       q    Type
REMARK                         _______ _______ _______ _____ _____    ______ ____
ROOT
ATOM      1  C   LIG A   1      -5.824  -3.333 130.870  0.00  0.00    +0.194 C 
ATOM      2  C   LIG A   1      -6.341  -3.582 129.462  0.00  0.00    +0.077 C 
ATOM      3  C   LIG A   1      -5.965  -2.243 128.812  0.00  0.00    +0.005 C 
ATOM      4  C   LIG A   1      -4.529  -2.143 129.364  0.00  0.00    +0.171 C 
ATOM      5  O   LIG A   1      -4.563  -2.674 130.697  0.00  0.00    -0.346 OA
ATOM      6  C   LIG A   1      -6.007  -2.308 127.267  0.00  0.00    +0.001 C 
ATOM      7  C   LIG A   1      -7.458  -2.435 126.752  0.00  0.00    -0.003 C 
ATOM      8  C   LIG A   1      -7.513  -2.532 125.192  0.00  0.00    +0.006 C 
ATOM      9  C   LIG A   1      -6.611  -1.537 124.408  0.00  0.00    -0.019 C 
ATOM     10  C   LIG A   1      -5.231  -1.345 125.063  0.00  0.00    +0.008 C 
ATOM     11  C   LIG A   1      -5.251  -1.163 126.573  0.00  0.00    +0.005 C 
ATOM     12  C   LIG A   1      -6.350  -2.077 122.973  0.00  0.00    +0.012 C 
ATOM     13  C   LIG A   1      -7.476  -0.245 124.373  0.00  0.00    +0.061 C 
ATOM     14  C   LIG A   1      -8.870  -0.848 124.215  0.00  0.00    +0.137 C 
ATOM     15  O   LIG A   1      -9.858  -0.232 123.837  0.00  0.00    -0.297 OA
ATOM     16  C   LIG A   1      -8.911  -2.312 124.598  0.00  0.00    +0.079 C 
ATOM     17  C   LIG A   1      -8.444  -1.471 127.456  0.00  0.00    +0.004 C 
ATOM     18  C   LIG A   1      -7.827  -0.471 128.425  0.00  0.00    +0.004 C 
ATOM     19  C   LIG A   1      -6.829  -1.082 129.420  0.00  0.00    +0.001 C 
ATOM     20  C   LIG A   1      -7.582  -1.493 130.706  0.00  0.00    +0.041 C 
ATOM     21  C   LIG A   1      -6.772  -2.388 131.648  0.00  0.00    +0.174 C 
ENDROOT
BRANCH   1  22
ATOM     22  O   LIG A   1      -5.630  -4.527 131.606  0.00  0.00    -0.363 OA
ATOM     23  H   LIG A   1      -4.901  -4.986 131.156  0.00  0.00    +0.213 HD
ENDBRANCH   1  22
BRANCH  13  24
ATOM     24  C   LIG A   1      -7.124   0.764 123.277  0.00  0.00    +0.008 C 
ATOM     25  C   LIG A   1      -6.909   2.168 123.830  0.00  0.00    +0.004 C 
ENDBRANCH  13  24
BRANCH  21  26
ATOM     26  O   LIG A   1      -7.704  -3.142 132.437  0.00  0.00    -0.387 OA
ATOM     27  H   LIG A   1      -8.445  -2.522 132.598  0.00  0.00    +0.210 HD
ENDBRANCH  21  26
TORSDOF 3
ENDMDL
MODEL 8
REMARK VINA RESULT:      -7.2      3.143      5.350
REMARK  Name = NuBBE_1507
REMARK  5 active torsions:
REMARK  status: ('A' for Active; 'I' for Inactive)
REMARK    1  A    between atoms: O_1  and  C_2
REMARK    2  A    between atoms: C_13  and  C_16
REMARK    3  A    between atoms: C_17  and  C_22
REMARK    4  A    between atoms: C_22  and  C_23
REMARK    5  A    between atoms: C_29  and  O_31
REMARK                            x       y       z     vdW  Elec       q    Type
REMARK                         _______ _______ _______ _____ _____    ______ ____
ROOT
ATOM      1  C   LIG A   1      -7.210  -1.426 123.905  0.00  0.00    +0.194 C 
ATOM      2  C   LIG A   1      -6.959  -0.817 125.276  0.00  0.00    +0.077 C 
ATOM      3  C   LIG A   1      -6.533  -2.080 126.040  0.00  0.00    +0.005 C 
ATOM      4  C   LIG A   1      -5.560  -2.640 124.983  0.00  0.00    +0.171 C 
ATOM      5  O   LIG A   1      -6.135  -2.350 123.700  0.00  0.00    -0.346 OA
ATOM      6  C   LIG A   1      -5.832  -1.747 127.379  0.00  0.00    +0.001 C 
ATOM      7  C   LIG A   1      -6.832  -1.163 128.402  0.00  0.00    -0.003 C 
ATOM      8  C   LIG A   1      -6.131  -0.794 129.750  0.00  0.00    +0.006 C 
ATOM      9  C   LIG A   1      -5.132  -1.842 130.317  0.00  0.00    -0.019 C 
ATOM     10  C   LIG A   1      -4.270  -2.493 129.220  0.00  0.00    +0.008 C 
ATOM     11  C   LIG A   1      -5.026  -2.916 127.969  0.00  0.00    +0.005 C 
ATOM     12  C   LIG A   1      -4.147  -1.156 131.305  0.00  0.00    +0.012 C 
ATOM     13  C   LIG A   1      -6.067  -2.841 131.058  0.00  0.00    +0.061 C 
ATOM     14  C   LIG A   1      -7.111  -1.879 131.621  0.00  0.00    +0.137 C 
ATOM     15  O   LIG A   1      -7.887  -2.145 132.530  0.00  0.00    -0.297 OA
ATOM     16  C   LIG A   1      -7.101  -0.541 130.913  0.00  0.00    +0.079 C 
ATOM     17  C   LIG A   1      -8.168  -1.942 128.466  0.00  0.00    +0.004 C 
ATOM     18  C   LIG A   1      -8.242  -3.217 127.635  0.00  0.00    +0.004 C 
ATOM     19  C   LIG A   1      -7.749  -3.061 126.188  0.00  0.00    +0.001 C 
ATOM     20  C   LIG A   1      -8.944  -2.691 125.281  0.00  0.00    +0.041 C 
ATOM     21  C   LIG A   1      -8.545  -2.209 123.884  0.00  0.00    +0.174 C 
ENDROOT
BRANCH   1  22
ATOM     22  O   LIG A   1      -7.204  -0.464 122.865  0.00  0.00    -0.363 OA
ATOM     23  H   LIG A   1      -6.491   0.155 123.098  0.00  0.00    +0.213 HD
ENDBRANCH   1  22
BRANCH  13  24
ATOM     24  C   LIG A   1      -5.401  -3.708 132.130  0.00  0.00    +0.008 C 
ATOM     25  C   LIG A   1      -5.262  -5.162 131.695  0.00  0.00    +0.004 C 
ENDBRANCH  13  24
BRANCH  21  26
ATOM     26  O   LIG A   1      -9.610  -1.382 123.390  0.00  0.00    -0.387 OA
ATOM     27  H   LIG A   1      -9.524  -1.431 122.415  0.00  0.00    +0.210 HD
ENDBRANCH  21  26
TORSDOF 3
ENDMDL
MODEL 9
REMARK VINA RESULT:      -7.2      2.637      5.009
REMARK  Name = NuBBE_1507
REMARK  5 active torsions:
REMARK  status: ('A' for Active; 'I' for Inactive)
REMARK    1  A    between atoms: O_1  and  C_2
REMARK    2  A    between atoms: C_13  and  C_16
REMARK    3  A    between atoms: C_17  and  C_22
REMARK    4  A    between atoms: C_22  and  C_23
REMARK    5  A    between atoms: C_29  and  O_31
REMARK                            x       y       z     vdW  Elec       q    Type
REMARK                         _______ _______ _______ _____ _____    ______ ____
ROOT
ATOM      1  C   LIG A   1      -9.933   0.864 123.197  0.00  0.00    +0.194 C 
ATOM      2  C   LIG A   1      -9.614   1.200 124.646  0.00  0.00    +0.077 C 
ATOM      3  C   LIG A   1      -8.184   1.732 124.474  0.00  0.00    +0.005 C 
ATOM      4  C   LIG A   1      -8.447   2.639 123.256  0.00  0.00    +0.171 C 
ATOM      5  O   LIG A   1      -9.403   1.954 122.432  0.00  0.00    -0.346 OA
ATOM      6  C   LIG A   1      -7.700   2.523 125.713  0.00  0.00    +0.001 C 
ATOM      7  C   LIG A   1      -7.473   1.585 126.920  0.00  0.00    -0.003 C 
ATOM      8  C   LIG A   1      -7.012   2.376 128.188  0.00  0.00    +0.006 C 
ATOM      9  C   LIG A   1      -5.915   3.455 127.966  0.00  0.00    -0.019 C 
ATOM     10  C   LIG A   1      -6.122   4.252 126.665  0.00  0.00    +0.008 C 
ATOM     11  C   LIG A   1      -6.477   3.416 125.444  0.00  0.00    +0.005 C 
ATOM     12  C   LIG A   1      -5.945   4.488 129.128  0.00  0.00    +0.012 C 
ATOM     13  C   LIG A   1      -4.603   2.620 127.991  0.00  0.00    +0.061 C 
ATOM     14  C   LIG A   1      -4.950   1.588 129.061  0.00  0.00    +0.137 C 
ATOM     15  O   LIG A   1      -4.132   0.897 129.655  0.00  0.00    -0.297 OA
ATOM     16  C   LIG A   1      -6.441   1.492 129.306  0.00  0.00    +0.079 C 
ATOM     17  C   LIG A   1      -6.711   0.288 126.554  0.00  0.00    +0.004 C 
ATOM     18  C   LIG A   1      -6.189   0.198 125.126  0.00  0.00    +0.004 C 
ATOM     19  C   LIG A   1      -7.219   0.569 124.048  0.00  0.00    +0.001 C 
ATOM     20  C   LIG A   1      -7.965  -0.707 123.597  0.00  0.00    +0.041 C 
ATOM     21  C   LIG A   1      -9.218  -0.438 122.760  0.00  0.00    +0.174 C 
ENDROOT
BRANCH   1  22
ATOM     22  O   LIG A   1     -11.323   0.753 122.949  0.00  0.00    -0.363 OA
ATOM     23  H   LIG A   1     -11.464  -0.179 122.713  0.00  0.00    +0.213 HD
ENDBRANCH   1  22
BRANCH  13  24
ATOM     24  C   LIG A   1      -3.321   3.400 128.294  0.00  0.00    +0.008 C 
ATOM     25  C   LIG A   1      -2.451   3.589 127.056  0.00  0.00    +0.004 C 
ENDBRANCH  13  24
BRANCH  21  26
ATOM     26  O   LIG A   1     -10.090  -1.568 122.909  0.00  0.00    -0.387 OA
ATOM     27  H   LIG A   1     -10.109  -1.980 122.020  0.00  0.00    +0.210 HD
ENDBRANCH  21  26
TORSDOF 3
ENDMDL
