MODEL 1
REMARK VINA RESULT:      -6.9      0.000      0.000
REMARK  Name = NuBBE_1656
REMARK  6 active torsions:
REMARK  status: ('A' for Active; 'I' for Inactive)
REMARK    1  A    between atoms: C_6  and  O_12
REMARK    2  A    between atoms: C_7  and  O_10
REMARK    3  A    between atoms: C_8  and  O_9
REMARK    4  A    between atoms: O_10  and  C_11
REMARK    5  A    between atoms: C_15  and  C_16
REMARK    6  A    between atoms: C_19  and  O_22
REMARK                            x       y       z     vdW  Elec       q    Type
REMARK                         _______ _______ _______ _____ _____    ______ ____
ROOT
ATOM      1  O   LIG A   1      -9.308   6.502 132.345  0.00  0.00    -0.286 OA
ATOM      2  C   LIG A   1      -9.739   5.491 131.793  0.00  0.00    +0.204 A 
ATOM      3  C   LIG A   1      -9.174   4.180 132.161  0.00  0.00    +0.110 A 
ATOM      4  C   LIG A   1      -9.691   3.043 131.553  0.00  0.00    +0.146 A 
ATOM      5  C   LIG A   1      -9.192   1.782 131.875  0.00  0.00    +0.096 A 
ATOM      6  C   LIG A   1      -8.159   1.653 132.810  0.00  0.00    +0.166 A 
ATOM      7  C   LIG A   1      -7.615   2.786 133.437  0.00  0.00    +0.204 A 
ATOM      8  C   LIG A   1      -8.137   4.052 133.099  0.00  0.00    +0.177 A 
ATOM      9  O   LIG A   1     -10.696   3.090 130.624  0.00  0.00    -0.462 OA
ATOM     10  C   LIG A   1     -11.185   4.323 130.268  0.00  0.00    +0.208 A 
ATOM     11  C   LIG A   1     -10.815   5.519 130.757  0.00  0.00    +0.064 A 
ENDROOT
BRANCH  11  12
ATOM     12  C   LIG A   1     -11.440   6.773 130.264  0.00  0.00    -0.011 A 
ATOM     13  C   LIG A   1     -12.495   7.382 130.964  0.00  0.00    +0.012 A 
ATOM     14  C   LIG A   1     -13.090   8.563 130.504  0.00  0.00    +0.046 A 
ATOM     15  C   LIG A   1     -12.624   9.155 129.339  0.00  0.00    +0.117 A 
ATOM     16  C   LIG A   1     -11.584   8.581 128.624  0.00  0.00    +0.046 A 
ATOM     17  C   LIG A   1     -11.003   7.392 129.077  0.00  0.00    +0.012 A 
BRANCH  15  18
ATOM     18  O   LIG A   1     -13.166  10.309 128.858  0.00  0.00    -0.507 OA
ATOM     19  H   LIG A   1     -13.797  10.086 128.154  0.00  0.00    +0.292 HD
ENDBRANCH  15  18
ENDBRANCH  11  12
BRANCH   8  20
ATOM     20  O   LIG A   1      -7.593   5.158 133.716  0.00  0.00    -0.503 OA
ATOM     21  H   LIG A   1      -6.984   4.858 134.424  0.00  0.00    +0.292 HD
ENDBRANCH   8  20
BRANCH   7  22
ATOM     22  O   LIG A   1      -6.608   2.819 134.366  0.00  0.00    -0.488 OA
ATOM     23  C   LIG A   1      -5.266   2.653 133.942  0.00  0.00    +0.277 C 
ENDBRANCH   7  22
BRANCH   6  24
ATOM     24  O   LIG A   1      -7.703   0.393 133.086  0.00  0.00    -0.503 OA
ATOM     25  H   LIG A   1      -8.364  -0.265 132.816  0.00  0.00    +0.292 HD
ENDBRANCH   6  24
TORSDOF 5
ENDMDL
MODEL 2
REMARK VINA RESULT:      -6.9      1.273      2.720
REMARK  Name = NuBBE_1656
REMARK  6 active torsions:
REMARK  status: ('A' for Active; 'I' for Inactive)
REMARK    1  A    between atoms: C_6  and  O_12
REMARK    2  A    between atoms: C_7  and  O_10
REMARK    3  A    between atoms: C_8  and  O_9
REMARK    4  A    between atoms: O_10  and  C_11
REMARK    5  A    between atoms: C_15  and  C_16
REMARK    6  A    between atoms: C_19  and  O_22
REMARK                            x       y       z     vdW  Elec       q    Type
REMARK                         _______ _______ _______ _____ _____    ______ ____
ROOT
ATOM      1  O   LIG A   1      -9.847   4.229 129.506  0.00  0.00    -0.286 OA
ATOM      2  C   LIG A   1      -9.611   4.535 130.673  0.00  0.00    +0.204 A 
ATOM      3  C   LIG A   1      -8.868   3.589 131.524  0.00  0.00    +0.110 A 
ATOM      4  C   LIG A   1      -8.580   3.961 132.831  0.00  0.00    +0.146 A 
ATOM      5  C   LIG A   1      -7.875   3.101 133.670  0.00  0.00    +0.096 A 
ATOM      6  C   LIG A   1      -7.456   1.850 133.203  0.00  0.00    +0.166 A 
ATOM      7  C   LIG A   1      -7.737   1.447 131.888  0.00  0.00    +0.204 A 
ATOM      8  C   LIG A   1      -8.449   2.334 131.054  0.00  0.00    +0.177 A 
ATOM      9  O   LIG A   1      -8.964   5.164 133.362  0.00  0.00    -0.462 OA
ATOM     10  C   LIG A   1      -9.685   6.017 132.564  0.00  0.00    +0.208 A 
ATOM     11  C   LIG A   1     -10.042   5.830 131.282  0.00  0.00    +0.064 A 
ENDROOT
BRANCH  11  12
ATOM     12  C   LIG A   1     -10.832   6.853 130.550  0.00  0.00    -0.011 A 
ATOM     13  C   LIG A   1     -10.292   7.534 129.447  0.00  0.00    +0.012 A 
ATOM     14  C   LIG A   1     -11.031   8.502 128.754  0.00  0.00    +0.046 A 
ATOM     15  C   LIG A   1     -12.328   8.788 129.154  0.00  0.00    +0.117 A 
ATOM     16  C   LIG A   1     -12.892   8.133 130.238  0.00  0.00    +0.046 A 
ATOM     17  C   LIG A   1     -12.145   7.180 130.939  0.00  0.00    +0.012 A 
BRANCH  15  18
ATOM     18  O   LIG A   1     -13.087   9.714 128.504  0.00  0.00    -0.507 OA
ATOM     19  H   LIG A   1     -12.496  10.363 128.089  0.00  0.00    +0.292 HD
ENDBRANCH  15  18
ENDBRANCH  11  12
BRANCH   8  20
ATOM     20  O   LIG A   1      -8.723   1.927 129.766  0.00  0.00    -0.503 OA
ATOM     21  H   LIG A   1      -8.565   0.961 129.699  0.00  0.00    +0.292 HD
ENDBRANCH   8  20
BRANCH   7  22
ATOM     22  O   LIG A   1      -7.394   0.261 131.291  0.00  0.00    -0.488 OA
ATOM     23  C   LIG A   1      -8.121  -0.913 131.612  0.00  0.00    +0.277 C 
ENDBRANCH   7  22
BRANCH   6  24
ATOM     24  O   LIG A   1      -6.771   1.043 134.069  0.00  0.00    -0.503 OA
ATOM     25  H   LIG A   1      -7.396   0.564 134.640  0.00  0.00    +0.292 HD
ENDBRANCH   6  24
TORSDOF 5
ENDMDL
MODEL 3
REMARK VINA RESULT:      -6.9      3.715      7.495
REMARK  Name = NuBBE_1656
REMARK  6 active torsions:
REMARK  status: ('A' for Active; 'I' for Inactive)
REMARK    1  A    between atoms: C_6  and  O_12
REMARK    2  A    between atoms: C_7  and  O_10
REMARK    3  A    between atoms: C_8  and  O_9
REMARK    4  A    between atoms: O_10  and  C_11
REMARK    5  A    between atoms: C_15  and  C_16
REMARK    6  A    between atoms: C_19  and  O_22
REMARK                            x       y       z     vdW  Elec       q    Type
REMARK                         _______ _______ _______ _____ _____    ______ ____
ROOT
ATOM      1  O   LIG A   1      -6.207   7.446 130.300  0.00  0.00    -0.286 OA
ATOM      2  C   LIG A   1      -6.593   6.765 131.248  0.00  0.00    +0.204 A 
ATOM      3  C   LIG A   1      -8.041   6.583 131.454  0.00  0.00    +0.110 A 
ATOM      4  C   LIG A   1      -8.463   5.786 132.510  0.00  0.00    +0.146 A 
ATOM      5  C   LIG A   1      -9.823   5.580 132.739  0.00  0.00    +0.096 A 
ATOM      6  C   LIG A   1     -10.774   6.182 131.908  0.00  0.00    +0.166 A 
ATOM      7  C   LIG A   1     -10.376   6.997 130.836  0.00  0.00    +0.204 A 
ATOM      8  C   LIG A   1      -8.995   7.189 130.620  0.00  0.00    +0.177 A 
ATOM      9  O   LIG A   1      -7.593   5.171 133.370  0.00  0.00    -0.462 OA
ATOM     10  C   LIG A   1      -6.249   5.381 133.183  0.00  0.00    +0.208 A 
ATOM     11  C   LIG A   1      -5.663   6.106 132.214  0.00  0.00    +0.064 A 
ENDROOT
BRANCH  11  12
ATOM     12  C   LIG A   1      -4.186   6.242 132.148  0.00  0.00    -0.011 A 
ATOM     13  C   LIG A   1      -3.366   5.133 131.883  0.00  0.00    +0.012 A 
ATOM     14  C   LIG A   1      -1.972   5.254 131.822  0.00  0.00    +0.046 A 
ATOM     15  C   LIG A   1      -1.384   6.496 132.013  0.00  0.00    +0.117 A 
ATOM     16  C   LIG A   1      -2.164   7.612 132.275  0.00  0.00    +0.046 A 
ATOM     17  C   LIG A   1      -3.555   7.484 132.353  0.00  0.00    +0.012 A 
BRANCH  15  18
ATOM     18  O   LIG A   1      -0.034   6.663 131.952  0.00  0.00    -0.507 OA
ATOM     19  H   LIG A   1       0.236   6.670 131.019  0.00  0.00    +0.292 HD
ENDBRANCH  15  18
ENDBRANCH  11  12
BRANCH   8  20
ATOM     20  O   LIG A   1      -8.614   7.992 129.568  0.00  0.00    -0.503 OA
ATOM     21  H   LIG A   1      -8.182   7.436 128.885  0.00  0.00    +0.292 HD
ENDBRANCH   8  20
BRANCH   7  22
ATOM     22  O   LIG A   1     -11.184   7.649 129.942  0.00  0.00    -0.488 OA
ATOM     23  C   LIG A   1     -11.857   6.903 128.942  0.00  0.00    +0.277 C 
ENDBRANCH   7  22
BRANCH   6  24
ATOM     24  O   LIG A   1     -12.095   5.952 132.181  0.00  0.00    -0.503 OA
ATOM     25  H   LIG A   1     -12.285   5.001 132.120  0.00  0.00    +0.292 HD
ENDBRANCH   6  24
TORSDOF 5
ENDMDL
MODEL 4
REMARK VINA RESULT:      -6.8      8.804     11.149
REMARK  Name = NuBBE_1656
REMARK  6 active torsions:
REMARK  status: ('A' for Active; 'I' for Inactive)
REMARK    1  A    between atoms: C_6  and  O_12
REMARK    2  A    between atoms: C_7  and  O_10
REMARK    3  A    between atoms: C_8  and  O_9
REMARK    4  A    between atoms: O_10  and  C_11
REMARK    5  A    between atoms: C_15  and  C_16
REMARK    6  A    between atoms: C_19  and  O_22
REMARK                            x       y       z     vdW  Elec       q    Type
REMARK                         _______ _______ _______ _____ _____    ______ ____
ROOT
ATOM      1  O   LIG A   1      -5.620  -1.977 128.108  0.00  0.00    -0.286 OA
ATOM      2  C   LIG A   1      -6.726  -2.478 127.917  0.00  0.00    +0.204 A 
ATOM      3  C   LIG A   1      -7.410  -2.233 126.635  0.00  0.00    +0.110 A 
ATOM      4  C   LIG A   1      -8.646  -2.831 126.420  0.00  0.00    +0.146 A 
ATOM      5  C   LIG A   1      -9.326  -2.632 125.220  0.00  0.00    +0.096 A 
ATOM      6  C   LIG A   1      -8.772  -1.820 124.224  0.00  0.00    +0.166 A 
ATOM      7  C   LIG A   1      -7.527  -1.200 124.417  0.00  0.00    +0.204 A 
ATOM      8  C   LIG A   1      -6.854  -1.417 125.637  0.00  0.00    +0.177 A 
ATOM      9  O   LIG A   1      -9.255  -3.630 127.350  0.00  0.00    -0.462 OA
ATOM     10  C   LIG A   1      -8.618  -3.819 128.551  0.00  0.00    +0.208 A 
ATOM     11  C   LIG A   1      -7.423  -3.333 128.926  0.00  0.00    +0.064 A 
ENDROOT
BRANCH  11  12
ATOM     12  C   LIG A   1      -6.866  -3.624 130.272  0.00  0.00    -0.011 A 
ATOM     13  C   LIG A   1      -7.310  -2.927 131.408  0.00  0.00    +0.012 A 
ATOM     14  C   LIG A   1      -6.788  -3.195 132.679  0.00  0.00    +0.046 A 
ATOM     15  C   LIG A   1      -5.820  -4.179 132.827  0.00  0.00    +0.117 A 
ATOM     16  C   LIG A   1      -5.360  -4.886 131.727  0.00  0.00    +0.046 A 
ATOM     17  C   LIG A   1      -5.871  -4.604 130.457  0.00  0.00    +0.012 A 
BRANCH  15  18
ATOM     18  O   LIG A   1      -5.291  -4.480 134.046  0.00  0.00    -0.507 OA
ATOM     19  H   LIG A   1      -5.388  -3.707 134.626  0.00  0.00    +0.292 HD
ENDBRANCH  15  18
ENDBRANCH  11  12
BRANCH   8  20
ATOM     20  O   LIG A   1      -5.634  -0.802 125.818  0.00  0.00    -0.503 OA
ATOM     21  H   LIG A   1      -5.383  -0.346 124.986  0.00  0.00    +0.292 HD
ENDBRANCH   8  20
BRANCH   7  22
ATOM     22  O   LIG A   1      -6.860  -0.384 123.540  0.00  0.00    -0.488 OA
ATOM     23  C   LIG A   1      -7.254   0.972 123.419  0.00  0.00    +0.277 C 
ENDBRANCH   7  22
BRANCH   6  24
ATOM     24  O   LIG A   1      -9.484  -1.654 123.068  0.00  0.00    -0.503 OA
ATOM     25  H   LIG A   1      -9.126  -2.230 122.372  0.00  0.00    +0.292 HD
ENDBRANCH   6  24
TORSDOF 5
ENDMDL
MODEL 5
REMARK VINA RESULT:      -6.4      7.600      9.541
REMARK  Name = NuBBE_1656
REMARK  6 active torsions:
REMARK  status: ('A' for Active; 'I' for Inactive)
REMARK    1  A    between atoms: C_6  and  O_12
REMARK    2  A    between atoms: C_7  and  O_10
REMARK    3  A    between atoms: C_8  and  O_9
REMARK    4  A    between atoms: O_10  and  C_11
REMARK    5  A    between atoms: C_15  and  C_16
REMARK    6  A    between atoms: C_19  and  O_22
REMARK                            x       y       z     vdW  Elec       q    Type
REMARK                         _______ _______ _______ _____ _____    ______ ____
ROOT
ATOM      1  O   LIG A   1      -6.020   1.141 126.565  0.00  0.00    -0.286 OA
ATOM      2  C   LIG A   1      -6.474   1.864 125.680  0.00  0.00    +0.204 A 
ATOM      3  C   LIG A   1      -7.542   1.341 124.810  0.00  0.00    +0.110 A 
ATOM      4  C   LIG A   1      -8.069   2.178 123.834  0.00  0.00    +0.146 A 
ATOM      5  C   LIG A   1      -9.085   1.730 122.992  0.00  0.00    +0.096 A 
ATOM      6  C   LIG A   1      -9.578   0.427 123.120  0.00  0.00    +0.166 A 
ATOM      7  C   LIG A   1      -9.062  -0.442 124.095  0.00  0.00    +0.204 A 
ATOM      8  C   LIG A   1      -8.036   0.033 124.938  0.00  0.00    +0.177 A 
ATOM      9  O   LIG A   1      -7.632   3.462 123.643  0.00  0.00    -0.462 OA
ATOM     10  C   LIG A   1      -6.612   3.919 124.441  0.00  0.00    +0.208 A 
ATOM     11  C   LIG A   1      -5.995   3.258 125.436  0.00  0.00    +0.064 A 
ENDROOT
BRANCH  11  12
ATOM     12  C   LIG A   1      -4.898   3.891 126.210  0.00  0.00    -0.011 A 
ATOM     13  C   LIG A   1      -3.597   3.361 126.192  0.00  0.00    +0.012 A 
ATOM     14  C   LIG A   1      -2.557   3.951 126.921  0.00  0.00    +0.046 A 
ATOM     15  C   LIG A   1      -2.810   5.092 127.669  0.00  0.00    +0.117 A 
ATOM     16  C   LIG A   1      -4.082   5.643 127.709  0.00  0.00    +0.046 A 
ATOM     17  C   LIG A   1      -5.121   5.040 126.993  0.00  0.00    +0.012 A 
BRANCH  15  18
ATOM     18  O   LIG A   1      -1.827   5.706 128.387  0.00  0.00    -0.507 OA
ATOM     19  H   LIG A   1      -2.240   6.225 129.096  0.00  0.00    +0.292 HD
ENDBRANCH  15  18
ENDBRANCH  11  12
BRANCH   8  20
ATOM     20  O   LIG A   1      -7.533  -0.828 125.889  0.00  0.00    -0.503 OA
ATOM     21  H   LIG A   1      -8.201  -0.940 126.599  0.00  0.00    +0.292 HD
ENDBRANCH   8  20
BRANCH   7  22
ATOM     22  O   LIG A   1      -9.441  -1.737 124.340  0.00  0.00    -0.488 OA
ATOM     23  C   LIG A   1      -9.040  -2.758 123.443  0.00  0.00    +0.277 C 
ENDBRANCH   7  22
BRANCH   6  24
ATOM     24  O   LIG A   1     -10.572   0.035 122.265  0.00  0.00    -0.503 OA
ATOM     25  H   LIG A   1     -11.434   0.335 122.599  0.00  0.00    +0.292 HD
ENDBRANCH   6  24
TORSDOF 5
ENDMDL
MODEL 6
REMARK VINA RESULT:      -6.4      2.786      7.321
REMARK  Name = NuBBE_1656
REMARK  6 active torsions:
REMARK  status: ('A' for Active; 'I' for Inactive)
REMARK    1  A    between atoms: C_6  and  O_12
REMARK    2  A    between atoms: C_7  and  O_10
REMARK    3  A    between atoms: C_8  and  O_9
REMARK    4  A    between atoms: O_10  and  C_11
REMARK    5  A    between atoms: C_15  and  C_16
REMARK    6  A    between atoms: C_19  and  O_22
REMARK                            x       y       z     vdW  Elec       q    Type
REMARK                         _______ _______ _______ _____ _____    ______ ____
ROOT
ATOM      1  O   LIG A   1      -7.147   7.030 130.307  0.00  0.00    -0.286 OA
ATOM      2  C   LIG A   1      -7.792   6.512 131.217  0.00  0.00    +0.204 A 
ATOM      3  C   LIG A   1      -9.259   6.651 131.221  0.00  0.00    +0.110 A 
ATOM      4  C   LIG A   1      -9.979   6.034 132.236  0.00  0.00    +0.146 A 
ATOM      5  C   LIG A   1     -11.369   6.134 132.277  0.00  0.00    +0.096 A 
ATOM      6  C   LIG A   1     -12.050   6.864 131.297  0.00  0.00    +0.166 A 
ATOM      7  C   LIG A   1     -11.348   7.501 130.262  0.00  0.00    +0.204 A 
ATOM      8  C   LIG A   1      -9.942   7.385 130.238  0.00  0.00    +0.177 A 
ATOM      9  O   LIG A   1      -9.383   5.310 133.235  0.00  0.00    -0.462 OA
ATOM     10  C   LIG A   1      -8.013   5.221 133.233  0.00  0.00    +0.208 A 
ATOM     11  C   LIG A   1      -7.162   5.740 132.330  0.00  0.00    +0.064 A 
ENDROOT
BRANCH  11  12
ATOM     12  C   LIG A   1      -5.695   5.559 132.470  0.00  0.00    -0.011 A 
ATOM     13  C   LIG A   1      -4.956   6.310 133.399  0.00  0.00    +0.012 A 
ATOM     14  C   LIG A   1      -3.572   6.147 133.534  0.00  0.00    +0.046 A 
ATOM     15  C   LIG A   1      -2.913   5.215 132.745  0.00  0.00    +0.117 A 
ATOM     16  C   LIG A   1      -3.612   4.457 131.818  0.00  0.00    +0.046 A 
ATOM     17  C   LIG A   1      -4.991   4.635 131.673  0.00  0.00    +0.012 A 
BRANCH  15  18
ATOM     18  O   LIG A   1      -1.569   5.016 132.848  0.00  0.00    -0.507 OA
ATOM     19  H   LIG A   1      -1.173   5.791 133.280  0.00  0.00    +0.292 HD
ENDBRANCH  15  18
ENDBRANCH  11  12
BRANCH   8  20
ATOM     20  O   LIG A   1      -9.261   8.017 129.220  0.00  0.00    -0.503 OA
ATOM     21  H   LIG A   1      -9.639   7.730 128.361  0.00  0.00    +0.292 HD
ENDBRANCH   8  20
BRANCH   7  22
ATOM     22  O   LIG A   1     -11.871   8.245 129.237  0.00  0.00    -0.488 OA
ATOM     23  C   LIG A   1     -12.672   9.376 129.540  0.00  0.00    +0.277 C 
ENDBRANCH   7  22
BRANCH   6  24
ATOM     24  O   LIG A   1     -13.413   6.934 131.387  0.00  0.00    -0.503 OA
ATOM     25  H   LIG A   1     -13.679   7.028 132.317  0.00  0.00    +0.292 HD
ENDBRANCH   6  24
TORSDOF 5
ENDMDL
MODEL 7
REMARK VINA RESULT:      -6.3      2.381      3.276
REMARK  Name = NuBBE_1656
REMARK  6 active torsions:
REMARK  status: ('A' for Active; 'I' for Inactive)
REMARK    1  A    between atoms: C_6  and  O_12
REMARK    2  A    between atoms: C_7  and  O_10
REMARK    3  A    between atoms: C_8  and  O_9
REMARK    4  A    between atoms: O_10  and  C_11
REMARK    5  A    between atoms: C_15  and  C_16
REMARK    6  A    between atoms: C_19  and  O_22
REMARK                            x       y       z     vdW  Elec       q    Type
REMARK                         _______ _______ _______ _____ _____    ______ ____
ROOT
ATOM      1  O   LIG A   1      -7.824   7.589 130.337  0.00  0.00    -0.286 OA
ATOM      2  C   LIG A   1      -8.253   6.819 131.194  0.00  0.00    +0.204 A 
ATOM      3  C   LIG A   1      -7.301   6.170 132.112  0.00  0.00    +0.110 A 
ATOM      4  C   LIG A   1      -7.801   5.327 133.096  0.00  0.00    +0.146 A 
ATOM      5  C   LIG A   1      -6.939   4.696 133.991  0.00  0.00    +0.096 A 
ATOM      6  C   LIG A   1      -5.558   4.903 133.899  0.00  0.00    +0.166 A 
ATOM      7  C   LIG A   1      -5.024   5.746 132.912  0.00  0.00    +0.204 A 
ATOM      8  C   LIG A   1      -5.915   6.377 132.019  0.00  0.00    +0.177 A 
ATOM      9  O   LIG A   1      -9.138   5.069 133.243  0.00  0.00    -0.462 OA
ATOM     10  C   LIG A   1     -10.007   5.656 132.356  0.00  0.00    +0.208 A 
ATOM     11  C   LIG A   1      -9.704   6.502 131.357  0.00  0.00    +0.064 A 
ENDROOT
BRANCH  11  12
ATOM     12  C   LIG A   1     -10.763   7.053 130.474  0.00  0.00    -0.011 A 
ATOM     13  C   LIG A   1     -10.446   7.636 129.236  0.00  0.00    +0.012 A 
ATOM     14  C   LIG A   1     -11.439   8.160 128.399  0.00  0.00    +0.046 A 
ATOM     15  C   LIG A   1     -12.769   8.093 128.791  0.00  0.00    +0.117 A 
ATOM     16  C   LIG A   1     -13.117   7.524 130.006  0.00  0.00    +0.046 A 
ATOM     17  C   LIG A   1     -12.121   7.017 130.847  0.00  0.00    +0.012 A 
BRANCH  15  18
ATOM     18  O   LIG A   1     -13.769   8.580 128.005  0.00  0.00    -0.507 OA
ATOM     19  H   LIG A   1     -13.408   8.767 127.123  0.00  0.00    +0.292 HD
ENDBRANCH  15  18
ENDBRANCH  11  12
BRANCH   8  20
ATOM     20  O   LIG A   1      -5.382   7.200 131.051  0.00  0.00    -0.503 OA
ATOM     21  H   LIG A   1      -4.741   7.811 131.473  0.00  0.00    +0.292 HD
ENDBRANCH   8  20
BRANCH   7  22
ATOM     22  O   LIG A   1      -3.703   6.045 132.699  0.00  0.00    -0.488 OA
ATOM     23  C   LIG A   1      -3.056   6.976 133.549  0.00  0.00    +0.277 C 
ENDBRANCH   7  22
BRANCH   6  24
ATOM     24  O   LIG A   1      -4.756   4.255 134.799  0.00  0.00    -0.503 OA
ATOM     25  H   LIG A   1      -4.454   4.877 135.482  0.00  0.00    +0.292 HD
ENDBRANCH   6  24
TORSDOF 5
ENDMDL
MODEL 8
REMARK VINA RESULT:      -6.3      3.333      4.509
REMARK  Name = NuBBE_1656
REMARK  6 active torsions:
REMARK  status: ('A' for Active; 'I' for Inactive)
REMARK    1  A    between atoms: C_6  and  O_12
REMARK    2  A    between atoms: C_7  and  O_10
REMARK    3  A    between atoms: C_8  and  O_9
REMARK    4  A    between atoms: O_10  and  C_11
REMARK    5  A    between atoms: C_15  and  C_16
REMARK    6  A    between atoms: C_19  and  O_22
REMARK                            x       y       z     vdW  Elec       q    Type
REMARK                         _______ _______ _______ _____ _____    ______ ____
ROOT
ATOM      1  O   LIG A   1      -6.949   7.555 130.454  0.00  0.00    -0.286 OA
ATOM      2  C   LIG A   1      -7.038   6.772 131.398  0.00  0.00    +0.204 A 
ATOM      3  C   LIG A   1      -5.808   6.331 132.079  0.00  0.00    +0.110 A 
ATOM      4  C   LIG A   1      -5.925   5.472 133.164  0.00  0.00    +0.146 A 
ATOM      5  C   LIG A   1      -4.789   5.033 133.842  0.00  0.00    +0.096 A 
ATOM      6  C   LIG A   1      -3.519   5.452 133.430  0.00  0.00    +0.166 A 
ATOM      7  C   LIG A   1      -3.371   6.317 132.334  0.00  0.00    +0.204 A 
ATOM      8  C   LIG A   1      -4.534   6.751 131.663  0.00  0.00    +0.177 A 
ATOM      9  O   LIG A   1      -7.132   5.012 133.620  0.00  0.00    -0.462 OA
ATOM     10  C   LIG A   1      -8.264   5.407 132.951  0.00  0.00    +0.208 A 
ATOM     11  C   LIG A   1      -8.341   6.238 131.897  0.00  0.00    +0.064 A 
ENDROOT
BRANCH  11  12
ATOM     12  C   LIG A   1      -9.650   6.567 131.277  0.00  0.00    -0.011 A 
ATOM     13  C   LIG A   1      -9.721   7.171 130.010  0.00  0.00    +0.012 A 
ATOM     14  C   LIG A   1     -10.951   7.486 129.420  0.00  0.00    +0.046 A 
ATOM     15  C   LIG A   1     -12.128   7.186 130.091  0.00  0.00    +0.117 A 
ATOM     16  C   LIG A   1     -12.094   6.589 131.342  0.00  0.00    +0.046 A 
ATOM     17  C   LIG A   1     -10.863   6.291 131.935  0.00  0.00    +0.012 A 
BRANCH  15  18
ATOM     18  O   LIG A   1     -13.347   7.465 129.551  0.00  0.00    -0.507 OA
ATOM     19  H   LIG A   1     -14.035   7.161 130.166  0.00  0.00    +0.292 HD
ENDBRANCH  15  18
ENDBRANCH  11  12
BRANCH   8  20
ATOM     20  O   LIG A   1      -4.379   7.597 130.587  0.00  0.00    -0.503 OA
ATOM     21  H   LIG A   1      -3.960   7.100 129.852  0.00  0.00    +0.292 HD
ENDBRANCH   8  20
BRANCH   7  22
ATOM     22  O   LIG A   1      -2.202   6.810 131.816  0.00  0.00    -0.488 OA
ATOM     23  C   LIG A   1      -1.514   7.837 132.511  0.00  0.00    +0.277 C 
ENDBRANCH   7  22
BRANCH   6  24
ATOM     24  O   LIG A   1      -2.438   4.987 134.127  0.00  0.00    -0.503 OA
ATOM     25  H   LIG A   1      -2.549   5.174 135.074  0.00  0.00    +0.292 HD
ENDBRANCH   6  24
TORSDOF 5
ENDMDL
MODEL 9
REMARK VINA RESULT:      -6.2      7.745      8.776
REMARK  Name = NuBBE_1656
REMARK  6 active torsions:
REMARK  status: ('A' for Active; 'I' for Inactive)
REMARK    1  A    between atoms: C_6  and  O_12
REMARK    2  A    between atoms: C_7  and  O_10
REMARK    3  A    between atoms: C_8  and  O_9
REMARK    4  A    between atoms: O_10  and  C_11
REMARK    5  A    between atoms: C_15  and  C_16
REMARK    6  A    between atoms: C_19  and  O_22
REMARK                            x       y       z     vdW  Elec       q    Type
REMARK                         _______ _______ _______ _____ _____    ______ ____
ROOT
ATOM      1  O   LIG A   1      -8.278  -1.081 130.657  0.00  0.00    -0.286 OA
ATOM      2  C   LIG A   1      -7.580  -2.092 130.704  0.00  0.00    +0.204 A 
ATOM      3  C   LIG A   1      -6.920  -2.445 131.973  0.00  0.00    +0.110 A 
ATOM      4  C   LIG A   1      -6.159  -3.607 132.022  0.00  0.00    +0.146 A 
ATOM      5  C   LIG A   1      -5.522  -3.984 133.202  0.00  0.00    +0.096 A 
ATOM      6  C   LIG A   1      -5.638  -3.190 134.348  0.00  0.00    +0.166 A 
ATOM      7  C   LIG A   1      -6.397  -2.008 134.327  0.00  0.00    +0.204 A 
ATOM      8  C   LIG A   1      -7.036  -1.647 133.122  0.00  0.00    +0.177 A 
ATOM      9  O   LIG A   1      -5.992  -4.430 130.940  0.00  0.00    -0.462 OA
ATOM     10  C   LIG A   1      -6.587  -4.066 129.757  0.00  0.00    +0.208 A 
ATOM     11  C   LIG A   1      -7.362  -2.991 129.531  0.00  0.00    +0.064 A 
ENDROOT
BRANCH  11  12
ATOM     12  C   LIG A   1      -7.932  -2.729 128.185  0.00  0.00    -0.011 A 
ATOM     13  C   LIG A   1      -8.817  -3.639 127.583  0.00  0.00    +0.012 A 
ATOM     14  C   LIG A   1      -9.357  -3.400 126.313  0.00  0.00    +0.046 A 
ATOM     15  C   LIG A   1      -9.024  -2.235 125.636  0.00  0.00    +0.117 A 
ATOM     16  C   LIG A   1      -8.154  -1.316 126.202  0.00  0.00    +0.046 A 
ATOM     17  C   LIG A   1      -7.603  -1.566 127.463  0.00  0.00    +0.012 A 
BRANCH  15  18
ATOM     18  O   LIG A   1      -9.532  -1.956 124.403  0.00  0.00    -0.507 OA
ATOM     19  H   LIG A   1      -9.251  -2.653 123.787  0.00  0.00    +0.292 HD
ENDBRANCH  15  18
ENDBRANCH  11  12
BRANCH   8  20
ATOM     20  O   LIG A   1      -7.775  -0.484 133.110  0.00  0.00    -0.503 OA
ATOM     21  H   LIG A   1      -8.465  -0.555 132.415  0.00  0.00    +0.292 HD
ENDBRANCH   8  20
BRANCH   7  22
ATOM     22  O   LIG A   1      -6.603  -1.133 135.361  0.00  0.00    -0.488 OA
ATOM     23  C   LIG A   1      -5.553  -0.266 135.756  0.00  0.00    +0.277 C 
ENDBRANCH   7  22
BRANCH   6  24
ATOM     24  O   LIG A   1      -4.988  -3.603 135.479  0.00  0.00    -0.503 OA
ATOM     25  H   LIG A   1      -5.634  -3.828 136.169  0.00  0.00    +0.292 HD
ENDBRANCH   6  24
TORSDOF 5
ENDMDL
