MODEL 1
REMARK VINA RESULT:      -7.6      0.000      0.000
REMARK  Name = NuBBE_947
REMARK  5 active torsions:
REMARK  status: ('A' for Active; 'I' for Inactive)
REMARK    1  A    between atoms: C_5  and  O_6
REMARK    2  A    between atoms: C_10  and  C_11
REMARK    3  A    between atoms: C_14  and  O_15
REMARK    4  A    between atoms: C_16  and  O_17
REMARK    5  A    between atoms: O_17  and  C_18
REMARK                            x       y       z     vdW  Elec       q    Type
REMARK                         _______ _______ _______ _____ _____    ______ ____
ROOT
ATOM      1  O   LIG A   1     -13.148   7.688 131.789  0.00  0.00    -0.283 OA
ATOM      2  C   LIG A   1     -12.437   7.847 130.804  0.00  0.00    +0.232 C 
ATOM      3  C   LIG A   1     -11.327   6.912 130.481  0.00  0.00    +0.082 A 
ATOM      4  C   LIG A   1     -10.768   6.924 129.202  0.00  0.00    +0.078 A 
ATOM      5  C   LIG A   1      -9.787   5.980 128.849  0.00  0.00    +0.136 A 
ATOM      6  C   LIG A   1      -9.353   5.023 129.771  0.00  0.00    +0.043 A 
ATOM      7  C   LIG A   1      -9.865   5.039 131.073  0.00  0.00    +0.030 A 
ATOM      8  C   LIG A   1      -9.301   4.084 132.028  0.00  0.00    +0.052 C 
ATOM      9  C   LIG A   1      -8.550   3.058 131.595  0.00  0.00    +0.096 C 
ATOM     10  C   LIG A   1      -7.994   2.014 132.511  0.00  0.00    +0.085 C 
ATOM     11  O   LIG A   1      -8.236   2.860 130.267  0.00  0.00    -0.492 OA
ATOM     12  C   LIG A   1      -8.267   4.032 129.434  0.00  0.00    +0.268 C 
ATOM     13  C   LIG A   1     -10.854   5.977 131.419  0.00  0.00    +0.136 A 
ATOM     14  C   LIG A   1     -12.717   8.977 129.856  0.00  0.00    +0.171 C 
ATOM     15  C   LIG A   1     -12.125   8.989 128.654  0.00  0.00    +0.101 C 
ATOM     16  C   LIG A   1     -11.189   7.942 128.229  0.00  0.00    +0.194 C 
ATOM     17  O   LIG A   1     -10.743   7.939 127.085  0.00  0.00    -0.287 OA
ENDROOT
BRANCH   5  18
ATOM     18  O   LIG A   1      -9.204   5.957 127.608  0.00  0.00    -0.506 OA
ATOM     19  H   LIG A   1      -8.938   5.033 127.392  0.00  0.00    +0.292 HD
ENDBRANCH   5  18
BRANCH  13  20
ATOM     20  O   LIG A   1     -11.325   5.997 132.703  0.00  0.00    -0.505 OA
ATOM     21  H   LIG A   1     -12.296   6.040 132.667  0.00  0.00    +0.292 HD
ENDBRANCH  13  20
BRANCH  14  22
ATOM     22  O   LIG A   1     -13.620   9.918 130.312  0.00  0.00    -0.491 OA
ATOM     23  C   LIG A   1     -13.496  11.260 129.860  0.00  0.00    +0.277 C 
ENDBRANCH  14  22
TORSDOF 3
ENDMDL
MODEL 2
REMARK VINA RESULT:      -7.0      1.262      6.001
REMARK  Name = NuBBE_947
REMARK  5 active torsions:
REMARK  status: ('A' for Active; 'I' for Inactive)
REMARK    1  A    between atoms: C_5  and  O_6
REMARK    2  A    between atoms: C_10  and  C_11
REMARK    3  A    between atoms: C_14  and  O_15
REMARK    4  A    between atoms: C_16  and  O_17
REMARK    5  A    between atoms: O_17  and  C_18
REMARK                            x       y       z     vdW  Elec       q    Type
REMARK                         _______ _______ _______ _____ _____    ______ ____
ROOT
ATOM      1  O   LIG A   1      -9.414   4.432 133.591  0.00  0.00    -0.283 OA
ATOM      2  C   LIG A   1      -9.142   4.095 132.444  0.00  0.00    +0.232 C 
ATOM      3  C   LIG A   1      -9.582   4.893 131.268  0.00  0.00    +0.082 A 
ATOM      4  C   LIG A   1      -8.983   4.676 130.027  0.00  0.00    +0.078 A 
ATOM      5  C   LIG A   1      -9.315   5.489 128.929  0.00  0.00    +0.136 A 
ATOM      6  C   LIG A   1     -10.252   6.518 129.059  0.00  0.00    +0.043 A 
ATOM      7  C   LIG A   1     -10.900   6.707 130.285  0.00  0.00    +0.030 A 
ATOM      8  C   LIG A   1     -11.947   7.728 130.339  0.00  0.00    +0.052 C 
ATOM      9  C   LIG A   1     -12.064   8.629 129.351  0.00  0.00    +0.096 C 
ATOM     10  C   LIG A   1     -13.073   9.735 129.373  0.00  0.00    +0.085 C 
ATOM     11  O   LIG A   1     -11.259   8.633 128.232  0.00  0.00    -0.492 OA
ATOM     12  C   LIG A   1     -10.662   7.371 127.886  0.00  0.00    +0.268 C 
ATOM     13  C   LIG A   1     -10.558   5.900 131.383  0.00  0.00    +0.136 A 
ATOM     14  C   LIG A   1      -8.295   2.879 132.204  0.00  0.00    +0.171 C 
ATOM     15  C   LIG A   1      -7.775   2.670 130.987  0.00  0.00    +0.101 C 
ATOM     16  C   LIG A   1      -8.019   3.579 129.862  0.00  0.00    +0.194 C 
ATOM     17  O   LIG A   1      -7.446   3.402 128.790  0.00  0.00    -0.287 OA
ENDROOT
BRANCH   5  18
ATOM     18  O   LIG A   1      -8.758   5.309 127.688  0.00  0.00    -0.506 OA
ATOM     19  H   LIG A   1      -9.401   5.597 127.000  0.00  0.00    +0.292 HD
ENDBRANCH   5  18
BRANCH  13  20
ATOM     20  O   LIG A   1     -11.220   6.079 132.567  0.00  0.00    -0.505 OA
ATOM     21  H   LIG A   1     -12.174   6.094 132.380  0.00  0.00    +0.292 HD
ENDBRANCH  13  20
BRANCH  14  22
ATOM     22  O   LIG A   1      -8.091   2.077 133.310  0.00  0.00    -0.491 OA
ATOM     23  C   LIG A   1      -6.763   1.884 133.780  0.00  0.00    +0.277 C 
ENDBRANCH  14  22
TORSDOF 3
ENDMDL
MODEL 3
REMARK VINA RESULT:      -6.9      1.817      2.121
REMARK  Name = NuBBE_947
REMARK  5 active torsions:
REMARK  status: ('A' for Active; 'I' for Inactive)
REMARK    1  A    between atoms: C_5  and  O_6
REMARK    2  A    between atoms: C_10  and  C_11
REMARK    3  A    between atoms: C_14  and  O_15
REMARK    4  A    between atoms: C_16  and  O_17
REMARK    5  A    between atoms: O_17  and  C_18
REMARK                            x       y       z     vdW  Elec       q    Type
REMARK                         _______ _______ _______ _____ _____    ______ ____
ROOT
ATOM      1  O   LIG A   1     -12.441   7.025 131.671  0.00  0.00    -0.283 OA
ATOM      2  C   LIG A   1     -11.631   6.982 130.751  0.00  0.00    +0.232 C 
ATOM      3  C   LIG A   1     -10.286   6.372 130.921  0.00  0.00    +0.082 A 
ATOM      4  C   LIG A   1      -9.534   6.040 129.793  0.00  0.00    +0.078 A 
ATOM      5  C   LIG A   1      -8.305   5.372 129.933  0.00  0.00    +0.136 A 
ATOM      6  C   LIG A   1      -7.814   5.038 131.198  0.00  0.00    +0.043 A 
ATOM      7  C   LIG A   1      -8.532   5.417 132.338  0.00  0.00    +0.030 A 
ATOM      8  C   LIG A   1      -7.923   5.136 133.639  0.00  0.00    +0.052 C 
ATOM      9  C   LIG A   1      -6.879   4.297 133.729  0.00  0.00    +0.096 C 
ATOM     10  C   LIG A   1      -6.249   3.920 135.033  0.00  0.00    +0.085 C 
ATOM     11  O   LIG A   1      -6.299   3.690 132.635  0.00  0.00    -0.492 OA
ATOM     12  C   LIG A   1      -6.475   4.367 131.378  0.00  0.00    +0.268 C 
ATOM     13  C   LIG A   1      -9.766   6.075 132.194  0.00  0.00    +0.136 A 
ATOM     14  C   LIG A   1     -12.013   7.503 129.396  0.00  0.00    +0.171 C 
ATOM     15  C   LIG A   1     -11.244   7.211 128.339  0.00  0.00    +0.101 C 
ATOM     16  C   LIG A   1     -10.018   6.412 128.456  0.00  0.00    +0.194 C 
ATOM     17  O   LIG A   1      -9.394   6.087 127.449  0.00  0.00    -0.287 OA
ENDROOT
BRANCH   5  18
ATOM     18  O   LIG A   1      -7.527   5.032 128.855  0.00  0.00    -0.506 OA
ATOM     19  H   LIG A   1      -6.578   5.081 129.112  0.00  0.00    +0.292 HD
ENDBRANCH   5  18
BRANCH  13  20
ATOM     20  O   LIG A   1     -10.443   6.462 133.318  0.00  0.00    -0.505 OA
ATOM     21  H   LIG A   1     -11.368   6.177 133.225  0.00  0.00    +0.292 HD
ENDBRANCH  13  20
BRANCH  14  22
ATOM     22  O   LIG A   1     -13.186   8.232 129.355  0.00  0.00    -0.491 OA
ATOM     23  C   LIG A   1     -13.108   9.645 129.223  0.00  0.00    +0.277 C 
ENDBRANCH  14  22
TORSDOF 3
ENDMDL
MODEL 4
REMARK VINA RESULT:      -6.9      7.591      8.922
REMARK  Name = NuBBE_947
REMARK  5 active torsions:
REMARK  status: ('A' for Active; 'I' for Inactive)
REMARK    1  A    between atoms: C_5  and  O_6
REMARK    2  A    between atoms: C_10  and  C_11
REMARK    3  A    between atoms: C_14  and  O_15
REMARK    4  A    between atoms: C_16  and  O_17
REMARK    5  A    between atoms: O_17  and  C_18
REMARK                            x       y       z     vdW  Elec       q    Type
REMARK                         _______ _______ _______ _____ _____    ______ ____
ROOT
ATOM      1  O   LIG A   1      -8.185   2.706 125.690  0.00  0.00    -0.283 OA
ATOM      2  C   LIG A   1      -8.442   1.750 124.967  0.00  0.00    +0.232 C 
ATOM      3  C   LIG A   1      -8.464   0.357 125.489  0.00  0.00    +0.082 A 
ATOM      4  C   LIG A   1      -9.078  -0.648 124.740  0.00  0.00    +0.078 A 
ATOM      5  C   LIG A   1      -9.196  -1.948 125.263  0.00  0.00    +0.136 A 
ATOM      6  C   LIG A   1      -8.696  -2.255 126.532  0.00  0.00    +0.043 A 
ATOM      7  C   LIG A   1      -8.028  -1.269 127.266  0.00  0.00    +0.030 A 
ATOM      8  C   LIG A   1      -7.432  -1.671 128.542  0.00  0.00    +0.052 C 
ATOM      9  C   LIG A   1      -7.768  -2.842 129.106  0.00  0.00    +0.096 C 
ATOM     10  C   LIG A   1      -7.243  -3.284 130.435  0.00  0.00    +0.085 C 
ATOM     11  O   LIG A   1      -8.640  -3.738 128.525  0.00  0.00    -0.492 OA
ATOM     12  C   LIG A   1      -8.764  -3.653 127.095  0.00  0.00    +0.268 C 
ATOM     13  C   LIG A   1      -7.922   0.032 126.745  0.00  0.00    +0.136 A 
ATOM     14  C   LIG A   1      -8.803   1.978 123.528  0.00  0.00    +0.171 C 
ATOM     15  C   LIG A   1      -9.344   0.978 122.819  0.00  0.00    +0.101 C 
ATOM     16  C   LIG A   1      -9.581  -0.352 123.392  0.00  0.00    +0.194 C 
ATOM     17  O   LIG A   1     -10.166  -1.211 122.737  0.00  0.00    -0.287 OA
ENDROOT
BRANCH   5  18
ATOM     18  O   LIG A   1      -9.784  -2.970 124.563  0.00  0.00    -0.506 OA
ATOM     19  H   LIG A   1      -9.090  -3.466 124.069  0.00  0.00    +0.292 HD
ENDBRANCH   5  18
BRANCH  13  20
ATOM     20  O   LIG A   1      -7.243   0.978 127.464  0.00  0.00    -0.505 OA
ATOM     21  H   LIG A   1      -6.453   1.233 126.957  0.00  0.00    +0.292 HD
ENDBRANCH  13  20
BRANCH  14  22
ATOM     22  O   LIG A   1      -8.570   3.257 123.058  0.00  0.00    -0.491 OA
ATOM     23  C   LIG A   1      -8.396   3.450 121.661  0.00  0.00    +0.277 C 
ENDBRANCH  14  22
TORSDOF 3
ENDMDL
MODEL 5
REMARK VINA RESULT:      -6.9      3.509      7.007
REMARK  Name = NuBBE_947
REMARK  5 active torsions:
REMARK  status: ('A' for Active; 'I' for Inactive)
REMARK    1  A    between atoms: C_5  and  O_6
REMARK    2  A    between atoms: C_10  and  C_11
REMARK    3  A    between atoms: C_14  and  O_15
REMARK    4  A    between atoms: C_16  and  O_17
REMARK    5  A    between atoms: O_17  and  C_18
REMARK                            x       y       z     vdW  Elec       q    Type
REMARK                         _______ _______ _______ _____ _____    ______ ____
ROOT
ATOM      1  O   LIG A   1      -4.717   6.303 131.778  0.00  0.00    -0.283 OA
ATOM      2  C   LIG A   1      -5.605   6.009 132.570  0.00  0.00    +0.232 C 
ATOM      3  C   LIG A   1      -7.044   6.169 132.226  0.00  0.00    +0.082 A 
ATOM      4  C   LIG A   1      -8.011   5.524 132.998  0.00  0.00    +0.078 A 
ATOM      5  C   LIG A   1      -9.366   5.582 132.628  0.00  0.00    +0.136 A 
ATOM      6  C   LIG A   1      -9.766   6.291 131.492  0.00  0.00    +0.043 A 
ATOM      7  C   LIG A   1      -8.812   6.989 130.744  0.00  0.00    +0.030 A 
ATOM      8  C   LIG A   1      -9.297   7.800 129.626  0.00  0.00    +0.052 C 
ATOM      9  C   LIG A   1     -10.549   7.641 129.169  0.00  0.00    +0.096 C 
ATOM     10  C   LIG A   1     -11.088   8.394 127.994  0.00  0.00    +0.085 C 
ATOM     11  O   LIG A   1     -11.451   6.758 129.726  0.00  0.00    -0.492 OA
ATOM     12  C   LIG A   1     -11.218   6.411 131.102  0.00  0.00    +0.268 C 
ATOM     13  C   LIG A   1      -7.456   6.919 131.110  0.00  0.00    +0.136 A 
ATOM     14  C   LIG A   1      -5.252   5.418 133.903  0.00  0.00    +0.171 C 
ATOM     15  C   LIG A   1      -6.211   4.849 134.646  0.00  0.00    +0.101 C 
ATOM     16  C   LIG A   1      -7.613   4.800 134.214  0.00  0.00    +0.194 C 
ATOM     17  O   LIG A   1      -8.443   4.187 134.879  0.00  0.00    -0.287 OA
ENDROOT
BRANCH   5  18
ATOM     18  O   LIG A   1     -10.353   4.970 133.359  0.00  0.00    -0.506 OA
ATOM     19  H   LIG A   1     -10.243   3.994 133.298  0.00  0.00    +0.292 HD
ENDBRANCH   5  18
BRANCH  13  20
ATOM     20  O   LIG A   1      -6.538   7.629 130.384  0.00  0.00    -0.505 OA
ATOM     21  H   LIG A   1      -6.217   8.360 130.939  0.00  0.00    +0.292 HD
ENDBRANCH  13  20
BRANCH  14  22
ATOM     22  O   LIG A   1      -3.913   5.482 134.239  0.00  0.00    -0.491 OA
ATOM     23  C   LIG A   1      -3.482   6.495 135.138  0.00  0.00    +0.277 C 
ENDBRANCH  14  22
TORSDOF 3
ENDMDL
MODEL 6
REMARK VINA RESULT:      -6.9      1.399      3.360
REMARK  Name = NuBBE_947
REMARK  5 active torsions:
REMARK  status: ('A' for Active; 'I' for Inactive)
REMARK    1  A    between atoms: C_5  and  O_6
REMARK    2  A    between atoms: C_10  and  C_11
REMARK    3  A    between atoms: C_14  and  O_15
REMARK    4  A    between atoms: C_16  and  O_17
REMARK    5  A    between atoms: O_17  and  C_18
REMARK                            x       y       z     vdW  Elec       q    Type
REMARK                         _______ _______ _______ _____ _____    ______ ____
ROOT
ATOM      1  O   LIG A   1     -10.112   7.337 127.569  0.00  0.00    -0.283 OA
ATOM      2  C   LIG A   1     -10.662   7.019 128.617  0.00  0.00    +0.232 C 
ATOM      3  C   LIG A   1     -10.064   6.023 129.545  0.00  0.00    +0.082 A 
ATOM      4  C   LIG A   1     -10.532   5.938 130.857  0.00  0.00    +0.078 A 
ATOM      5  C   LIG A   1      -9.912   5.072 131.775  0.00  0.00    +0.136 A 
ATOM      6  C   LIG A   1      -8.826   4.280 131.389  0.00  0.00    +0.043 A 
ATOM      7  C   LIG A   1      -8.387   4.316 130.061  0.00  0.00    +0.030 A 
ATOM      8  C   LIG A   1      -7.316   3.391 129.684  0.00  0.00    +0.052 C 
ATOM      9  C   LIG A   1      -6.601   2.763 130.631  0.00  0.00    +0.096 C 
ATOM     10  C   LIG A   1      -5.456   1.852 130.315  0.00  0.00    +0.085 C 
ATOM     11  O   LIG A   1      -6.842   2.908 131.981  0.00  0.00    -0.492 OA
ATOM     12  C   LIG A   1      -8.176   3.307 132.340  0.00  0.00    +0.268 C 
ATOM     13  C   LIG A   1      -9.002   5.191 129.149  0.00  0.00    +0.136 A 
ATOM     14  C   LIG A   1     -11.946   7.687 129.018  0.00  0.00    +0.171 C 
ATOM     15  C   LIG A   1     -12.398   7.546 130.271  0.00  0.00    +0.101 C 
ATOM     16  C   LIG A   1     -11.692   6.739 131.274  0.00  0.00    +0.194 C 
ATOM     17  O   LIG A   1     -12.089   6.712 132.436  0.00  0.00    -0.287 OA
ENDROOT
BRANCH   5  18
ATOM     18  O   LIG A   1     -10.340   4.949 133.072  0.00  0.00    -0.506 OA
ATOM     19  H   LIG A   1     -10.966   5.681 133.278  0.00  0.00    +0.292 HD
ENDBRANCH   5  18
BRANCH  13  20
ATOM     20  O   LIG A   1      -8.578   5.195 127.848  0.00  0.00    -0.505 OA
ATOM     21  H   LIG A   1      -8.381   6.113 127.598  0.00  0.00    +0.292 HD
ENDBRANCH  13  20
BRANCH  14  22
ATOM     22  O   LIG A   1     -12.548   8.445 128.032  0.00  0.00    -0.491 OA
ATOM     23  C   LIG A   1     -13.529   9.402 128.408  0.00  0.00    +0.277 C 
ENDBRANCH  14  22
TORSDOF 3
ENDMDL
MODEL 7
REMARK VINA RESULT:      -6.8      2.189      6.532
REMARK  Name = NuBBE_947
REMARK  5 active torsions:
REMARK  status: ('A' for Active; 'I' for Inactive)
REMARK    1  A    between atoms: C_5  and  O_6
REMARK    2  A    between atoms: C_10  and  C_11
REMARK    3  A    between atoms: C_14  and  O_15
REMARK    4  A    between atoms: C_16  and  O_17
REMARK    5  A    between atoms: O_17  and  C_18
REMARK                            x       y       z     vdW  Elec       q    Type
REMARK                         _______ _______ _______ _____ _____    ______ ____
ROOT
ATOM      1  O   LIG A   1      -6.916   4.181 128.904  0.00  0.00    -0.283 OA
ATOM      2  C   LIG A   1      -7.110   4.711 129.992  0.00  0.00    +0.232 C 
ATOM      3  C   LIG A   1      -8.391   5.396 130.311  0.00  0.00    +0.082 A 
ATOM      4  C   LIG A   1      -8.703   5.685 131.640  0.00  0.00    +0.078 A 
ATOM      5  C   LIG A   1      -9.953   6.241 131.969  0.00  0.00    +0.136 A 
ATOM      6  C   LIG A   1     -10.894   6.519 130.974  0.00  0.00    +0.043 A 
ATOM      7  C   LIG A   1     -10.568   6.287 129.633  0.00  0.00    +0.030 A 
ATOM      8  C   LIG A   1     -11.548   6.694 128.624  0.00  0.00    +0.052 C 
ATOM      9  C   LIG A   1     -12.805   6.995 128.986  0.00  0.00    +0.096 C 
ATOM     10  C   LIG A   1     -13.870   7.360 128.000  0.00  0.00    +0.085 C 
ATOM     11  O   LIG A   1     -13.239   6.982 130.295  0.00  0.00    -0.492 OA
ATOM     12  C   LIG A   1     -12.220   7.162 131.294  0.00  0.00    +0.268 C 
ATOM     13  C   LIG A   1      -9.323   5.721 129.309  0.00  0.00    +0.136 A 
ATOM     14  C   LIG A   1      -6.060   4.626 131.062  0.00  0.00    +0.171 C 
ATOM     15  C   LIG A   1      -6.376   4.959 132.321  0.00  0.00    +0.101 C 
ATOM     16  C   LIG A   1      -7.714   5.428 132.697  0.00  0.00    +0.194 C 
ATOM     17  O   LIG A   1      -7.989   5.632 133.876  0.00  0.00    -0.287 OA
ENDROOT
BRANCH   5  18
ATOM     18  O   LIG A   1     -10.302   6.548 133.259  0.00  0.00    -0.506 OA
ATOM     19  H   LIG A   1     -10.533   5.720 133.738  0.00  0.00    +0.292 HD
ENDBRANCH   5  18
BRANCH  13  20
ATOM     20  O   LIG A   1      -9.009   5.524 127.992  0.00  0.00    -0.505 OA
ATOM     21  H   LIG A   1      -8.309   6.155 127.752  0.00  0.00    +0.292 HD
ENDBRANCH  13  20
BRANCH  14  22
ATOM     22  O   LIG A   1      -4.829   4.159 130.643  0.00  0.00    -0.491 OA
ATOM     23  C   LIG A   1      -3.760   5.085 130.501  0.00  0.00    +0.277 C 
ENDBRANCH  14  22
TORSDOF 3
ENDMDL
MODEL 8
REMARK VINA RESULT:      -6.6      8.912      9.620
REMARK  Name = NuBBE_947
REMARK  5 active torsions:
REMARK  status: ('A' for Active; 'I' for Inactive)
REMARK    1  A    between atoms: C_5  and  O_6
REMARK    2  A    between atoms: C_10  and  C_11
REMARK    3  A    between atoms: C_14  and  O_15
REMARK    4  A    between atoms: C_16  and  O_17
REMARK    5  A    between atoms: O_17  and  C_18
REMARK                            x       y       z     vdW  Elec       q    Type
REMARK                         _______ _______ _______ _____ _____    ______ ____
ROOT
ATOM      1  O   LIG A   1      -9.616  -2.460 125.063  0.00  0.00    -0.283 OA
ATOM      2  C   LIG A   1      -8.883  -1.505 125.297  0.00  0.00    +0.232 C 
ATOM      3  C   LIG A   1      -7.862  -1.549 126.377  0.00  0.00    +0.082 A 
ATOM      4  C   LIG A   1      -6.839  -0.599 126.394  0.00  0.00    +0.078 A 
ATOM      5  C   LIG A   1      -5.809  -0.685 127.348  0.00  0.00    +0.136 A 
ATOM      6  C   LIG A   1      -5.797  -1.714 128.295  0.00  0.00    +0.043 A 
ATOM      7  C   LIG A   1      -6.848  -2.637 128.322  0.00  0.00    +0.030 A 
ATOM      8  C   LIG A   1      -6.841  -3.630 129.397  0.00  0.00    +0.052 C 
ATOM      9  C   LIG A   1      -5.734  -3.824 130.131  0.00  0.00    +0.096 C 
ATOM     10  C   LIG A   1      -5.641  -4.863 131.204  0.00  0.00    +0.085 C 
ATOM     11  O   LIG A   1      -4.574  -3.099 129.956  0.00  0.00    -0.492 OA
ATOM     12  C   LIG A   1      -4.732  -1.800 129.359  0.00  0.00    +0.268 C 
ATOM     13  C   LIG A   1      -7.870  -2.555 127.360  0.00  0.00    +0.136 A 
ATOM     14  C   LIG A   1      -8.967  -0.274 124.442  0.00  0.00    +0.171 C 
ATOM     15  C   LIG A   1      -7.996   0.646 124.518  0.00  0.00    +0.101 C 
ATOM     16  C   LIG A   1      -6.852   0.508 125.427  0.00  0.00    +0.194 C 
ATOM     17  O   LIG A   1      -5.936   1.326 125.397  0.00  0.00    -0.287 OA
ENDROOT
BRANCH   5  18
ATOM     18  O   LIG A   1      -4.788   0.228 127.410  0.00  0.00    -0.506 OA
ATOM     19  H   LIG A   1      -3.953  -0.235 127.652  0.00  0.00    +0.292 HD
ENDBRANCH   5  18
BRANCH  13  20
ATOM     20  O   LIG A   1      -8.904  -3.449 127.416  0.00  0.00    -0.505 OA
ATOM     21  H   LIG A   1      -8.554  -4.295 127.742  0.00  0.00    +0.292 HD
ENDBRANCH  13  20
BRANCH  14  22
ATOM     22  O   LIG A   1     -10.059  -0.216 123.598  0.00  0.00    -0.491 OA
ATOM     23  C   LIG A   1     -10.070   0.755 122.560  0.00  0.00    +0.277 C 
ENDBRANCH  14  22
TORSDOF 3
ENDMDL
MODEL 9
REMARK VINA RESULT:      -6.5      7.373      9.704
REMARK  Name = NuBBE_947
REMARK  5 active torsions:
REMARK  status: ('A' for Active; 'I' for Inactive)
REMARK    1  A    between atoms: C_5  and  O_6
REMARK    2  A    between atoms: C_10  and  C_11
REMARK    3  A    between atoms: C_14  and  O_15
REMARK    4  A    between atoms: C_16  and  O_17
REMARK    5  A    between atoms: O_17  and  C_18
REMARK                            x       y       z     vdW  Elec       q    Type
REMARK                         _______ _______ _______ _____ _____    ______ ____
ROOT
ATOM      1  O   LIG A   1      -6.031  -1.730 124.318  0.00  0.00    -0.283 OA
ATOM      2  C   LIG A   1      -6.920  -0.898 124.178  0.00  0.00    +0.232 C 
ATOM      3  C   LIG A   1      -6.755   0.508 124.634  0.00  0.00    +0.082 A 
ATOM      4  C   LIG A   1      -7.629   1.490 124.165  0.00  0.00    +0.078 A 
ATOM      5  C   LIG A   1      -7.427   2.838 124.508  0.00  0.00    +0.136 A 
ATOM      6  C   LIG A   1      -6.358   3.215 125.326  0.00  0.00    +0.043 A 
ATOM      7  C   LIG A   1      -5.511   2.232 125.848  0.00  0.00    +0.030 A 
ATOM      8  C   LIG A   1      -4.472   2.669 126.782  0.00  0.00    +0.052 C 
ATOM      9  C   LIG A   1      -4.167   3.972 126.893  0.00  0.00    +0.096 C 
ATOM     10  C   LIG A   1      -3.077   4.478 127.784  0.00  0.00    +0.085 C 
ATOM     11  O   LIG A   1      -4.816   4.963 126.188  0.00  0.00    -0.492 OA
ATOM     12  C   LIG A   1      -6.149   4.648 125.748  0.00  0.00    +0.268 C 
ATOM     13  C   LIG A   1      -5.708   0.886 125.494  0.00  0.00    +0.136 A 
ATOM     14  C   LIG A   1      -8.192  -1.276 123.476  0.00  0.00    +0.171 C 
ATOM     15  C   LIG A   1      -9.037  -0.314 123.082  0.00  0.00    +0.101 C 
ATOM     16  C   LIG A   1      -8.777   1.109 123.330  0.00  0.00    +0.194 C 
ATOM     17  O   LIG A   1      -9.529   1.964 122.870  0.00  0.00    -0.287 OA
ENDROOT
BRANCH   5  18
ATOM     18  O   LIG A   1      -8.262   3.838 124.077  0.00  0.00    -0.506 OA
ATOM     19  H   LIG A   1      -8.526   3.660 123.145  0.00  0.00    +0.292 HD
ENDBRANCH   5  18
BRANCH  13  20
ATOM     20  O   LIG A   1      -4.887  -0.067 126.034  0.00  0.00    -0.505 OA
ATOM     21  H   LIG A   1      -5.187  -0.936 125.719  0.00  0.00    +0.292 HD
ENDBRANCH  13  20
BRANCH  14  22
ATOM     22  O   LIG A   1      -8.364  -2.630 123.259  0.00  0.00    -0.491 OA
ATOM     23  C   LIG A   1      -9.388  -3.311 123.972  0.00  0.00    +0.277 C 
ENDBRANCH  14  22
TORSDOF 3
ENDMDL
