MODEL 1
REMARK VINA RESULT:      -8.7      0.000      0.000
REMARK  Name = NuBBE_96
REMARK  15 active torsions:
REMARK  status: ('A' for Active; 'I' for Inactive)
REMARK    1  A    between atoms: C_2  and  C_3
REMARK    2  A    between atoms: C_4  and  O_33
REMARK    3  A    between atoms: C_8  and  C_29
REMARK    4  A    between atoms: C_9  and  C_10
REMARK    5  A    between atoms: C_10  and  C_11
REMARK    6  A    between atoms: CA_16  and  C_19
REMARK    7  A    between atoms: C_19  and  O_20
REMARK    8  A    between atoms: C_29  and  O_30
REMARK    9  A    between atoms: O_30  and  C_31
REMARK   10  A    between atoms: O_33  and  C_34
REMARK   11  A    between atoms: C_37  and  C_45
REMARK   12  A    between atoms: C_39  and  O_44
REMARK   13  A    between atoms: C_41  and  O_43
REMARK   14  A    between atoms: C_45  and  O_46
REMARK   15  A    between atoms: C_47  and  O_49
REMARK                            x       y       z     vdW  Elec       q    Type
REMARK                         _______ _______ _______ _____ _____    ______ ____
ROOT
ATOM      1  C   LIG A   1      -8.741   5.991 131.869  0.00  0.00    +0.088 C 
ATOM      2  C   LIG A   1      -8.727   7.017 130.687  0.00  0.00    +0.316 C 
ATOM      3  O   LIG A   1      -7.438   7.623 130.544  0.00  0.00    -0.470 OA
ATOM      4  C   LIG A   1      -6.355   6.830 130.736  0.00  0.00    +0.201 C 
ATOM      5  C   LIG A   1      -6.351   5.558 131.258  0.00  0.00    +0.075 C 
ATOM      6  C   LIG A   1      -7.640   4.884 131.723  0.00  0.00    +0.043 C 
ENDROOT
BRANCH   1   8
ATOM      7  C   LIG A   1     -11.317   6.218 132.062  0.00  0.00    +0.004 C 
ATOM      8  C   LIG A   1     -10.139   5.658 132.371  0.00  0.00    -0.025 C 
ENDBRANCH   1   8
BRANCH   5   9
ATOM      9  C   LIG A   1      -5.034   5.025 131.666  0.00  0.00    +0.338 C 
ATOM     10  O   LIG A   1      -4.840   4.518 132.763  0.00  0.00    -0.245 OA
BRANCH   9  11
ATOM     11  O   LIG A   1      -4.089   5.304 130.730  0.00  0.00    -0.465 OA
ATOM     12  C   LIG A   1      -2.809   5.794 131.166  0.00  0.00    +0.280 C 
ENDBRANCH   9  11
ENDBRANCH   5   9
BRANCH   6  13
ATOM     13  C   LIG A   1      -8.076   3.599 130.940  0.00  0.00    +0.034 C 
BRANCH  13  14
ATOM     14  C   LIG A   1      -7.263   3.135 129.686  0.00  0.00    +0.102 C 
ATOM     15  C   LIG A   1      -7.335   1.665 129.362  0.00  0.00    +0.037 A 
ATOM     16  C   LIG A   1      -7.327   1.107 128.092  0.00  0.00    -0.016 A 
ATOM     17  C   LIG A   1      -7.245   1.941 126.863  0.00  0.00    +0.067 C 
ATOM     18  CA  LIG A   1      -7.192   3.450 127.209  0.00  0.00    +0.168 C 
ATOM     19  N   LIG A   1      -7.842   3.833 128.505  0.00  0.00    -0.296 NA
ATOM     20  C   LIG A   1      -7.542  -0.293 128.215  0.00  0.00    +0.003 A 
ATOM     21  C   LIG A   1      -7.717  -1.354 127.307  0.00  0.00    +0.010 A 
ATOM     22  C   LIG A   1      -8.043  -2.625 127.801  0.00  0.00    +0.001 A 
ATOM     23  C   LIG A   1      -8.163  -2.852 129.172  0.00  0.00    +0.002 A 
ATOM     24  C   LIG A   1      -7.940  -1.826 130.091  0.00  0.00    +0.026 A 
ATOM     25  C   LIG A   1      -7.642  -0.562 129.575  0.00  0.00    +0.047 A 
ATOM     26  N   LIG A   1      -7.395   0.616 130.236  0.00  0.00    -0.356 N 
ATOM     27  H   LIG A   1      -7.816   4.844 128.625  0.00  0.00    +0.123 HD
ATOM     28  H   LIG A   1      -7.286   0.654 131.236  0.00  0.00    +0.166 HD
BRANCH  18  29
ATOM     29  C   LIG A   1      -7.856   4.199 126.050  0.00  0.00    +0.322 C 
ATOM     30  OXT LIG A   1      -8.870   3.898 125.439  0.00  0.00    -0.249 OA
BRANCH  29  31
ATOM     31  O   LIG A   1      -7.188   5.324 125.706  0.00  0.00    -0.479 OA
ATOM     32  H   LIG A   1      -6.919   5.695 126.574  0.00  0.00    +0.295 HD
ENDBRANCH  29  31
ENDBRANCH  18  29
ENDBRANCH  13  14
ENDBRANCH   6  13
BRANCH   2  33
ATOM     33  O   LIG A   1      -9.163   6.499 129.430  0.00  0.00    -0.309 OA
BRANCH  33  34
ATOM     34  C   LIG A   1     -10.023   7.439 128.743  0.00  0.00    +0.286 C 
ATOM     35  O   LIG A   1     -10.992   7.996 129.644  0.00  0.00    -0.340 OA
ATOM     36  C   LIG A   1     -11.956   8.834 128.977  0.00  0.00    +0.178 C 
ATOM     37  C   LIG A   1     -12.813   7.935 128.087  0.00  0.00    +0.177 C 
ATOM     38  C   LIG A   1     -11.910   7.391 126.985  0.00  0.00    +0.179 C 
ATOM     39  C   LIG A   1     -10.668   6.690 127.545  0.00  0.00    +0.201 C 
BRANCH  38  40
ATOM     40  O   LIG A   1     -12.674   6.486 126.171  0.00  0.00    -0.386 OA
ATOM     41  H   LIG A   1     -12.914   5.736 126.750  0.00  0.00    +0.210 HD
ENDBRANCH  38  40
BRANCH  37  42
ATOM     42  O   LIG A   1     -13.887   8.649 127.475  0.00  0.00    -0.387 OA
ATOM     43  H   LIG A   1     -14.278   9.178 128.200  0.00  0.00    +0.210 HD
ENDBRANCH  37  42
BRANCH  39  44
ATOM     44  O   LIG A   1      -9.738   6.521 126.451  0.00  0.00    -0.384 OA
ATOM     45  H   LIG A   1      -9.107   5.816 126.685  0.00  0.00    +0.210 HD
ENDBRANCH  39  44
BRANCH  36  46
ATOM     46  C   LIG A   1     -12.782   9.599 130.019  0.00  0.00    +0.190 C 
BRANCH  46  47
ATOM     47  O   LIG A   1     -13.234  10.850 129.511  0.00  0.00    -0.392 OA
ATOM     48  H   LIG A   1     -12.508  11.197 128.963  0.00  0.00    +0.209 HD
ENDBRANCH  46  47
ENDBRANCH  36  46
ENDBRANCH  33  34
ENDBRANCH   2  33
TORSDOF 14
ENDMDL
MODEL 2
REMARK VINA RESULT:      -8.7      2.240      3.291
REMARK  Name = NuBBE_96
REMARK  15 active torsions:
REMARK  status: ('A' for Active; 'I' for Inactive)
REMARK    1  A    between atoms: C_2  and  C_3
REMARK    2  A    between atoms: C_4  and  O_33
REMARK    3  A    between atoms: C_8  and  C_29
REMARK    4  A    between atoms: C_9  and  C_10
REMARK    5  A    between atoms: C_10  and  C_11
REMARK    6  A    between atoms: CA_16  and  C_19
REMARK    7  A    between atoms: C_19  and  O_20
REMARK    8  A    between atoms: C_29  and  O_30
REMARK    9  A    between atoms: O_30  and  C_31
REMARK   10  A    between atoms: O_33  and  C_34
REMARK   11  A    between atoms: C_37  and  C_45
REMARK   12  A    between atoms: C_39  and  O_44
REMARK   13  A    between atoms: C_41  and  O_43
REMARK   14  A    between atoms: C_45  and  O_46
REMARK   15  A    between atoms: C_47  and  O_49
REMARK                            x       y       z     vdW  Elec       q    Type
REMARK                         _______ _______ _______ _____ _____    ______ ____
ROOT
ATOM      1  C   LIG A   1      -6.965   3.545 131.227  0.00  0.00    +0.088 C 
ATOM      2  C   LIG A   1      -7.816   4.681 130.568  0.00  0.00    +0.316 C 
ATOM      3  O   LIG A   1      -7.025   5.852 130.340  0.00  0.00    -0.470 OA
ATOM      4  C   LIG A   1      -5.746   5.667 129.927  0.00  0.00    +0.201 C 
ATOM      5  C   LIG A   1      -5.056   4.479 129.901  0.00  0.00    +0.075 C 
ATOM      6  C   LIG A   1      -5.692   3.178 130.389  0.00  0.00    +0.043 C 
ENDROOT
BRANCH   1   8
ATOM      7  C   LIG A   1      -8.485   2.519 133.061  0.00  0.00    +0.004 C 
ATOM      8  C   LIG A   1      -7.803   2.472 131.907  0.00  0.00    -0.025 C 
ENDBRANCH   1   8
BRANCH   5   9
ATOM      9  C   LIG A   1      -3.593   4.578 129.718  0.00  0.00    +0.338 C 
ATOM     10  O   LIG A   1      -2.803   4.437 130.643  0.00  0.00    -0.245 OA
BRANCH   9  11
ATOM     11  O   LIG A   1      -3.290   4.972 128.453  0.00  0.00    -0.465 OA
ATOM     12  C   LIG A   1      -2.401   6.089 128.272  0.00  0.00    +0.280 C 
ENDBRANCH   9  11
ENDBRANCH   5   9
BRANCH   6  13
ATOM     13  C   LIG A   1      -5.892   2.054 129.316  0.00  0.00    +0.034 C 
BRANCH  13  14
ATOM     14  C   LIG A   1      -5.709   2.385 127.798  0.00  0.00    +0.102 C 
ATOM     15  C   LIG A   1      -5.707   1.202 126.863  0.00  0.00    +0.037 A 
ATOM     16  C   LIG A   1      -6.218   1.179 125.573  0.00  0.00    -0.016 A 
ATOM     17  C   LIG A   1      -6.851   2.373 124.952  0.00  0.00    +0.067 C 
ATOM     18  CA  LIG A   1      -6.865   3.575 125.930  0.00  0.00    +0.168 C 
ATOM     19  N   LIG A   1      -6.874   3.216 127.386  0.00  0.00    -0.296 NA
ATOM     20  C   LIG A   1      -6.139  -0.154 125.082  0.00  0.00    +0.003 A 
ATOM     21  C   LIG A   1      -6.562  -0.807 123.910  0.00  0.00    +0.010 A 
ATOM     22  C   LIG A   1      -6.424  -2.198 123.818  0.00  0.00    +0.001 A 
ATOM     23  C   LIG A   1      -5.846  -2.931 124.856  0.00  0.00    +0.002 A 
ATOM     24  C   LIG A   1      -5.370  -2.295 126.004  0.00  0.00    +0.026 A 
ATOM     25  C   LIG A   1      -5.542  -0.911 126.084  0.00  0.00    +0.047 A 
ATOM     26  N   LIG A   1      -5.190  -0.043 127.088  0.00  0.00    -0.356 N 
ATOM     27  H   LIG A   1      -6.945   4.057 127.955  0.00  0.00    +0.123 HD
ATOM     28  H   LIG A   1      -4.628  -0.334 127.871  0.00  0.00    +0.166 HD
BRANCH  18  29
ATOM     29  C   LIG A   1      -8.102   4.413 125.591  0.00  0.00    +0.322 C 
ATOM     30  OXT LIG A   1      -8.292   5.599 125.810  0.00  0.00    -0.249 OA
BRANCH  29  31
ATOM     31  O   LIG A   1      -9.066   3.692 124.976  0.00  0.00    -0.479 OA
ATOM     32  H   LIG A   1      -9.658   3.436 125.716  0.00  0.00    +0.295 HD
ENDBRANCH  29  31
ENDBRANCH  18  29
ENDBRANCH  13  14
ENDBRANCH   6  13
BRANCH   2  33
ATOM     33  O   LIG A   1      -8.495   4.311 129.368  0.00  0.00    -0.309 OA
BRANCH  33  34
ATOM     34  C   LIG A   1      -9.768   4.990 129.253  0.00  0.00    +0.286 C 
ATOM     35  O   LIG A   1      -9.584   6.344 128.812  0.00  0.00    -0.340 OA
ATOM     36  C   LIG A   1     -10.811   7.101 128.812  0.00  0.00    +0.178 C 
ATOM     37  C   LIG A   1     -11.241   7.283 130.267  0.00  0.00    +0.177 C 
ATOM     38  C   LIG A   1     -11.609   5.906 130.809  0.00  0.00    +0.179 C 
ATOM     39  C   LIG A   1     -10.475   4.890 130.630  0.00  0.00    +0.201 C 
BRANCH  38  40
ATOM     40  O   LIG A   1     -11.953   6.037 132.198  0.00  0.00    -0.386 OA
ATOM     41  H   LIG A   1     -11.258   6.596 132.599  0.00  0.00    +0.210 HD
ENDBRANCH  38  40
BRANCH  37  42
ATOM     42  O   LIG A   1     -12.382   8.132 130.389  0.00  0.00    -0.387 OA
ATOM     43  H   LIG A   1     -12.949   7.692 131.055  0.00  0.00    +0.210 HD
ENDBRANCH  37  42
BRANCH  39  44
ATOM     44  O   LIG A   1     -11.035   3.576 130.856  0.00  0.00    -0.384 OA
ATOM     45  H   LIG A   1     -10.889   3.035 130.058  0.00  0.00    +0.210 HD
ENDBRANCH  39  44
BRANCH  36  46
ATOM     46  C   LIG A   1     -10.593   8.434 128.086  0.00  0.00    +0.190 C 
BRANCH  46  47
ATOM     47  O   LIG A   1     -10.837   8.313 126.688  0.00  0.00    -0.392 OA
ATOM     48  H   LIG A   1     -10.273   7.583 126.378  0.00  0.00    +0.209 HD
ENDBRANCH  46  47
ENDBRANCH  36  46
ENDBRANCH  33  34
ENDBRANCH   2  33
TORSDOF 14
ENDMDL
MODEL 3
REMARK VINA RESULT:      -8.5      4.593      7.295
REMARK  Name = NuBBE_96
REMARK  15 active torsions:
REMARK  status: ('A' for Active; 'I' for Inactive)
REMARK    1  A    between atoms: C_2  and  C_3
REMARK    2  A    between atoms: C_4  and  O_33
REMARK    3  A    between atoms: C_8  and  C_29
REMARK    4  A    between atoms: C_9  and  C_10
REMARK    5  A    between atoms: C_10  and  C_11
REMARK    6  A    between atoms: CA_16  and  C_19
REMARK    7  A    between atoms: C_19  and  O_20
REMARK    8  A    between atoms: C_29  and  O_30
REMARK    9  A    between atoms: O_30  and  C_31
REMARK   10  A    between atoms: O_33  and  C_34
REMARK   11  A    between atoms: C_37  and  C_45
REMARK   12  A    between atoms: C_39  and  O_44
REMARK   13  A    between atoms: C_41  and  O_43
REMARK   14  A    between atoms: C_45  and  O_46
REMARK   15  A    between atoms: C_47  and  O_49
REMARK                            x       y       z     vdW  Elec       q    Type
REMARK                         _______ _______ _______ _____ _____    ______ ____
ROOT
ATOM      1  C   LIG A   1      -4.240   3.712 126.136  0.00  0.00    +0.088 C 
ATOM      2  C   LIG A   1      -4.850   4.946 126.880  0.00  0.00    +0.316 C 
ATOM      3  O   LIG A   1      -5.465   5.852 125.958  0.00  0.00    -0.470 OA
ATOM      4  C   LIG A   1      -6.146   5.312 124.917  0.00  0.00    +0.201 C 
ATOM      5  C   LIG A   1      -6.140   3.994 124.528  0.00  0.00    +0.075 C 
ATOM      6  C   LIG A   1      -5.293   2.952 125.259  0.00  0.00    +0.043 C 
ENDROOT
BRANCH   1   8
ATOM      7  C   LIG A   1      -1.865   3.091 126.971  0.00  0.00    +0.004 C 
ATOM      8  C   LIG A   1      -3.199   2.961 126.954  0.00  0.00    -0.025 C 
ENDBRANCH   1   8
BRANCH   5   9
ATOM      9  C   LIG A   1      -6.696   3.706 123.190  0.00  0.00    +0.338 C 
ATOM     10  O   LIG A   1      -7.879   3.451 123.010  0.00  0.00    -0.245 OA
BRANCH   9  11
ATOM     11  O   LIG A   1      -5.706   3.633 122.261  0.00  0.00    -0.465 OA
ATOM     12  C   LIG A   1      -5.991   4.050 120.914  0.00  0.00    +0.280 C 
ENDBRANCH   9  11
ENDBRANCH   5   9
BRANCH   6  13
ATOM     13  C   LIG A   1      -6.074   1.805 125.986  0.00  0.00    +0.034 C 
BRANCH  13  14
ATOM     14  C   LIG A   1      -6.653   0.609 125.158  0.00  0.00    +0.102 C 
ATOM     15  C   LIG A   1      -7.027  -0.618 125.949  0.00  0.00    +0.037 A 
ATOM     16  C   LIG A   1      -8.087  -1.472 125.680  0.00  0.00    -0.016 A 
ATOM     17  C   LIG A   1      -9.005  -1.254 124.531  0.00  0.00    +0.067 C 
ATOM     18  CA  LIG A   1      -8.622   0.021 123.738  0.00  0.00    +0.168 C 
ATOM     19  N   LIG A   1      -7.919   1.081 124.532  0.00  0.00    -0.296 NA
ATOM     20  C   LIG A   1      -8.174  -2.426 126.732  0.00  0.00    +0.003 A 
ATOM     21  C   LIG A   1      -9.065  -3.465 127.059  0.00  0.00    +0.010 A 
ATOM     22  C   LIG A   1      -8.908  -4.137 128.278  0.00  0.00    +0.001 A 
ATOM     23  C   LIG A   1      -7.866  -3.811 129.148  0.00  0.00    +0.002 A 
ATOM     24  C   LIG A   1      -6.940  -2.821 128.817  0.00  0.00    +0.026 A 
ATOM     25  C   LIG A   1      -7.132  -2.146 127.608  0.00  0.00    +0.047 A 
ATOM     26  N   LIG A   1      -6.396  -1.132 127.047  0.00  0.00    -0.356 N 
ATOM     27  H   LIG A   1      -7.759   1.904 123.955  0.00  0.00    +0.123 HD
ATOM     28  H   LIG A   1      -5.514  -0.837 127.433  0.00  0.00    +0.166 HD
BRANCH  18  29
ATOM     29  C   LIG A   1      -9.917   0.585 123.145  0.00  0.00    +0.322 C 
ATOM     30  OXT LIG A   1     -10.645   0.080 122.305  0.00  0.00    -0.249 OA
BRANCH  29  31
ATOM     31  O   LIG A   1     -10.239   1.796 123.656  0.00  0.00    -0.479 OA
ATOM     32  H   LIG A   1     -11.096   1.999 123.222  0.00  0.00    +0.295 HD
ENDBRANCH  29  31
ENDBRANCH  18  29
ENDBRANCH  13  14
ENDBRANCH   6  13
BRANCH   2  33
ATOM     33  O   LIG A   1      -5.760   4.630 127.932  0.00  0.00    -0.309 OA
BRANCH  33  34
ATOM     34  C   LIG A   1      -5.204   4.961 129.228  0.00  0.00    +0.286 C 
ATOM     35  O   LIG A   1      -3.881   5.501 129.091  0.00  0.00    -0.340 OA
ATOM     36  C   LIG A   1      -3.235   5.719 130.360  0.00  0.00    +0.178 C 
ATOM     37  C   LIG A   1      -2.969   4.351 130.985  0.00  0.00    +0.177 C 
ATOM     38  C   LIG A   1      -4.323   3.730 131.315  0.00  0.00    +0.179 C 
ATOM     39  C   LIG A   1      -5.249   3.675 130.096  0.00  0.00    +0.201 C 
BRANCH  38  40
ATOM     40  O   LIG A   1      -4.106   2.411 131.842  0.00  0.00    -0.386 OA
ATOM     41  H   LIG A   1      -4.902   2.195 132.368  0.00  0.00    +0.210 HD
ENDBRANCH  38  40
BRANCH  37  42
ATOM     42  O   LIG A   1      -2.214   4.447 132.192  0.00  0.00    -0.387 OA
ATOM     43  H   LIG A   1      -1.531   5.123 132.004  0.00  0.00    +0.210 HD
ENDBRANCH  37  42
BRANCH  39  44
ATOM     44  O   LIG A   1      -6.583   3.397 130.580  0.00  0.00    -0.384 OA
ATOM     45  H   LIG A   1      -6.532   2.680 131.238  0.00  0.00    +0.210 HD
ENDBRANCH  39  44
BRANCH  36  46
ATOM     46  C   LIG A   1      -1.953   6.536 130.151  0.00  0.00    +0.190 C 
BRANCH  46  47
ATOM     47  O   LIG A   1      -1.576   6.573 128.778  0.00  0.00    -0.392 OA
ATOM     48  H   LIG A   1      -0.620   6.390 128.756  0.00  0.00    +0.209 HD
ENDBRANCH  46  47
ENDBRANCH  36  46
ENDBRANCH  33  34
ENDBRANCH   2  33
TORSDOF 14
ENDMDL
MODEL 4
REMARK VINA RESULT:      -8.4      3.459      6.669
REMARK  Name = NuBBE_96
REMARK  15 active torsions:
REMARK  status: ('A' for Active; 'I' for Inactive)
REMARK    1  A    between atoms: C_2  and  C_3
REMARK    2  A    between atoms: C_4  and  O_33
REMARK    3  A    between atoms: C_8  and  C_29
REMARK    4  A    between atoms: C_9  and  C_10
REMARK    5  A    between atoms: C_10  and  C_11
REMARK    6  A    between atoms: CA_16  and  C_19
REMARK    7  A    between atoms: C_19  and  O_20
REMARK    8  A    between atoms: C_29  and  O_30
REMARK    9  A    between atoms: O_30  and  C_31
REMARK   10  A    between atoms: O_33  and  C_34
REMARK   11  A    between atoms: C_37  and  C_45
REMARK   12  A    between atoms: C_39  and  O_44
REMARK   13  A    between atoms: C_41  and  O_43
REMARK   14  A    between atoms: C_45  and  O_46
REMARK   15  A    between atoms: C_47  and  O_49
REMARK                            x       y       z     vdW  Elec       q    Type
REMARK                         _______ _______ _______ _____ _____    ______ ____
ROOT
ATOM      1  C   LIG A   1      -4.767   3.802 127.242  0.00  0.00    +0.088 C 
ATOM      2  C   LIG A   1      -6.103   4.230 127.936  0.00  0.00    +0.316 C 
ATOM      3  O   LIG A   1      -6.940   4.963 127.035  0.00  0.00    -0.470 OA
ATOM      4  C   LIG A   1      -6.975   4.550 125.744  0.00  0.00    +0.201 C 
ATOM      5  C   LIG A   1      -6.138   3.634 125.153  0.00  0.00    +0.075 C 
ATOM      6  C   LIG A   1      -5.003   2.972 125.933  0.00  0.00    +0.043 C 
ENDROOT
BRANCH   1   8
ATOM      7  C   LIG A   1      -3.255   4.073 129.331  0.00  0.00    +0.004 C 
ATOM      8  C   LIG A   1      -3.661   3.438 128.222  0.00  0.00    -0.025 C 
ENDBRANCH   1   8
BRANCH   5   9
ATOM      9  C   LIG A   1      -6.163   3.586 123.676  0.00  0.00    +0.338 C 
ATOM     10  O   LIG A   1      -5.662   4.459 122.980  0.00  0.00    -0.245 OA
BRANCH   9  11
ATOM     11  O   LIG A   1      -6.919   2.543 123.239  0.00  0.00    -0.465 OA
ATOM     12  C   LIG A   1      -8.171   2.822 122.590  0.00  0.00    +0.280 C 
ENDBRANCH   9  11
ENDBRANCH   5   9
BRANCH   6  13
ATOM     13  C   LIG A   1      -5.102   1.421 126.126  0.00  0.00    +0.034 C 
BRANCH  13  14
ATOM     14  C   LIG A   1      -6.327   0.805 126.880  0.00  0.00    +0.102 C 
ATOM     15  C   LIG A   1      -7.187  -0.138 126.077  0.00  0.00    +0.037 A 
ATOM     16  C   LIG A   1      -7.840  -1.262 126.562  0.00  0.00    -0.016 A 
ATOM     17  C   LIG A   1      -7.751  -1.674 127.988  0.00  0.00    +0.067 C 
ATOM     18  CA  LIG A   1      -6.848  -0.709 128.797  0.00  0.00    +0.168 C 
ATOM     19  N   LIG A   1      -5.786  -0.009 128.004  0.00  0.00    -0.296 NA
ATOM     20  C   LIG A   1      -8.433  -1.946 125.464  0.00  0.00    +0.003 A 
ATOM     21  C   LIG A   1      -9.133  -3.156 125.310  0.00  0.00    +0.010 A 
ATOM     22  C   LIG A   1      -9.469  -3.588 124.020  0.00  0.00    +0.001 A 
ATOM     23  C   LIG A   1      -9.148  -2.820 122.900  0.00  0.00    +0.002 A 
ATOM     24  C   LIG A   1      -8.502  -1.590 123.036  0.00  0.00    +0.026 A 
ATOM     25  C   LIG A   1      -8.153  -1.192 124.330  0.00  0.00    +0.047 A 
ATOM     26  N   LIG A   1      -7.507  -0.056 124.750  0.00  0.00    -0.356 N 
ATOM     27  H   LIG A   1      -5.202   0.554 128.618  0.00  0.00    +0.123 HD
ATOM     28  H   LIG A   1      -7.311   0.708 124.126  0.00  0.00    +0.166 HD
BRANCH  18  29
ATOM     29  C   LIG A   1      -6.206  -1.533 129.918  0.00  0.00    +0.322 C 
ATOM     30  OXT LIG A   1      -5.483  -2.511 129.816  0.00  0.00    -0.249 OA
BRANCH  29  31
ATOM     31  O   LIG A   1      -6.518  -1.067 131.149  0.00  0.00    -0.479 OA
ATOM     32  H   LIG A   1      -5.742  -1.332 131.690  0.00  0.00    +0.295 HD
ENDBRANCH  29  31
ENDBRANCH  18  29
ENDBRANCH  13  14
ENDBRANCH   6  13
BRANCH   2  33
ATOM     33  O   LIG A   1      -6.844   3.166 128.532  0.00  0.00    -0.309 OA
BRANCH  33  34
ATOM     34  C   LIG A   1      -7.399   3.561 129.809  0.00  0.00    +0.286 C 
ATOM     35  O   LIG A   1      -7.027   2.629 130.836  0.00  0.00    -0.340 OA
ATOM     36  C   LIG A   1      -7.667   2.906 132.097  0.00  0.00    +0.178 C 
ATOM     37  C   LIG A   1      -9.160   2.631 131.928  0.00  0.00    +0.177 C 
ATOM     38  C   LIG A   1      -9.707   3.670 130.954  0.00  0.00    +0.179 C 
ATOM     39  C   LIG A   1      -8.935   3.688 129.631  0.00  0.00    +0.201 C 
BRANCH  38  40
ATOM     40  O   LIG A   1     -11.098   3.395 130.722  0.00  0.00    -0.386 OA
ATOM     41  H   LIG A   1     -11.167   2.427 130.604  0.00  0.00    +0.210 HD
ENDBRANCH  38  40
BRANCH  37  42
ATOM     42  O   LIG A   1      -9.873   2.752 133.159  0.00  0.00    -0.387 OA
ATOM     43  H   LIG A   1      -9.263   2.392 133.835  0.00  0.00    +0.210 HD
ENDBRANCH  37  42
BRANCH  39  44
ATOM     44  O   LIG A   1      -9.300   4.902 128.935  0.00  0.00    -0.384 OA
ATOM     45  H   LIG A   1      -9.533   5.580 129.595  0.00  0.00    +0.210 HD
ENDBRANCH  39  44
BRANCH  36  46
ATOM     46  C   LIG A   1      -7.027   2.050 133.198  0.00  0.00    +0.190 C 
BRANCH  46  47
ATOM     47  O   LIG A   1      -7.609   0.751 133.253  0.00  0.00    -0.392 OA
ATOM     48  H   LIG A   1      -8.308   0.796 133.928  0.00  0.00    +0.209 HD
ENDBRANCH  46  47
ENDBRANCH  36  46
ENDBRANCH  33  34
ENDBRANCH   2  33
TORSDOF 14
ENDMDL
MODEL 5
REMARK VINA RESULT:      -8.2      3.014      6.207
REMARK  Name = NuBBE_96
REMARK  15 active torsions:
REMARK  status: ('A' for Active; 'I' for Inactive)
REMARK    1  A    between atoms: C_2  and  C_3
REMARK    2  A    between atoms: C_4  and  O_33
REMARK    3  A    between atoms: C_8  and  C_29
REMARK    4  A    between atoms: C_9  and  C_10
REMARK    5  A    between atoms: C_10  and  C_11
REMARK    6  A    between atoms: CA_16  and  C_19
REMARK    7  A    between atoms: C_19  and  O_20
REMARK    8  A    between atoms: C_29  and  O_30
REMARK    9  A    between atoms: O_30  and  C_31
REMARK   10  A    between atoms: O_33  and  C_34
REMARK   11  A    between atoms: C_37  and  C_45
REMARK   12  A    between atoms: C_39  and  O_44
REMARK   13  A    between atoms: C_41  and  O_43
REMARK   14  A    between atoms: C_45  and  O_46
REMARK   15  A    between atoms: C_47  and  O_49
REMARK                            x       y       z     vdW  Elec       q    Type
REMARK                         _______ _______ _______ _____ _____    ______ ____
ROOT
ATOM      1  C   LIG A   1      -6.738   3.340 127.609  0.00  0.00    +0.088 C 
ATOM      2  C   LIG A   1      -7.646   4.607 127.751  0.00  0.00    +0.316 C 
ATOM      3  O   LIG A   1      -7.979   5.150 126.469  0.00  0.00    -0.470 OA
ATOM      4  C   LIG A   1      -8.234   4.270 125.469  0.00  0.00    +0.201 C 
ATOM      5  C   LIG A   1      -8.007   2.914 125.492  0.00  0.00    +0.075 C 
ATOM      6  C   LIG A   1      -7.384   2.231 126.708  0.00  0.00    +0.043 C 
ENDROOT
BRANCH   1   8
ATOM      7  C   LIG A   1      -4.699   3.204 129.204  0.00  0.00    +0.004 C 
ATOM      8  C   LIG A   1      -5.981   2.987 128.881  0.00  0.00    -0.025 C 
ENDBRANCH   1   8
BRANCH   5   9
ATOM      9  C   LIG A   1      -8.063   2.222 124.187  0.00  0.00    +0.338 C 
ATOM     10  O   LIG A   1      -7.080   1.708 123.672  0.00  0.00    -0.245 OA
BRANCH   9  11
ATOM     11  O   LIG A   1      -9.288   2.367 123.616  0.00  0.00    -0.465 OA
ATOM     12  C   LIG A   1     -10.261   1.323 123.794  0.00  0.00    +0.280 C 
ENDBRANCH   9  11
ENDBRANCH   5   9
BRANCH   6  13
ATOM     13  C   LIG A   1      -8.281   1.190 127.458  0.00  0.00    +0.034 C 
BRANCH  13  14
ATOM     14  C   LIG A   1      -7.744  -0.256 127.723  0.00  0.00    +0.102 C 
ATOM     15  C   LIG A   1      -7.238  -1.001 126.514  0.00  0.00    +0.037 A 
ATOM     16  C   LIG A   1      -6.178  -1.896 126.490  0.00  0.00    -0.016 A 
ATOM     17  C   LIG A   1      -5.395  -2.227 127.711  0.00  0.00    +0.067 C 
ATOM     18  CA  LIG A   1      -5.913  -1.439 128.942  0.00  0.00    +0.168 C 
ATOM     19  N   LIG A   1      -6.571  -0.129 128.632  0.00  0.00    -0.296 NA
ATOM     20  C   LIG A   1      -5.940  -2.276 125.140  0.00  0.00    +0.003 A 
ATOM     21  C   LIG A   1      -4.978  -3.067 124.486  0.00  0.00    +0.010 A 
ATOM     22  C   LIG A   1      -4.978  -3.118 123.086  0.00  0.00    +0.001 A 
ATOM     23  C   LIG A   1      -5.934  -2.426 122.342  0.00  0.00    +0.002 A 
ATOM     24  C   LIG A   1      -6.930  -1.680 122.974  0.00  0.00    +0.026 A 
ATOM     25  C   LIG A   1      -6.895  -1.622 124.370  0.00  0.00    +0.047 A 
ATOM     26  N   LIG A   1      -7.728  -0.961 125.238  0.00  0.00    -0.356 N 
ATOM     27  H   LIG A   1      -6.825   0.349 129.495  0.00  0.00    +0.123 HD
ATOM     28  H   LIG A   1      -8.576  -0.515 124.929  0.00  0.00    +0.166 HD
BRANCH  18  29
ATOM     29  C   LIG A   1      -4.712  -1.215 129.866  0.00  0.00    +0.322 C 
ATOM     30  OXT LIG A   1      -4.653  -0.528 130.874  0.00  0.00    -0.249 OA
BRANCH  29  31
ATOM     31  O   LIG A   1      -3.611  -1.889 129.461  0.00  0.00    -0.479 OA
ATOM     32  H   LIG A   1      -3.808  -2.090 128.520  0.00  0.00    +0.295 HD
ENDBRANCH  29  31
ENDBRANCH  18  29
ENDBRANCH  13  14
ENDBRANCH   6  13
BRANCH   2  33
ATOM     33  O   LIG A   1      -8.831   4.420 128.523  0.00  0.00    -0.309 OA
BRANCH  33  34
ATOM     34  C   LIG A   1      -8.955   5.430 129.553  0.00  0.00    +0.286 C 
ATOM     35  O   LIG A   1      -8.061   5.157 130.643  0.00  0.00    -0.340 OA
ATOM     36  C   LIG A   1      -8.245   6.059 131.752  0.00  0.00    +0.178 C 
ATOM     37  C   LIG A   1      -9.612   5.765 132.366  0.00  0.00    +0.177 C 
ATOM     38  C   LIG A   1     -10.668   6.159 131.338  0.00  0.00    +0.179 C 
ATOM     39  C   LIG A   1     -10.445   5.474 129.985  0.00  0.00    +0.201 C 
BRANCH  38  40
ATOM     40  O   LIG A   1     -11.965   5.828 131.862  0.00  0.00    -0.386 OA
ATOM     41  H   LIG A   1     -12.120   4.891 131.631  0.00  0.00    +0.210 HD
ENDBRANCH  38  40
BRANCH  37  42
ATOM     42  O   LIG A   1      -9.842   6.519 133.556  0.00  0.00    -0.387 OA
ATOM     43  H   LIG A   1      -9.416   5.997 134.266  0.00  0.00    +0.210 HD
ENDBRANCH  37  42
BRANCH  39  44
ATOM     44  O   LIG A   1     -11.269   6.158 129.014  0.00  0.00    -0.384 OA
ATOM     45  H   LIG A   1     -11.580   6.995 129.406  0.00  0.00    +0.210 HD
ENDBRANCH  39  44
BRANCH  36  46
ATOM     46  C   LIG A   1      -7.095   5.886 132.752  0.00  0.00    +0.190 C 
BRANCH  46  47
ATOM     47  O   LIG A   1      -7.403   4.903 133.736  0.00  0.00    -0.392 OA
ATOM     48  H   LIG A   1      -8.335   4.662 133.594  0.00  0.00    +0.209 HD
ENDBRANCH  46  47
ENDBRANCH  36  46
ENDBRANCH  33  34
ENDBRANCH   2  33
TORSDOF 14
ENDMDL
MODEL 6
REMARK VINA RESULT:      -8.1      4.108      7.213
REMARK  Name = NuBBE_96
REMARK  15 active torsions:
REMARK  status: ('A' for Active; 'I' for Inactive)
REMARK    1  A    between atoms: C_2  and  C_3
REMARK    2  A    between atoms: C_4  and  O_33
REMARK    3  A    between atoms: C_8  and  C_29
REMARK    4  A    between atoms: C_9  and  C_10
REMARK    5  A    between atoms: C_10  and  C_11
REMARK    6  A    between atoms: CA_16  and  C_19
REMARK    7  A    between atoms: C_19  and  O_20
REMARK    8  A    between atoms: C_29  and  O_30
REMARK    9  A    between atoms: O_30  and  C_31
REMARK   10  A    between atoms: O_33  and  C_34
REMARK   11  A    between atoms: C_37  and  C_45
REMARK   12  A    between atoms: C_39  and  O_44
REMARK   13  A    between atoms: C_41  and  O_43
REMARK   14  A    between atoms: C_45  and  O_46
REMARK   15  A    between atoms: C_47  and  O_49
REMARK                            x       y       z     vdW  Elec       q    Type
REMARK                         _______ _______ _______ _____ _____    ______ ____
ROOT
ATOM      1  C   LIG A   1      -3.881   3.502 126.503  0.00  0.00    +0.088 C 
ATOM      2  C   LIG A   1      -4.460   4.787 127.183  0.00  0.00    +0.316 C 
ATOM      3  O   LIG A   1      -5.407   5.440 126.331  0.00  0.00    -0.470 OA
ATOM      4  C   LIG A   1      -6.239   4.651 125.607  0.00  0.00    +0.201 C 
ATOM      5  C   LIG A   1      -6.139   3.290 125.439  0.00  0.00    +0.075 C 
ATOM      6  C   LIG A   1      -4.998   2.492 126.068  0.00  0.00    +0.043 C 
ENDROOT
BRANCH   1   8
ATOM      7  C   LIG A   1      -1.362   2.890 126.560  0.00  0.00    +0.004 C 
ATOM      8  C   LIG A   1      -2.574   3.022 127.118  0.00  0.00    -0.025 C 
ENDBRANCH   1   8
BRANCH   5   9
ATOM      9  C   LIG A   1      -6.961   2.704 124.359  0.00  0.00    +0.338 C 
ATOM     10  O   LIG A   1      -7.990   2.080 124.581  0.00  0.00    -0.245 OA
BRANCH   9  11
ATOM     11  O   LIG A   1      -6.346   2.842 123.155  0.00  0.00    -0.465 OA
ATOM     12  C   LIG A   1      -7.111   3.335 122.041  0.00  0.00    +0.280 C 
ENDBRANCH   9  11
ENDBRANCH   5   9
BRANCH   6  13
ATOM     13  C   LIG A   1      -5.403   1.429 127.145  0.00  0.00    +0.034 C 
BRANCH  13  14
ATOM     14  C   LIG A   1      -5.691  -0.048 126.715  0.00  0.00    +0.102 C 
ATOM     15  C   LIG A   1      -5.490  -1.095 127.781  0.00  0.00    +0.037 A 
ATOM     16  C   LIG A   1      -6.236  -2.253 127.940  0.00  0.00    -0.016 A 
ATOM     17  C   LIG A   1      -7.365  -2.596 127.034  0.00  0.00    +0.067 C 
ATOM     18  CA  LIG A   1      -7.574  -1.503 125.956  0.00  0.00    +0.168 C 
ATOM     19  N   LIG A   1      -7.132  -0.125 126.348  0.00  0.00    -0.296 NA
ATOM     20  C   LIG A   1      -5.813  -2.900 129.134  0.00  0.00    +0.003 A 
ATOM     21  C   LIG A   1      -6.236  -4.034 129.851  0.00  0.00    +0.010 A 
ATOM     22  C   LIG A   1      -5.650  -4.311 131.094  0.00  0.00    +0.001 A 
ATOM     23  C   LIG A   1      -4.637  -3.498 131.605  0.00  0.00    +0.002 A 
ATOM     24  C   LIG A   1      -4.166  -2.400 130.884  0.00  0.00    +0.026 A 
ATOM     25  C   LIG A   1      -4.784  -2.129 129.660  0.00  0.00    +0.047 A 
ATOM     26  N   LIG A   1      -4.538  -1.120 128.762  0.00  0.00    -0.356 N 
ATOM     27  H   LIG A   1      -7.360   0.540 125.611  0.00  0.00    +0.123 HD
ATOM     28  H   LIG A   1      -3.750  -0.501 128.857  0.00  0.00    +0.166 HD
BRANCH  18  29
ATOM     29  C   LIG A   1      -9.067  -1.494 125.611  0.00  0.00    +0.322 C 
ATOM     30  OXT LIG A   1      -9.885  -2.386 125.776  0.00  0.00    -0.249 OA
BRANCH  29  31
ATOM     31  O   LIG A   1      -9.466  -0.327 125.057  0.00  0.00    -0.479 OA
ATOM     32  H   LIG A   1      -8.621   0.157 124.928  0.00  0.00    +0.295 HD
ENDBRANCH  29  31
ENDBRANCH  18  29
ENDBRANCH  13  14
ENDBRANCH   6  13
BRANCH   2  33
ATOM     33  O   LIG A   1      -5.027   4.584 128.476  0.00  0.00    -0.309 OA
BRANCH  33  34
ATOM     34  C   LIG A   1      -4.680   5.661 129.379  0.00  0.00    +0.286 C 
ATOM     35  O   LIG A   1      -3.330   5.519 129.846  0.00  0.00    -0.340 OA
ATOM     36  C   LIG A   1      -2.982   6.491 130.851  0.00  0.00    +0.178 C 
ATOM     37  C   LIG A   1      -3.798   6.173 132.103  0.00  0.00    +0.177 C 
ATOM     38  C   LIG A   1      -5.264   6.433 131.770  0.00  0.00    +0.179 C 
ATOM     39  C   LIG A   1      -5.723   5.660 130.528  0.00  0.00    +0.201 C 
BRANCH  38  40
ATOM     40  O   LIG A   1      -6.064   6.076 132.909  0.00  0.00    -0.386 OA
ATOM     41  H   LIG A   1      -6.981   6.331 132.687  0.00  0.00    +0.210 HD
ENDBRANCH  38  40
BRANCH  37  42
ATOM     42  O   LIG A   1      -3.436   7.001 133.208  0.00  0.00    -0.387 OA
ATOM     43  H   LIG A   1      -2.545   7.339 132.982  0.00  0.00    +0.210 HD
ENDBRANCH  37  42
BRANCH  39  44
ATOM     44  O   LIG A   1      -6.986   6.226 130.111  0.00  0.00    -0.384 OA
ATOM     45  H   LIG A   1      -7.683   5.555 130.232  0.00  0.00    +0.210 HD
ENDBRANCH  39  44
BRANCH  36  46
ATOM     46  C   LIG A   1      -1.470   6.453 131.103  0.00  0.00    +0.190 C 
BRANCH  46  47
ATOM     47  O   LIG A   1      -1.143   5.595 132.193  0.00  0.00    -0.392 OA
ATOM     48  H   LIG A   1      -0.827   6.175 132.908  0.00  0.00    +0.209 HD
ENDBRANCH  46  47
ENDBRANCH  36  46
ENDBRANCH  33  34
ENDBRANCH   2  33
TORSDOF 14
ENDMDL
MODEL 7
REMARK VINA RESULT:      -8.1      3.161      6.536
REMARK  Name = NuBBE_96
REMARK  15 active torsions:
REMARK  status: ('A' for Active; 'I' for Inactive)
REMARK    1  A    between atoms: C_2  and  C_3
REMARK    2  A    between atoms: C_4  and  O_33
REMARK    3  A    between atoms: C_8  and  C_29
REMARK    4  A    between atoms: C_9  and  C_10
REMARK    5  A    between atoms: C_10  and  C_11
REMARK    6  A    between atoms: CA_16  and  C_19
REMARK    7  A    between atoms: C_19  and  O_20
REMARK    8  A    between atoms: C_29  and  O_30
REMARK    9  A    between atoms: O_30  and  C_31
REMARK   10  A    between atoms: O_33  and  C_34
REMARK   11  A    between atoms: C_37  and  C_45
REMARK   12  A    between atoms: C_39  and  O_44
REMARK   13  A    between atoms: C_41  and  O_43
REMARK   14  A    between atoms: C_45  and  O_46
REMARK   15  A    between atoms: C_47  and  O_49
REMARK                            x       y       z     vdW  Elec       q    Type
REMARK                         _______ _______ _______ _____ _____    ______ ____
ROOT
ATOM      1  C   LIG A   1      -4.466   3.837 126.859  0.00  0.00    +0.088 C 
ATOM      2  C   LIG A   1      -5.635   4.226 127.825  0.00  0.00    +0.316 C 
ATOM      3  O   LIG A   1      -6.725   4.812 127.105  0.00  0.00    -0.470 OA
ATOM      4  C   LIG A   1      -7.025   4.281 125.893  0.00  0.00    +0.201 C 
ATOM      5  C   LIG A   1      -6.270   3.380 125.182  0.00  0.00    +0.075 C 
ATOM      6  C   LIG A   1      -4.926   2.878 125.708  0.00  0.00    +0.043 C 
ENDROOT
BRANCH   1   8
ATOM      7  C   LIG A   1      -1.939   3.292 127.062  0.00  0.00    +0.004 C 
ATOM      8  C   LIG A   1      -3.131   3.646 127.564  0.00  0.00    -0.025 C 
ENDBRANCH   1   8
BRANCH   5   9
ATOM      9  C   LIG A   1      -6.638   3.197 123.763  0.00  0.00    +0.338 C 
ATOM     10  O   LIG A   1      -5.953   3.628 122.844  0.00  0.00    -0.245 OA
BRANCH   9  11
ATOM     11  O   LIG A   1      -7.867   2.628 123.652  0.00  0.00    -0.465 OA
ATOM     12  C   LIG A   1      -8.603   2.805 122.429  0.00  0.00    +0.280 C 
ENDBRANCH   9  11
ENDBRANCH   5   9
BRANCH   6  13
ATOM     13  C   LIG A   1      -4.831   1.347 126.027  0.00  0.00    +0.034 C 
BRANCH  13  14
ATOM     14  C   LIG A   1      -5.945   0.658 126.884  0.00  0.00    +0.102 C 
ATOM     15  C   LIG A   1      -6.907  -0.222 126.127  0.00  0.00    +0.037 A 
ATOM     16  C   LIG A   1      -7.490  -1.389 126.598  0.00  0.00    -0.016 A 
ATOM     17  C   LIG A   1      -7.212  -1.918 127.960  0.00  0.00    +0.067 C 
ATOM     18  CA  LIG A   1      -6.206  -1.016 128.719  0.00  0.00    +0.168 C 
ATOM     19  N   LIG A   1      -5.259  -0.242 127.852  0.00  0.00    -0.296 NA
ATOM     20  C   LIG A   1      -8.227  -1.984 125.536  0.00  0.00    +0.003 A 
ATOM     21  C   LIG A   1      -8.944  -3.183 125.376  0.00  0.00    +0.010 A 
ATOM     22  C   LIG A   1      -9.451  -3.509 124.110  0.00  0.00    +0.001 A 
ATOM     23  C   LIG A   1      -9.281  -2.646 123.026  0.00  0.00    +0.002 A 
ATOM     24  C   LIG A   1      -8.620  -1.427 123.178  0.00  0.00    +0.026 A 
ATOM     25  C   LIG A   1      -8.101  -1.135 124.442  0.00  0.00    +0.047 A 
ATOM     26  N   LIG A   1      -7.402  -0.033 124.867  0.00  0.00    -0.356 N 
ATOM     27  H   LIG A   1      -4.597   0.273 128.428  0.00  0.00    +0.123 HD
ATOM     28  H   LIG A   1      -7.290   0.784 124.289  0.00  0.00    +0.166 HD
BRANCH  18  29
ATOM     29  C   LIG A   1      -5.420  -1.925 129.670  0.00  0.00    +0.322 C 
ATOM     30  OXT LIG A   1      -5.622  -2.130 130.857  0.00  0.00    -0.249 OA
BRANCH  29  31
ATOM     31  O   LIG A   1      -4.387  -2.548 129.059  0.00  0.00    -0.479 OA
ATOM     32  H   LIG A   1      -4.665  -3.490 129.058  0.00  0.00    +0.295 HD
ENDBRANCH  29  31
ENDBRANCH  18  29
ENDBRANCH  13  14
ENDBRANCH   6  13
BRANCH   2  33
ATOM     33  O   LIG A   1      -6.111   3.169 128.656  0.00  0.00    -0.309 OA
BRANCH  33  34
ATOM     34  C   LIG A   1      -6.799   3.684 129.821  0.00  0.00    +0.286 C 
ATOM     35  O   LIG A   1      -8.182   3.931 129.528  0.00  0.00    -0.340 OA
ATOM     36  C   LIG A   1      -8.876   4.571 130.617  0.00  0.00    +0.178 C 
ATOM     37  C   LIG A   1      -8.312   5.984 130.757  0.00  0.00    +0.177 C 
ATOM     38  C   LIG A   1      -6.863   5.853 131.215  0.00  0.00    +0.179 C 
ATOM     39  C   LIG A   1      -6.040   4.956 130.285  0.00  0.00    +0.201 C 
BRANCH  38  40
ATOM     40  O   LIG A   1      -6.285   7.166 131.290  0.00  0.00    -0.386 OA
ATOM     41  H   LIG A   1      -6.875   7.690 131.867  0.00  0.00    +0.210 HD
ENDBRANCH  38  40
BRANCH  37  42
ATOM     42  O   LIG A   1      -9.021   6.753 131.729  0.00  0.00    -0.387 OA
ATOM     43  H   LIG A   1      -8.754   6.371 132.590  0.00  0.00    +0.210 HD
ENDBRANCH  37  42
BRANCH  39  44
ATOM     44  O   LIG A   1      -4.812   4.630 130.976  0.00  0.00    -0.384 OA
ATOM     45  H   LIG A   1      -4.862   4.985 131.883  0.00  0.00    +0.210 HD
ENDBRANCH  39  44
BRANCH  36  46
ATOM     46  C   LIG A   1     -10.386   4.559 130.344  0.00  0.00    +0.190 C 
BRANCH  46  47
ATOM     47  O   LIG A   1     -11.132   4.860 131.519  0.00  0.00    -0.392 OA
ATOM     48  H   LIG A   1     -11.924   5.339 131.220  0.00  0.00    +0.209 HD
ENDBRANCH  46  47
ENDBRANCH  36  46
ENDBRANCH  33  34
ENDBRANCH   2  33
TORSDOF 14
ENDMDL
MODEL 8
REMARK VINA RESULT:      -8.1      2.615      5.871
REMARK  Name = NuBBE_96
REMARK  15 active torsions:
REMARK  status: ('A' for Active; 'I' for Inactive)
REMARK    1  A    between atoms: C_2  and  C_3
REMARK    2  A    between atoms: C_4  and  O_33
REMARK    3  A    between atoms: C_8  and  C_29
REMARK    4  A    between atoms: C_9  and  C_10
REMARK    5  A    between atoms: C_10  and  C_11
REMARK    6  A    between atoms: CA_16  and  C_19
REMARK    7  A    between atoms: C_19  and  O_20
REMARK    8  A    between atoms: C_29  and  O_30
REMARK    9  A    between atoms: O_30  and  C_31
REMARK   10  A    between atoms: O_33  and  C_34
REMARK   11  A    between atoms: C_37  and  C_45
REMARK   12  A    between atoms: C_39  and  O_44
REMARK   13  A    between atoms: C_41  and  O_43
REMARK   14  A    between atoms: C_45  and  O_46
REMARK   15  A    between atoms: C_47  and  O_49
REMARK                            x       y       z     vdW  Elec       q    Type
REMARK                         _______ _______ _______ _____ _____    ______ ____
ROOT
ATOM      1  C   LIG A   1      -6.299   3.782 127.425  0.00  0.00    +0.088 C 
ATOM      2  C   LIG A   1      -7.807   4.177 127.560  0.00  0.00    +0.316 C 
ATOM      3  O   LIG A   1      -8.570   3.690 126.451  0.00  0.00    -0.470 OA
ATOM      4  C   LIG A   1      -8.255   2.460 125.974  0.00  0.00    +0.201 C 
ATOM      5  C   LIG A   1      -7.149   1.712 126.300  0.00  0.00    +0.075 C 
ATOM      6  C   LIG A   1      -6.090   2.236 127.269  0.00  0.00    +0.043 C 
ENDROOT
BRANCH   1   8
ATOM      7  C   LIG A   1      -4.040   4.791 128.203  0.00  0.00    +0.004 C 
ATOM      8  C   LIG A   1      -5.368   4.624 128.286  0.00  0.00    -0.025 C 
ENDBRANCH   1   8
BRANCH   5   9
ATOM      9  C   LIG A   1      -6.859   0.559 125.421  0.00  0.00    +0.338 C 
ATOM     10  O   LIG A   1      -6.704   0.675 124.213  0.00  0.00    -0.245 OA
BRANCH   9  11
ATOM     11  O   LIG A   1      -6.931  -0.608 126.115  0.00  0.00    -0.465 OA
ATOM     12  C   LIG A   1      -8.202  -1.273 126.218  0.00  0.00    +0.280 C 
ENDBRANCH   9  11
ENDBRANCH   5   9
BRANCH   6  13
ATOM     13  C   LIG A   1      -5.915   1.440 128.607  0.00  0.00    +0.034 C 
BRANCH  13  14
ATOM     14  C   LIG A   1      -7.143   0.711 129.247  0.00  0.00    +0.102 C 
ATOM     15  C   LIG A   1      -6.867  -0.648 129.837  0.00  0.00    +0.037 A 
ATOM     16  C   LIG A   1      -7.471  -1.189 130.963  0.00  0.00    -0.016 A 
ATOM     17  C   LIG A   1      -8.499  -0.448 131.741  0.00  0.00    +0.067 C 
ATOM     18  CA  LIG A   1      -8.759   0.955 131.137  0.00  0.00    +0.168 C 
ATOM     19  N   LIG A   1      -7.607   1.552 130.386  0.00  0.00    -0.296 NA
ATOM     20  C   LIG A   1      -6.841  -2.430 131.259  0.00  0.00    +0.003 A 
ATOM     21  C   LIG A   1      -6.950  -3.377 132.293  0.00  0.00    +0.010 A 
ATOM     22  C   LIG A   1      -6.053  -4.452 132.329  0.00  0.00    +0.001 A 
ATOM     23  C   LIG A   1      -5.082  -4.609 131.339  0.00  0.00    +0.002 A 
ATOM     24  C   LIG A   1      -4.993  -3.711 130.275  0.00  0.00    +0.026 A 
ATOM     25  C   LIG A   1      -5.881  -2.632 130.274  0.00  0.00    +0.047 A 
ATOM     26  N   LIG A   1      -6.005  -1.603 129.373  0.00  0.00    -0.356 N 
ATOM     27  H   LIG A   1      -7.839   2.494 130.077  0.00  0.00    +0.123 HD
ATOM     28  H   LIG A   1      -5.503  -1.594 128.501  0.00  0.00    +0.166 HD
BRANCH  18  29
ATOM     29  C   LIG A   1      -9.160   1.874 132.296  0.00  0.00    +0.322 C 
ATOM     30  OXT LIG A   1      -8.502   2.181 133.277  0.00  0.00    -0.249 OA
BRANCH  29  31
ATOM     31  O   LIG A   1     -10.409   2.373 132.155  0.00  0.00    -0.479 OA
ATOM     32  H   LIG A   1     -10.980   1.618 132.417  0.00  0.00    +0.295 HD
ENDBRANCH  29  31
ENDBRANCH  18  29
ENDBRANCH  13  14
ENDBRANCH   6  13
BRANCH   2  33
ATOM     33  O   LIG A   1      -8.428   3.790 128.786  0.00  0.00    -0.309 OA
BRANCH  33  34
ATOM     34  C   LIG A   1      -8.543   4.912 129.694  0.00  0.00    +0.286 C 
ATOM     35  O   LIG A   1      -7.767   4.688 130.881  0.00  0.00    -0.340 OA
ATOM     36  C   LIG A   1      -7.958   5.715 131.873  0.00  0.00    +0.178 C 
ATOM     37  C   LIG A   1      -9.390   5.596 132.391  0.00  0.00    +0.177 C 
ATOM     38  C   LIG A   1     -10.322   5.960 131.240  0.00  0.00    +0.179 C 
ATOM     39  C   LIG A   1     -10.054   5.119 129.987  0.00  0.00    +0.201 C 
BRANCH  38  40
ATOM     40  O   LIG A   1     -11.680   5.791 131.678  0.00  0.00    -0.386 OA
ATOM     41  H   LIG A   1     -12.118   5.240 130.999  0.00  0.00    +0.210 HD
ENDBRANCH  38  40
BRANCH  37  42
ATOM     42  O   LIG A   1      -9.647   6.489 133.475  0.00  0.00    -0.387 OA
ATOM     43  H   LIG A   1      -8.872   6.393 134.064  0.00  0.00    +0.210 HD
ENDBRANCH  37  42
BRANCH  39  44
ATOM     44  O   LIG A   1     -10.735   5.759 128.884  0.00  0.00    -0.384 OA
ATOM     45  H   LIG A   1     -10.406   6.673 128.803  0.00  0.00    +0.210 HD
ENDBRANCH  39  44
BRANCH  36  46
ATOM     46  C   LIG A   1      -6.911   5.559 132.984  0.00  0.00    +0.190 C 
BRANCH  46  47
ATOM     47  O   LIG A   1      -7.386   4.725 134.036  0.00  0.00    -0.392 OA
ATOM     48  H   LIG A   1      -8.358   4.765 133.994  0.00  0.00    +0.209 HD
ENDBRANCH  46  47
ENDBRANCH  36  46
ENDBRANCH  33  34
ENDBRANCH   2  33
TORSDOF 14
ENDMDL
MODEL 9
REMARK VINA RESULT:      -8.0      2.875      4.326
REMARK  Name = NuBBE_96
REMARK  15 active torsions:
REMARK  status: ('A' for Active; 'I' for Inactive)
REMARK    1  A    between atoms: C_2  and  C_3
REMARK    2  A    between atoms: C_4  and  O_33
REMARK    3  A    between atoms: C_8  and  C_29
REMARK    4  A    between atoms: C_9  and  C_10
REMARK    5  A    between atoms: C_10  and  C_11
REMARK    6  A    between atoms: CA_16  and  C_19
REMARK    7  A    between atoms: C_19  and  O_20
REMARK    8  A    between atoms: C_29  and  O_30
REMARK    9  A    between atoms: O_30  and  C_31
REMARK   10  A    between atoms: O_33  and  C_34
REMARK   11  A    between atoms: C_37  and  C_45
REMARK   12  A    between atoms: C_39  and  O_44
REMARK   13  A    between atoms: C_41  and  O_43
REMARK   14  A    between atoms: C_45  and  O_46
REMARK   15  A    between atoms: C_47  and  O_49
REMARK                            x       y       z     vdW  Elec       q    Type
REMARK                         _______ _______ _______ _____ _____    ______ ____
ROOT
ATOM      1  C   LIG A   1      -6.829   3.063 129.119  0.00  0.00    +0.088 C 
ATOM      2  C   LIG A   1      -7.254   4.363 129.880  0.00  0.00    +0.316 C 
ATOM      3  O   LIG A   1      -6.110   5.123 130.284  0.00  0.00    -0.470 OA
ATOM      4  C   LIG A   1      -5.067   5.182 129.419  0.00  0.00    +0.201 C 
ATOM      5  C   LIG A   1      -4.897   4.423 128.285  0.00  0.00    +0.075 C 
ATOM      6  C   LIG A   1      -5.916   3.359 127.879  0.00  0.00    +0.043 C 
ENDROOT
BRANCH   1   8
ATOM      7  C   LIG A   1      -7.944   0.771 129.594  0.00  0.00    +0.004 C 
ATOM      8  C   LIG A   1      -7.919   2.003 129.066  0.00  0.00    -0.025 C 
ENDBRANCH   1   8
BRANCH   5   9
ATOM      9  C   LIG A   1      -3.546   4.438 127.687  0.00  0.00    +0.338 C 
ATOM     10  O   LIG A   1      -2.877   5.458 127.597  0.00  0.00    -0.245 OA
BRANCH   9  11
ATOM     11  O   LIG A   1      -3.242   3.225 127.152  0.00  0.00    -0.465 OA
ATOM     12  C   LIG A   1      -1.896   2.987 126.703  0.00  0.00    +0.280 C 
ENDBRANCH   9  11
ENDBRANCH   5   9
BRANCH   6  13
ATOM     13  C   LIG A   1      -6.670   3.597 126.527  0.00  0.00    +0.034 C 
BRANCH  13  14
ATOM     14  C   LIG A   1      -6.285   2.761 125.261  0.00  0.00    +0.102 C 
ATOM     15  C   LIG A   1      -6.832   1.358 125.208  0.00  0.00    +0.037 A 
ATOM     16  C   LIG A   1      -7.234   0.680 124.066  0.00  0.00    -0.016 A 
ATOM     17  C   LIG A   1      -7.165   1.298 122.715  0.00  0.00    +0.067 C 
ATOM     18  CA  LIG A   1      -6.620   2.747 122.786  0.00  0.00    +0.168 C 
ATOM     19  N   LIG A   1      -6.866   3.460 124.081  0.00  0.00    -0.296 NA
ATOM     20  C   LIG A   1      -7.807  -0.562 124.458  0.00  0.00    +0.003 A 
ATOM     21  C   LIG A   1      -8.449  -1.616 123.783  0.00  0.00    +0.010 A 
ATOM     22  C   LIG A   1      -9.017  -2.656 124.531  0.00  0.00    +0.001 A 
ATOM     23  C   LIG A   1      -8.922  -2.674 125.923  0.00  0.00    +0.002 A 
ATOM     24  C   LIG A   1      -8.241  -1.666 126.607  0.00  0.00    +0.026 A 
ATOM     25  C   LIG A   1      -7.706  -0.625 125.843  0.00  0.00    +0.047 A 
ATOM     26  N   LIG A   1      -7.012   0.488 126.247  0.00  0.00    -0.356 N 
ATOM     27  H   LIG A   1      -6.533   4.421 124.022  0.00  0.00    +0.123 HD
ATOM     28  H   LIG A   1      -6.701   0.607 127.197  0.00  0.00    +0.166 HD
BRANCH  18  29
ATOM     29  C   LIG A   1      -7.262   3.523 121.631  0.00  0.00    +0.322 C 
ATOM     30  OXT LIG A   1      -6.732   3.933 120.611  0.00  0.00    -0.249 OA
BRANCH  29  31
ATOM     31  O   LIG A   1      -8.581   3.751 121.829  0.00  0.00    -0.479 OA
ATOM     32  H   LIG A   1      -8.754   3.316 122.692  0.00  0.00    +0.295 HD
ENDBRANCH  29  31
ENDBRANCH  18  29
ENDBRANCH  13  14
ENDBRANCH   6  13
BRANCH   2  33
ATOM     33  O   LIG A   1      -8.173   5.201 129.180  0.00  0.00    -0.309 OA
BRANCH  33  34
ATOM     34  C   LIG A   1      -9.498   5.128 129.758  0.00  0.00    +0.286 C 
ATOM     35  O   LIG A   1     -10.412   5.974 129.044  0.00  0.00    -0.340 OA
ATOM     36  C   LIG A   1     -11.711   6.039 129.665  0.00  0.00    +0.178 C 
ATOM     37  C   LIG A   1     -11.552   6.776 130.994  0.00  0.00    +0.177 C 
ATOM     38  C   LIG A   1     -10.705   5.892 131.905  0.00  0.00    +0.179 C 
ATOM     39  C   LIG A   1      -9.372   5.502 131.259  0.00  0.00    +0.201 C 
BRANCH  38  40
ATOM     40  O   LIG A   1     -10.481   6.591 133.141  0.00  0.00    -0.386 OA
ATOM     41  H   LIG A   1      -9.571   6.364 133.419  0.00  0.00    +0.210 HD
ENDBRANCH  38  40
BRANCH  37  42
ATOM     42  O   LIG A   1     -12.806   7.009 131.635  0.00  0.00    -0.387 OA
ATOM     43  H   LIG A   1     -13.079   7.898 131.329  0.00  0.00    +0.210 HD
ENDBRANCH  37  42
BRANCH  39  44
ATOM     44  O   LIG A   1      -8.816   4.419 132.040  0.00  0.00    -0.384 OA
ATOM     45  H   LIG A   1      -9.469   3.696 132.079  0.00  0.00    +0.210 HD
ENDBRANCH  39  44
BRANCH  36  46
ATOM     46  C   LIG A   1     -12.700   6.731 128.718  0.00  0.00    +0.190 C 
BRANCH  46  47
ATOM     47  O   LIG A   1     -12.324   6.561 127.355  0.00  0.00    -0.392 OA
ATOM     48  H   LIG A   1     -11.915   5.680 127.296  0.00  0.00    +0.209 HD
ENDBRANCH  46  47
ENDBRANCH  36  46
ENDBRANCH  33  34
ENDBRANCH   2  33
TORSDOF 14
ENDMDL
