MODEL 1
REMARK VINA RESULT:      -3.7      0.000      0.000
REMARK  Name = NuBBE_1377
REMARK  7 active torsions:
REMARK  status: ('A' for Active; 'I' for Inactive)
REMARK    1  A    between atoms: C_1  and  C_2
REMARK    2  A    between atoms: C_2  and  O_3
REMARK    3  A    between atoms: C_2  and  O_6
REMARK    4  A    between atoms: O_3  and  C_4
REMARK    5  A    between atoms: C_4  and  C_5
REMARK    6  A    between atoms: O_6  and  C_7
REMARK    7  A    between atoms: C_7  and  C_8
REMARK                            x       y       z     vdW  Elec       q    Type
REMARK                         _______ _______ _______ _____ _____    ______ ____
ROOT
ATOM      1  C   LIG A   1     -10.886   8.080 127.346  0.00  0.00    +0.070 C 
ATOM      2  C   LIG A   1     -10.885   7.073 128.495  0.00  0.00    +0.247 C 
ENDROOT
BRANCH   2   3
ATOM      3  O   LIG A   1     -12.116   6.348 128.503  0.00  0.00    -0.352 OA
BRANCH   3   4
ATOM      4  C   LIG A   1     -13.158   7.084 129.149  0.00  0.00    +0.159 C 
ATOM      5  C   LIG A   1     -12.814   7.243 130.616  0.00  0.00    +0.034 C 
ENDBRANCH   3   4
ENDBRANCH   2   3
BRANCH   2   6
ATOM      6  O   LIG A   1      -9.736   6.223 128.434  0.00  0.00    -0.352 OA
BRANCH   6   7
ATOM      7  C   LIG A   1      -9.272   5.776 129.706  0.00  0.00    +0.159 C 
ATOM      8  C   LIG A   1      -9.053   6.991 130.583  0.00  0.00    +0.034 C 
ENDBRANCH   6   7
ENDBRANCH   2   6
TORSDOF 4
ENDMDL
MODEL 2
REMARK VINA RESULT:      -3.6      2.523      3.622
REMARK  Name = NuBBE_1377
REMARK  7 active torsions:
REMARK  status: ('A' for Active; 'I' for Inactive)
REMARK    1  A    between atoms: C_1  and  C_2
REMARK    2  A    between atoms: C_2  and  O_3
REMARK    3  A    between atoms: C_2  and  O_6
REMARK    4  A    between atoms: O_3  and  C_4
REMARK    5  A    between atoms: C_4  and  C_5
REMARK    6  A    between atoms: O_6  and  C_7
REMARK    7  A    between atoms: C_7  and  C_8
REMARK                            x       y       z     vdW  Elec       q    Type
REMARK                         _______ _______ _______ _____ _____    ______ ____
ROOT
ATOM      1  C   LIG A   1     -12.736   7.846 130.616  0.00  0.00    +0.070 C 
ATOM      2  C   LIG A   1     -12.479   8.327 129.189  0.00  0.00    +0.247 C 
ENDROOT
BRANCH   2   3
ATOM      3  O   LIG A   1     -12.941   9.672 129.044  0.00  0.00    -0.352 OA
BRANCH   3   4
ATOM      4  C   LIG A   1     -13.290  10.249 130.304  0.00  0.00    +0.159 C 
ATOM      5  C   LIG A   1     -13.707  11.690 130.090  0.00  0.00    +0.034 C 
ENDBRANCH   3   4
ENDBRANCH   2   3
BRANCH   2   6
ATOM      6  O   LIG A   1     -11.104   8.167 128.831  0.00  0.00    -0.352 OA
BRANCH   6   7
ATOM      7  C   LIG A   1     -10.854   8.235 127.429  0.00  0.00    +0.159 C 
ATOM      8  C   LIG A   1     -11.790   7.269 126.734  0.00  0.00    +0.034 C 
ENDBRANCH   6   7
ENDBRANCH   2   6
TORSDOF 4
ENDMDL
MODEL 3
REMARK VINA RESULT:      -3.6      1.393      3.200
REMARK  Name = NuBBE_1377
REMARK  7 active torsions:
REMARK  status: ('A' for Active; 'I' for Inactive)
REMARK    1  A    between atoms: C_1  and  C_2
REMARK    2  A    between atoms: C_2  and  O_3
REMARK    3  A    between atoms: C_2  and  O_6
REMARK    4  A    between atoms: O_3  and  C_4
REMARK    5  A    between atoms: C_4  and  C_5
REMARK    6  A    between atoms: O_6  and  C_7
REMARK    7  A    between atoms: C_7  and  C_8
REMARK                            x       y       z     vdW  Elec       q    Type
REMARK                         _______ _______ _______ _____ _____    ______ ____
ROOT
ATOM      1  C   LIG A   1      -8.853   6.999 130.666  0.00  0.00    +0.070 C 
ATOM      2  C   LIG A   1     -10.129   7.431 129.946  0.00  0.00    +0.247 C 
ENDROOT
BRANCH   2   3
ATOM      3  O   LIG A   1      -9.802   7.954 128.656  0.00  0.00    -0.352 OA
BRANCH   3   4
ATOM      4  C   LIG A   1     -10.969   8.367 127.942  0.00  0.00    +0.159 C 
ATOM      5  C   LIG A   1     -11.008   7.657 126.604  0.00  0.00    +0.034 C 
ENDBRANCH   3   4
ENDBRANCH   2   3
BRANCH   2   6
ATOM      6  O   LIG A   1     -11.078   6.362 129.891  0.00  0.00    -0.352 OA
BRANCH   6   7
ATOM      7  C   LIG A   1     -11.911   6.262 131.044  0.00  0.00    +0.159 C 
ATOM      8  C   LIG A   1     -12.792   7.492 131.099  0.00  0.00    +0.034 C 
ENDBRANCH   6   7
ENDBRANCH   2   6
TORSDOF 4
ENDMDL
MODEL 4
REMARK VINA RESULT:      -3.6      2.772      4.180
REMARK  Name = NuBBE_1377
REMARK  7 active torsions:
REMARK  status: ('A' for Active; 'I' for Inactive)
REMARK    1  A    between atoms: C_1  and  C_2
REMARK    2  A    between atoms: C_2  and  O_3
REMARK    3  A    between atoms: C_2  and  O_6
REMARK    4  A    between atoms: O_3  and  C_4
REMARK    5  A    between atoms: C_4  and  C_5
REMARK    6  A    between atoms: O_6  and  C_7
REMARK    7  A    between atoms: C_7  and  C_8
REMARK                            x       y       z     vdW  Elec       q    Type
REMARK                         _______ _______ _______ _____ _____    ______ ____
ROOT
ATOM      1  C   LIG A   1     -13.525   7.596 127.865  0.00  0.00    +0.070 C 
ATOM      2  C   LIG A   1     -13.080   8.449 129.051  0.00  0.00    +0.247 C 
ENDROOT
BRANCH   2   3
ATOM      3  O   LIG A   1     -11.704   8.194 129.339  0.00  0.00    -0.352 OA
BRANCH   3   4
ATOM      4  C   LIG A   1     -11.547   7.079 130.219  0.00  0.00    +0.159 C 
ATOM      5  C   LIG A   1     -12.499   7.232 131.388  0.00  0.00    +0.034 C 
ENDBRANCH   3   4
ENDBRANCH   2   3
BRANCH   2   6
ATOM      6  O   LIG A   1     -13.356   9.834 128.822  0.00  0.00    -0.352 OA
BRANCH   6   7
ATOM      7  C   LIG A   1     -13.426  10.619 130.010  0.00  0.00    +0.159 C 
ATOM      8  C   LIG A   1     -13.887  12.011 129.631  0.00  0.00    +0.034 C 
ENDBRANCH   6   7
ENDBRANCH   2   6
TORSDOF 4
ENDMDL
MODEL 5
REMARK VINA RESULT:      -3.5      1.768      2.872
REMARK  Name = NuBBE_1377
REMARK  7 active torsions:
REMARK  status: ('A' for Active; 'I' for Inactive)
REMARK    1  A    between atoms: C_1  and  C_2
REMARK    2  A    between atoms: C_2  and  O_3
REMARK    3  A    between atoms: C_2  and  O_6
REMARK    4  A    between atoms: O_3  and  C_4
REMARK    5  A    between atoms: C_4  and  C_5
REMARK    6  A    between atoms: O_6  and  C_7
REMARK    7  A    between atoms: C_7  and  C_8
REMARK                            x       y       z     vdW  Elec       q    Type
REMARK                         _______ _______ _______ _____ _____    ______ ____
ROOT
ATOM      1  C   LIG A   1     -12.792   7.398 130.727  0.00  0.00    +0.070 C 
ATOM      2  C   LIG A   1     -12.945   6.701 129.377  0.00  0.00    +0.247 C 
ENDROOT
BRANCH   2   3
ATOM      3  O   LIG A   1     -12.733   7.641 128.322  0.00  0.00    -0.352 OA
BRANCH   3   4
ATOM      4  C   LIG A   1     -11.858   8.698 128.724  0.00  0.00    +0.159 C 
ATOM      5  C   LIG A   1     -10.513   8.509 128.053  0.00  0.00    +0.034 C 
ENDBRANCH   3   4
ENDBRANCH   2   3
BRANCH   2   6
ATOM      6  O   LIG A   1     -12.089   5.558 129.287  0.00  0.00    -0.352 OA
BRANCH   6   7
ATOM      7  C   LIG A   1     -11.368   5.274 130.483  0.00  0.00    +0.159 C 
ATOM      8  C   LIG A   1     -10.884   3.841 130.415  0.00  0.00    +0.034 C 
ENDBRANCH   6   7
ENDBRANCH   2   6
TORSDOF 4
ENDMDL
MODEL 6
REMARK VINA RESULT:      -3.5      1.811      3.126
REMARK  Name = NuBBE_1377
REMARK  7 active torsions:
REMARK  status: ('A' for Active; 'I' for Inactive)
REMARK    1  A    between atoms: C_1  and  C_2
REMARK    2  A    between atoms: C_2  and  O_3
REMARK    3  A    between atoms: C_2  and  O_6
REMARK    4  A    between atoms: O_3  and  C_4
REMARK    5  A    between atoms: C_4  and  C_5
REMARK    6  A    between atoms: O_6  and  C_7
REMARK    7  A    between atoms: C_7  and  C_8
REMARK                            x       y       z     vdW  Elec       q    Type
REMARK                         _______ _______ _______ _____ _____    ______ ____
ROOT
ATOM      1  C   LIG A   1     -13.813   6.952 128.197  0.00  0.00    +0.070 C 
ATOM      2  C   LIG A   1     -12.919   6.740 129.418  0.00  0.00    +0.247 C 
ENDROOT
BRANCH   2   3
ATOM      3  O   LIG A   1     -12.087   5.596 129.213  0.00  0.00    -0.352 OA
BRANCH   3   4
ATOM      4  C   LIG A   1     -11.343   5.267 130.389  0.00  0.00    +0.159 C 
ATOM      5  C   LIG A   1     -11.057   3.780 130.394  0.00  0.00    +0.034 C 
ENDBRANCH   3   4
ENDBRANCH   2   3
BRANCH   2   6
ATOM      6  O   LIG A   1     -12.177   7.923 129.726  0.00  0.00    -0.352 OA
BRANCH   6   7
ATOM      7  C   LIG A   1     -11.929   8.765 128.602  0.00  0.00    +0.159 C 
ATOM      8  C   LIG A   1     -10.501   8.543 128.150  0.00  0.00    +0.034 C 
ENDBRANCH   6   7
ENDBRANCH   2   6
TORSDOF 4
ENDMDL
MODEL 7
REMARK VINA RESULT:      -3.5     11.432     12.246
REMARK  Name = NuBBE_1377
REMARK  7 active torsions:
REMARK  status: ('A' for Active; 'I' for Inactive)
REMARK    1  A    between atoms: C_1  and  C_2
REMARK    2  A    between atoms: C_2  and  O_3
REMARK    3  A    between atoms: C_2  and  O_6
REMARK    4  A    between atoms: O_3  and  C_4
REMARK    5  A    between atoms: C_4  and  C_5
REMARK    6  A    between atoms: O_6  and  C_7
REMARK    7  A    between atoms: C_7  and  C_8
REMARK                            x       y       z     vdW  Elec       q    Type
REMARK                         _______ _______ _______ _____ _____    ______ ____
ROOT
ATOM      1  C   LIG A   1      -6.418  -1.687 122.924  0.00  0.00    +0.070 C 
ATOM      2  C   LIG A   1      -6.446  -2.450 124.247  0.00  0.00    +0.247 C 
ENDROOT
BRANCH   2   3
ATOM      3  O   LIG A   1      -7.462  -3.455 124.203  0.00  0.00    -0.352 OA
BRANCH   3   4
ATOM      4  C   LIG A   1      -8.761  -2.902 124.427  0.00  0.00    +0.159 C 
ATOM      5  C   LIG A   1      -9.706  -3.411 123.358  0.00  0.00    +0.034 C 
ENDBRANCH   3   4
ENDBRANCH   2   3
BRANCH   2   6
ATOM      6  O   LIG A   1      -5.155  -2.975 124.567  0.00  0.00    -0.352 OA
BRANCH   6   7
ATOM      7  C   LIG A   1      -4.409  -3.421 123.436  0.00  0.00    +0.159 C 
ATOM      8  C   LIG A   1      -4.315  -4.931 123.498  0.00  0.00    +0.034 C 
ENDBRANCH   6   7
ENDBRANCH   2   6
TORSDOF 4
ENDMDL
MODEL 8
REMARK VINA RESULT:      -3.5     10.872     12.065
REMARK  Name = NuBBE_1377
REMARK  7 active torsions:
REMARK  status: ('A' for Active; 'I' for Inactive)
REMARK    1  A    between atoms: C_1  and  C_2
REMARK    2  A    between atoms: C_2  and  O_3
REMARK    3  A    between atoms: C_2  and  O_6
REMARK    4  A    between atoms: O_3  and  C_4
REMARK    5  A    between atoms: C_4  and  C_5
REMARK    6  A    between atoms: O_6  and  C_7
REMARK    7  A    between atoms: C_7  and  C_8
REMARK                            x       y       z     vdW  Elec       q    Type
REMARK                         _______ _______ _______ _____ _____    ______ ____
ROOT
ATOM      1  C   LIG A   1      -9.272  -3.213 123.755  0.00  0.00    +0.070 C 
ATOM      2  C   LIG A   1      -7.959  -3.616 124.424  0.00  0.00    +0.247 C 
ENDROOT
BRANCH   2   3
ATOM      3  O   LIG A   1      -6.857  -3.128 123.655  0.00  0.00    -0.352 OA
BRANCH   3   4
ATOM      4  C   LIG A   1      -5.639  -3.152 124.405  0.00  0.00    +0.159 C 
ATOM      5  C   LIG A   1      -4.561  -3.821 123.577  0.00  0.00    +0.034 C 
ENDBRANCH   3   4
ENDBRANCH   2   3
BRANCH   2   6
ATOM      6  O   LIG A   1      -7.923  -3.187 125.788  0.00  0.00    -0.352 OA
BRANCH   6   7
ATOM      7  C   LIG A   1      -9.181  -3.255 126.454  0.00  0.00    +0.159 C 
ATOM      8  C   LIG A   1      -8.965  -3.897 127.809  0.00  0.00    +0.034 C 
ENDBRANCH   6   7
ENDBRANCH   2   6
TORSDOF 4
ENDMDL
MODEL 9
REMARK VINA RESULT:      -3.4      1.861      2.307
REMARK  Name = NuBBE_1377
REMARK  7 active torsions:
REMARK  status: ('A' for Active; 'I' for Inactive)
REMARK    1  A    between atoms: C_1  and  C_2
REMARK    2  A    between atoms: C_2  and  O_3
REMARK    3  A    between atoms: C_2  and  O_6
REMARK    4  A    between atoms: O_3  and  C_4
REMARK    5  A    between atoms: C_4  and  C_5
REMARK    6  A    between atoms: O_6  and  C_7
REMARK    7  A    between atoms: C_7  and  C_8
REMARK                            x       y       z     vdW  Elec       q    Type
REMARK                         _______ _______ _______ _____ _____    ______ ____
ROOT
ATOM      1  C   LIG A   1     -12.394   7.091 126.649  0.00  0.00    +0.070 C 
ATOM      2  C   LIG A   1     -11.686   7.146 128.001  0.00  0.00    +0.247 C 
ENDROOT
BRANCH   2   3
ATOM      3  O   LIG A   1     -11.676   8.491 128.485  0.00  0.00    -0.352 OA
BRANCH   3   4
ATOM      4  C   LIG A   1     -12.993   9.045 128.532  0.00  0.00    +0.159 C 
ATOM      5  C   LIG A   1     -13.109   9.944 129.746  0.00  0.00    +0.034 C 
ENDBRANCH   3   4
ENDBRANCH   2   3
BRANCH   2   6
ATOM      6  O   LIG A   1     -12.268   6.224 128.926  0.00  0.00    -0.352 OA
BRANCH   6   7
ATOM      7  C   LIG A   1     -11.422   5.885 130.023  0.00  0.00    +0.159 C 
ATOM      8  C   LIG A   1     -11.999   6.511 131.276  0.00  0.00    +0.034 C 
ENDBRANCH   6   7
ENDBRANCH   2   6
TORSDOF 4
ENDMDL
