MODEL 1
REMARK VINA RESULT:      -8.7      0.000      0.000
REMARK  Name = NuBBE_142
REMARK  18 active torsions:
REMARK  status: ('A' for Active; 'I' for Inactive)
REMARK    1  A    between atoms: O_1  and  C_2
REMARK    2  A    between atoms: C_4  and  O_5
REMARK    3  A    between atoms: C_8  and  O_9
REMARK    4  A    between atoms: O_9  and  C_10
REMARK    5  A    between atoms: C_12  and  O_25
REMARK    6  A    between atoms: C_14  and  O_24
REMARK    7  A    between atoms: C_16  and  O_23
REMARK    8  A    between atoms: C_18  and  C_21
REMARK    9  A    between atoms: C_21  and  O_22
REMARK   10  A    between atoms: O_25  and  C_26
REMARK   11  A    between atoms: C_29  and  C_40
REMARK   12  A    between atoms: C_31  and  O_39
REMARK   13  A    between atoms: C_33  and  O_38
REMARK   14  A    between atoms: C_35  and  O_37
REMARK   15  A    between atoms: C_40  and  O_41
REMARK   16  A    between atoms: C_42  and  C_46
REMARK   17  A    between atoms: C_48  and  O_49
REMARK   18  A    between atoms: C_50  and  O_53
REMARK                            x       y       z     vdW  Elec       q    Type
REMARK                         _______ _______ _______ _____ _____    ______ ____
ROOT
ATOM      1  C   LIG A   1      -7.346   1.568 127.338  0.00  0.00    +0.340 C 
ATOM      2  C   LIG A   1      -7.420   3.003 127.998  0.00  0.00    +0.221 C 
ATOM      3  C   LIG A   1      -6.995   4.060 126.988  0.00  0.00    +0.180 C 
ATOM      4  C   LIG A   1      -7.813   3.990 125.706  0.00  0.00    +0.177 C 
ATOM      5  C   LIG A   1      -8.253   2.578 125.275  0.00  0.00    +0.179 C 
ATOM      6  O   LIG A   1      -7.492   1.540 125.889  0.00  0.00    -0.331 OA
ENDROOT
BRANCH   3   7
ATOM      7  O   LIG A   1      -5.595   4.004 126.725  0.00  0.00    -0.386 OA
ATOM      8  H   LIG A   1      -5.506   4.017 125.752  0.00  0.00    +0.210 HD
ENDBRANCH   3   7
BRANCH   4   9
ATOM      9  O   LIG A   1      -8.983   4.814 125.853  0.00  0.00    -0.387 OA
ATOM     10  H   LIG A   1      -8.668   5.700 126.120  0.00  0.00    +0.210 HD
ENDBRANCH   4   9
BRANCH   2  11
ATOM     11  O   LIG A   1      -8.711   3.339 128.572  0.00  0.00    -0.337 OA
BRANCH  11  12
ATOM     12  C   LIG A   1      -8.668   4.273 129.694  0.00  0.00    +0.282 C 
ATOM     13  O   LIG A   1      -8.763   3.626 130.966  0.00  0.00    -0.341 OA
ATOM     14  C   LIG A   1      -8.740   4.554 132.066  0.00  0.00    +0.178 C 
ATOM     15  C   LIG A   1      -9.983   5.458 132.042  0.00  0.00    +0.177 C 
ATOM     16  C   LIG A   1     -10.063   6.199 130.711  0.00  0.00    +0.179 C 
ATOM     17  C   LIG A   1      -9.792   5.319 129.482  0.00  0.00    +0.201 C 
BRANCH  15  18
ATOM     18  O   LIG A   1      -9.961   6.470 133.068  0.00  0.00    -0.387 OA
ATOM     19  H   LIG A   1      -9.019   6.635 133.293  0.00  0.00    +0.210 HD
ENDBRANCH  15  18
BRANCH  16  20
ATOM     20  O   LIG A   1     -11.375   6.784 130.593  0.00  0.00    -0.386 OA
ATOM     21  H   LIG A   1     -11.657   6.631 129.671  0.00  0.00    +0.210 HD
ENDBRANCH  16  20
BRANCH  17  22
ATOM     22  O   LIG A   1      -9.472   6.175 128.359  0.00  0.00    -0.384 OA
ATOM     23  H   LIG A   1     -10.216   6.168 127.729  0.00  0.00    +0.210 HD
ENDBRANCH  17  22
BRANCH  14  24
ATOM     24  C   LIG A   1      -8.675   3.780 133.394  0.00  0.00    +0.190 C 
BRANCH  24  25
ATOM     25  O   LIG A   1      -9.932   3.857 134.072  0.00  0.00    -0.392 OA
ATOM     26  H   LIG A   1     -10.417   3.034 133.874  0.00  0.00    +0.209 HD
ENDBRANCH  24  25
ENDBRANCH  14  24
ENDBRANCH  11  12
ENDBRANCH   2  11
BRANCH   5  27
ATOM     27  C   LIG A   1      -8.087   2.570 123.726  0.00  0.00    +0.190 C 
BRANCH  27  28
ATOM     28  O   LIG A   1      -8.163   3.857 123.129  0.00  0.00    -0.392 OA
ATOM     29  H   LIG A   1      -8.540   3.721 122.240  0.00  0.00    +0.209 HD
ENDBRANCH  27  28
ENDBRANCH   5  27
BRANCH   1  30
ATOM     30  O   LIG A   1      -8.231   0.621 127.988  0.00  0.00    -0.453 OA
BRANCH  30  36
ATOM     31  C   LIG A   1      -6.152  -3.880 132.205  0.00  0.00    +0.124 A 
ATOM     32  C   LIG A   1      -6.610  -2.826 132.989  0.00  0.00    +0.091 A 
ATOM     33  C   LIG A   1      -7.069  -1.665 132.363  0.00  0.00    +0.135 A 
ATOM     34  C   LIG A   1      -7.073  -1.551 130.959  0.00  0.00    +0.109 A 
ATOM     35  C   LIG A   1      -7.466  -0.305 130.243  0.00  0.00    +0.238 A 
ATOM     36  C   LIG A   1      -7.709  -0.437 128.736  0.00  0.00    +0.214 A 
ATOM     37  C   LIG A   1      -7.408  -1.641 128.176  0.00  0.00    +0.181 A 
ATOM     38  O   LIG A   1      -6.759  -2.669 128.842  0.00  0.00    -0.451 OA
ATOM     39  C   LIG A   1      -6.669  -2.645 130.201  0.00  0.00    +0.146 A 
ATOM     40  C   LIG A   1      -6.186  -3.799 130.820  0.00  0.00    +0.092 A 
ATOM     41  O   LIG A   1      -7.572   0.718 130.830  0.00  0.00    -0.283 OA
BRANCH  37  42
ATOM     42  C   LIG A   1      -7.740  -2.016 126.774  0.00  0.00    +0.025 A 
ATOM     43  C   LIG A   1      -6.796  -1.846 125.736  0.00  0.00    +0.060 A 
ATOM     44  C   LIG A   1      -7.122  -2.208 124.429  0.00  0.00    +0.159 A 
ATOM     45  C   LIG A   1      -8.381  -2.709 124.125  0.00  0.00    +0.158 A 
ATOM     46  C   LIG A   1      -9.289  -2.967 125.134  0.00  0.00    +0.050 A 
ATOM     47  C   LIG A   1      -8.953  -2.652 126.454  0.00  0.00    +0.015 A 
BRANCH  45  48
ATOM     48  O   LIG A   1      -8.722  -2.970 122.830  0.00  0.00    -0.503 OA
ATOM     49  H   LIG A   1      -7.905  -3.320 122.424  0.00  0.00    +0.292 HD
ENDBRANCH  45  48
BRANCH  44  50
ATOM     50  O   LIG A   1      -6.215  -2.114 123.410  0.00  0.00    -0.503 OA
ATOM     51  H   LIG A   1      -6.153  -3.004 123.018  0.00  0.00    +0.292 HD
ENDBRANCH  44  50
ENDBRANCH  37  42
BRANCH  31  52
ATOM     52  O   LIG A   1      -5.680  -5.030 132.761  0.00  0.00    -0.506 OA
ATOM     53  H   LIG A   1      -4.854  -5.289 132.320  0.00  0.00    +0.292 HD
ENDBRANCH  31  52
BRANCH  33  54
ATOM     54  O   LIG A   1      -7.556  -0.654 133.151  0.00  0.00    -0.506 OA
ATOM     55  H   LIG A   1      -7.259  -0.768 134.067  0.00  0.00    +0.292 HD
ENDBRANCH  33  54
ENDBRANCH  30  36
ENDBRANCH   1  30
TORSDOF 18
ENDMDL
MODEL 2
REMARK VINA RESULT:      -8.2      4.242      8.160
REMARK  Name = NuBBE_142
REMARK  18 active torsions:
REMARK  status: ('A' for Active; 'I' for Inactive)
REMARK    1  A    between atoms: O_1  and  C_2
REMARK    2  A    between atoms: C_4  and  O_5
REMARK    3  A    between atoms: C_8  and  O_9
REMARK    4  A    between atoms: O_9  and  C_10
REMARK    5  A    between atoms: C_12  and  O_25
REMARK    6  A    between atoms: C_14  and  O_24
REMARK    7  A    between atoms: C_16  and  O_23
REMARK    8  A    between atoms: C_18  and  C_21
REMARK    9  A    between atoms: C_21  and  O_22
REMARK   10  A    between atoms: O_25  and  C_26
REMARK   11  A    between atoms: C_29  and  C_40
REMARK   12  A    between atoms: C_31  and  O_39
REMARK   13  A    between atoms: C_33  and  O_38
REMARK   14  A    between atoms: C_35  and  O_37
REMARK   15  A    between atoms: C_40  and  O_41
REMARK   16  A    between atoms: C_42  and  C_46
REMARK   17  A    between atoms: C_48  and  O_49
REMARK   18  A    between atoms: C_50  and  O_53
REMARK                            x       y       z     vdW  Elec       q    Type
REMARK                         _______ _______ _______ _____ _____    ______ ____
ROOT
ATOM      1  C   LIG A   1      -7.578   3.457 130.585  0.00  0.00    +0.340 C 
ATOM      2  C   LIG A   1      -9.100   3.808 130.831  0.00  0.00    +0.221 C 
ATOM      3  C   LIG A   1      -9.620   3.040 132.039  0.00  0.00    +0.180 C 
ATOM      4  C   LIG A   1      -8.778   3.290 133.283  0.00  0.00    +0.177 C 
ATOM      5  C   LIG A   1      -7.272   3.501 133.035  0.00  0.00    +0.179 C 
ATOM      6  O   LIG A   1      -6.840   3.023 131.763  0.00  0.00    -0.331 OA
ENDROOT
BRANCH   3   7
ATOM      7  O   LIG A   1      -9.751   1.648 131.762  0.00  0.00    -0.386 OA
ATOM      8  H   LIG A   1     -10.289   1.587 130.949  0.00  0.00    +0.210 HD
ENDBRANCH   3   7
BRANCH   4   9
ATOM      9  O   LIG A   1      -9.298   4.439 133.977  0.00  0.00    -0.387 OA
ATOM     10  H   LIG A   1      -9.579   4.127 134.859  0.00  0.00    +0.210 HD
ENDBRANCH   4   9
BRANCH   2  11
ATOM     11  O   LIG A   1      -9.378   5.226 130.974  0.00  0.00    -0.337 OA
BRANCH  11  12
ATOM     12  C   LIG A   1     -10.497   5.723 130.179  0.00  0.00    +0.282 C 
ATOM     13  O   LIG A   1     -10.087   6.364 128.968  0.00  0.00    -0.341 OA
ATOM     14  C   LIG A   1     -11.194   6.867 128.200  0.00  0.00    +0.178 C 
ATOM     15  C   LIG A   1     -11.918   7.991 128.959  0.00  0.00    +0.177 C 
ATOM     16  C   LIG A   1     -12.389   7.482 130.319  0.00  0.00    +0.179 C 
ATOM     17  C   LIG A   1     -11.340   6.659 131.081  0.00  0.00    +0.201 C 
BRANCH  15  18
ATOM     18  O   LIG A   1     -13.093   8.465 128.275  0.00  0.00    -0.387 OA
ATOM     19  H   LIG A   1     -13.873   8.154 128.787  0.00  0.00    +0.210 HD
ENDBRANCH  15  18
BRANCH  16  20
ATOM     20  O   LIG A   1     -12.774   8.616 131.121  0.00  0.00    -0.386 OA
ATOM     21  H   LIG A   1     -13.623   8.375 131.538  0.00  0.00    +0.210 HD
ENDBRANCH  16  20
BRANCH  17  22
ATOM     22  O   LIG A   1     -12.010   5.891 132.110  0.00  0.00    -0.384 OA
ATOM     23  H   LIG A   1     -11.565   5.030 132.208  0.00  0.00    +0.210 HD
ENDBRANCH  17  22
BRANCH  14  24
ATOM     24  C   LIG A   1     -10.689   7.387 126.842  0.00  0.00    +0.190 C 
BRANCH  24  25
ATOM     25  O   LIG A   1      -9.812   6.430 126.242  0.00  0.00    -0.392 OA
ATOM     26  H   LIG A   1      -8.986   6.897 126.017  0.00  0.00    +0.209 HD
ENDBRANCH  24  25
ENDBRANCH  14  24
ENDBRANCH  11  12
ENDBRANCH   2  11
BRANCH   5  27
ATOM     27  C   LIG A   1      -6.571   2.742 134.201  0.00  0.00    +0.190 C 
BRANCH  27  28
ATOM     28  O   LIG A   1      -5.162   2.917 134.241  0.00  0.00    -0.392 OA
ATOM     29  H   LIG A   1      -4.793   2.070 134.549  0.00  0.00    +0.209 HD
ENDBRANCH  27  28
ENDBRANCH   5  27
BRANCH   1  30
ATOM     30  O   LIG A   1      -6.883   4.509 129.869  0.00  0.00    -0.453 OA
BRANCH  30  36
ATOM     31  C   LIG A   1      -5.955   3.751 123.471  0.00  0.00    +0.124 A 
ATOM     32  C   LIG A   1      -7.335   3.737 123.647  0.00  0.00    +0.091 A 
ATOM     33  C   LIG A   1      -7.855   3.818 124.940  0.00  0.00    +0.135 A 
ATOM     34  C   LIG A   1      -7.005   3.912 126.059  0.00  0.00    +0.109 A 
ATOM     35  C   LIG A   1      -7.501   3.910 127.464  0.00  0.00    +0.238 A 
ATOM     36  C   LIG A   1      -6.493   4.321 128.541  0.00  0.00    +0.214 A 
ATOM     37  C   LIG A   1      -5.210   4.514 128.128  0.00  0.00    +0.181 A 
ATOM     38  O   LIG A   1      -4.745   4.206 126.859  0.00  0.00    -0.451 OA
ATOM     39  C   LIG A   1      -5.632   3.988 125.848  0.00  0.00    +0.146 A 
ATOM     40  C   LIG A   1      -5.104   3.883 124.560  0.00  0.00    +0.092 A 
ATOM     41  O   LIG A   1      -8.618   3.597 127.706  0.00  0.00    -0.283 OA
BRANCH  37  42
ATOM     42  C   LIG A   1      -4.134   5.083 128.985  0.00  0.00    +0.025 A 
ATOM     43  C   LIG A   1      -3.733   4.433 130.174  0.00  0.00    +0.060 A 
ATOM     44  C   LIG A   1      -2.719   4.979 130.961  0.00  0.00    +0.159 A 
ATOM     45  C   LIG A   1      -2.113   6.177 130.608  0.00  0.00    +0.158 A 
ATOM     46  C   LIG A   1      -2.425   6.785 129.406  0.00  0.00    +0.050 A 
ATOM     47  C   LIG A   1      -3.406   6.220 128.587  0.00  0.00    +0.015 A 
BRANCH  45  48
ATOM     48  O   LIG A   1      -1.191   6.750 131.433  0.00  0.00    -0.503 OA
ATOM     49  H   LIG A   1      -1.104   6.125 132.179  0.00  0.00    +0.292 HD
ENDBRANCH  45  48
BRANCH  44  50
ATOM     50  O   LIG A   1      -2.265   4.347 132.086  0.00  0.00    -0.503 OA
ATOM     51  H   LIG A   1      -2.253   3.395 131.877  0.00  0.00    +0.292 HD
ENDBRANCH  44  50
ENDBRANCH  37  42
BRANCH  31  52
ATOM     52  O   LIG A   1      -5.391   3.662 122.235  0.00  0.00    -0.506 OA
ATOM     53  H   LIG A   1      -5.301   4.551 121.854  0.00  0.00    +0.292 HD
ENDBRANCH  31  52
BRANCH  33  54
ATOM     54  O   LIG A   1      -9.217   3.847 125.089  0.00  0.00    -0.506 OA
ATOM     55  H   LIG A   1      -9.548   4.754 124.997  0.00  0.00    +0.292 HD
ENDBRANCH  33  54
ENDBRANCH  30  36
ENDBRANCH   1  30
TORSDOF 18
ENDMDL
MODEL 3
REMARK VINA RESULT:      -8.1      2.215      5.680
REMARK  Name = NuBBE_142
REMARK  18 active torsions:
REMARK  status: ('A' for Active; 'I' for Inactive)
REMARK    1  A    between atoms: O_1  and  C_2
REMARK    2  A    between atoms: C_4  and  O_5
REMARK    3  A    between atoms: C_8  and  O_9
REMARK    4  A    between atoms: O_9  and  C_10
REMARK    5  A    between atoms: C_12  and  O_25
REMARK    6  A    between atoms: C_14  and  O_24
REMARK    7  A    between atoms: C_16  and  O_23
REMARK    8  A    between atoms: C_18  and  C_21
REMARK    9  A    between atoms: C_21  and  O_22
REMARK   10  A    between atoms: O_25  and  C_26
REMARK   11  A    between atoms: C_29  and  C_40
REMARK   12  A    between atoms: C_31  and  O_39
REMARK   13  A    between atoms: C_33  and  O_38
REMARK   14  A    between atoms: C_35  and  O_37
REMARK   15  A    between atoms: C_40  and  O_41
REMARK   16  A    between atoms: C_42  and  C_46
REMARK   17  A    between atoms: C_48  and  O_49
REMARK   18  A    between atoms: C_50  and  O_53
REMARK                            x       y       z     vdW  Elec       q    Type
REMARK                         _______ _______ _______ _____ _____    ______ ____
ROOT
ATOM      1  C   LIG A   1      -7.234  -1.780 126.958  0.00  0.00    +0.340 C 
ATOM      2  C   LIG A   1      -6.801  -0.521 126.104  0.00  0.00    +0.221 C 
ATOM      3  C   LIG A   1      -6.708  -0.900 124.633  0.00  0.00    +0.180 C 
ATOM      4  C   LIG A   1      -8.003  -1.511 124.115  0.00  0.00    +0.177 C 
ATOM      5  C   LIG A   1      -8.788  -2.363 125.129  0.00  0.00    +0.179 C 
ATOM      6  O   LIG A   1      -7.998  -2.789 126.237  0.00  0.00    -0.331 OA
ENDROOT
BRANCH   3   7
ATOM      7  O   LIG A   1      -5.588  -1.742 124.376  0.00  0.00    -0.386 OA
ATOM      8  H   LIG A   1      -5.563  -2.386 125.110  0.00  0.00    +0.210 HD
ENDBRANCH   3   7
BRANCH   4   9
ATOM      9  O   LIG A   1      -8.858  -0.457 123.635  0.00  0.00    -0.387 OA
ATOM     10  H   LIG A   1      -8.470   0.382 123.953  0.00  0.00    +0.210 HD
ENDBRANCH   4   9
BRANCH   2  11
ATOM     11  O   LIG A   1      -7.650   0.645 126.275  0.00  0.00    -0.337 OA
BRANCH  11  12
ATOM     12  C   LIG A   1      -7.204   1.846 125.574  0.00  0.00    +0.282 C 
ATOM     13  O   LIG A   1      -5.995   2.392 126.107  0.00  0.00    -0.341 OA
ATOM     14  C   LIG A   1      -5.573   3.585 125.423  0.00  0.00    +0.178 C 
ATOM     15  C   LIG A   1      -6.588   4.721 125.631  0.00  0.00    +0.177 C 
ATOM     16  C   LIG A   1      -7.968   4.281 125.150  0.00  0.00    +0.179 C 
ATOM     17  C   LIG A   1      -8.369   2.867 125.596  0.00  0.00    +0.201 C 
BRANCH  15  18
ATOM     18  O   LIG A   1      -6.261   5.911 124.888  0.00  0.00    -0.387 OA
ATOM     19  H   LIG A   1      -6.626   6.674 125.387  0.00  0.00    +0.210 HD
ENDBRANCH  15  18
BRANCH  16  20
ATOM     20  O   LIG A   1      -8.943   5.224 125.637  0.00  0.00    -0.386 OA
ATOM     21  H   LIG A   1      -9.111   5.843 124.901  0.00  0.00    +0.210 HD
ENDBRANCH  16  20
BRANCH  17  22
ATOM     22  O   LIG A   1      -9.455   2.406 124.756  0.00  0.00    -0.384 OA
ATOM     23  H   LIG A   1      -9.837   3.166 124.280  0.00  0.00    +0.210 HD
ENDBRANCH  17  22
BRANCH  14  24
ATOM     24  C   LIG A   1      -4.188   4.015 125.938  0.00  0.00    +0.190 C 
BRANCH  24  25
ATOM     25  O   LIG A   1      -4.328   4.981 126.983  0.00  0.00    -0.392 OA
ATOM     26  H   LIG A   1      -5.262   4.970 127.263  0.00  0.00    +0.209 HD
ENDBRANCH  24  25
ENDBRANCH  14  24
ENDBRANCH  11  12
ENDBRANCH   2  11
BRANCH   5  27
ATOM     27  C   LIG A   1      -9.316  -3.573 124.303  0.00  0.00    +0.190 C 
BRANCH  27  28
ATOM     28  O   LIG A   1     -10.176  -3.212 123.232  0.00  0.00    -0.392 OA
ATOM     29  H   LIG A   1      -9.657  -3.329 122.416  0.00  0.00    +0.209 HD
ENDBRANCH  27  28
ENDBRANCH   5  27
BRANCH   1  30
ATOM     30  O   LIG A   1      -7.876  -1.403 128.201  0.00  0.00    -0.453 OA
BRANCH  30  36
ATOM     31  C   LIG A   1      -4.790  -3.459 133.551  0.00  0.00    +0.124 A 
ATOM     32  C   LIG A   1      -4.924  -4.587 132.748  0.00  0.00    +0.091 A 
ATOM     33  C   LIG A   1      -5.612  -4.480 131.537  0.00  0.00    +0.135 A 
ATOM     34  C   LIG A   1      -6.167  -3.253 131.125  0.00  0.00    +0.109 A 
ATOM     35  C   LIG A   1      -6.987  -3.102 129.891  0.00  0.00    +0.238 A 
ATOM     36  C   LIG A   1      -7.257  -1.667 129.426  0.00  0.00    +0.214 A 
ATOM     37  C   LIG A   1      -6.841  -0.672 130.257  0.00  0.00    +0.181 A 
ATOM     38  O   LIG A   1      -6.354  -0.881 131.538  0.00  0.00    -0.451 OA
ATOM     39  C   LIG A   1      -5.962  -2.129 131.919  0.00  0.00    +0.146 A 
ATOM     40  C   LIG A   1      -5.297  -2.234 133.141  0.00  0.00    +0.092 A 
ATOM     41  O   LIG A   1      -7.400  -4.056 129.322  0.00  0.00    -0.283 OA
BRANCH  37  42
ATOM     42  C   LIG A   1      -6.854   0.773 129.901  0.00  0.00    +0.025 A 
ATOM     43  C   LIG A   1      -8.072   1.458 129.692  0.00  0.00    +0.060 A 
ATOM     44  C   LIG A   1      -8.064   2.813 129.364  0.00  0.00    +0.159 A 
ATOM     45  C   LIG A   1      -6.867   3.499 129.210  0.00  0.00    +0.158 A 
ATOM     46  C   LIG A   1      -5.668   2.876 129.495  0.00  0.00    +0.050 A 
ATOM     47  C   LIG A   1      -5.668   1.529 129.871  0.00  0.00    +0.015 A 
BRANCH  45  48
ATOM     48  O   LIG A   1      -6.868   4.799 128.796  0.00  0.00    -0.503 OA
ATOM     49  H   LIG A   1      -6.379   5.280 129.492  0.00  0.00    +0.292 HD
ENDBRANCH  45  48
BRANCH  44  50
ATOM     50  O   LIG A   1      -9.224   3.522 129.213  0.00  0.00    -0.503 OA
ATOM     51  H   LIG A   1      -9.171   4.267 129.839  0.00  0.00    +0.292 HD
ENDBRANCH  44  50
ENDBRANCH  37  42
BRANCH  31  52
ATOM     52  O   LIG A   1      -4.141  -3.508 134.747  0.00  0.00    -0.506 OA
ATOM     53  H   LIG A   1      -3.382  -2.901 134.730  0.00  0.00    +0.292 HD
ENDBRANCH  31  52
BRANCH  33  54
ATOM     54  O   LIG A   1      -5.696  -5.592 130.740  0.00  0.00    -0.506 OA
ATOM     55  H   LIG A   1      -6.575  -5.649 130.333  0.00  0.00    +0.292 HD
ENDBRANCH  33  54
ENDBRANCH  30  36
ENDBRANCH   1  30
TORSDOF 18
ENDMDL
MODEL 4
REMARK VINA RESULT:      -8.1      2.974      8.733
REMARK  Name = NuBBE_142
REMARK  18 active torsions:
REMARK  status: ('A' for Active; 'I' for Inactive)
REMARK    1  A    between atoms: O_1  and  C_2
REMARK    2  A    between atoms: C_4  and  O_5
REMARK    3  A    between atoms: C_8  and  O_9
REMARK    4  A    between atoms: O_9  and  C_10
REMARK    5  A    between atoms: C_12  and  O_25
REMARK    6  A    between atoms: C_14  and  O_24
REMARK    7  A    between atoms: C_16  and  O_23
REMARK    8  A    between atoms: C_18  and  C_21
REMARK    9  A    between atoms: C_21  and  O_22
REMARK   10  A    between atoms: O_25  and  C_26
REMARK   11  A    between atoms: C_29  and  C_40
REMARK   12  A    between atoms: C_31  and  O_39
REMARK   13  A    between atoms: C_33  and  O_38
REMARK   14  A    between atoms: C_35  and  O_37
REMARK   15  A    between atoms: C_40  and  O_41
REMARK   16  A    between atoms: C_42  and  C_46
REMARK   17  A    between atoms: C_48  and  O_49
REMARK   18  A    between atoms: C_50  and  O_53
REMARK                            x       y       z     vdW  Elec       q    Type
REMARK                         _______ _______ _______ _____ _____    ______ ____
ROOT
ATOM      1  C   LIG A   1      -6.859   4.167 126.748  0.00  0.00    +0.340 C 
ATOM      2  C   LIG A   1      -6.442   2.932 125.852  0.00  0.00    +0.221 C 
ATOM      3  C   LIG A   1      -5.040   3.146 125.297  0.00  0.00    +0.180 C 
ATOM      4  C   LIG A   1      -4.022   3.410 126.399  0.00  0.00    +0.177 C 
ATOM      5  C   LIG A   1      -4.547   4.195 127.615  0.00  0.00    +0.179 C 
ATOM      6  O   LIG A   1      -5.755   4.903 127.348  0.00  0.00    -0.331 OA
ENDROOT
BRANCH   3   7
ATOM      7  O   LIG A   1      -5.017   4.166 124.302  0.00  0.00    -0.386 OA
ATOM      8  H   LIG A   1      -4.224   3.991 123.759  0.00  0.00    +0.210 HD
ENDBRANCH   3   7
BRANCH   4   9
ATOM      9  O   LIG A   1      -3.489   2.152 126.853  0.00  0.00    -0.387 OA
ATOM     10  H   LIG A   1      -3.380   1.593 126.059  0.00  0.00    +0.210 HD
ENDBRANCH   4   9
BRANCH   2  11
ATOM     11  O   LIG A   1      -6.534   1.644 126.516  0.00  0.00    -0.337 OA
BRANCH  11  12
ATOM     12  C   LIG A   1      -7.383   0.661 125.850  0.00  0.00    +0.282 C 
ATOM     13  O   LIG A   1      -6.812   0.153 124.641  0.00  0.00    -0.341 OA
ATOM     14  C   LIG A   1      -7.663  -0.801 123.980  0.00  0.00    +0.178 C 
ATOM     15  C   LIG A   1      -8.959  -0.130 123.496  0.00  0.00    +0.177 C 
ATOM     16  C   LIG A   1      -9.683   0.516 124.674  0.00  0.00    +0.179 C 
ATOM     17  C   LIG A   1      -8.769   1.315 125.614  0.00  0.00    +0.201 C 
BRANCH  15  18
ATOM     18  O   LIG A   1      -9.889  -1.062 122.911  0.00  0.00    -0.387 OA
ATOM     19  H   LIG A   1      -9.557  -1.966 123.108  0.00  0.00    +0.210 HD
ENDBRANCH  15  18
BRANCH  16  20
ATOM     20  O   LIG A   1     -10.707   1.388 124.157  0.00  0.00    -0.386 OA
ATOM     21  H   LIG A   1     -10.561   1.434 123.193  0.00  0.00    +0.210 HD
ENDBRANCH  16  20
BRANCH  17  22
ATOM     22  O   LIG A   1      -9.452   1.505 126.877  0.00  0.00    -0.384 OA
ATOM     23  H   LIG A   1     -10.153   2.173 126.764  0.00  0.00    +0.210 HD
ENDBRANCH  17  22
BRANCH  14  24
ATOM     24  C   LIG A   1      -6.914  -1.423 122.788  0.00  0.00    +0.190 C 
BRANCH  24  25
ATOM     25  O   LIG A   1      -5.764  -2.138 123.247  0.00  0.00    -0.392 OA
ATOM     26  H   LIG A   1      -4.994  -1.787 122.761  0.00  0.00    +0.209 HD
ENDBRANCH  24  25
ENDBRANCH  14  24
ENDBRANCH  11  12
ENDBRANCH   2  11
BRANCH   5  27
ATOM     27  C   LIG A   1      -3.386   5.163 127.990  0.00  0.00    +0.190 C 
BRANCH  27  28
ATOM     28  O   LIG A   1      -2.117   4.766 127.490  0.00  0.00    -0.392 OA
ATOM     29  H   LIG A   1      -1.464   5.045 128.157  0.00  0.00    +0.209 HD
ENDBRANCH  27  28
ENDBRANCH   5  27
BRANCH   1  30
ATOM     30  O   LIG A   1      -7.868   3.815 127.727  0.00  0.00    -0.453 OA
BRANCH  30  36
ATOM     31  C   LIG A   1     -12.094   8.483 129.379  0.00  0.00    +0.124 A 
ATOM     32  C   LIG A   1     -12.105   8.452 127.988  0.00  0.00    +0.091 A 
ATOM     33  C   LIG A   1     -11.242   7.581 127.322  0.00  0.00    +0.135 A 
ATOM     34  C   LIG A   1     -10.365   6.741 128.037  0.00  0.00    +0.109 A 
ATOM     35  C   LIG A   1      -9.361   5.860 127.378  0.00  0.00    +0.238 A 
ATOM     36  C   LIG A   1      -8.705   4.797 128.265  0.00  0.00    +0.214 A 
ATOM     37  C   LIG A   1      -8.998   4.851 129.594  0.00  0.00    +0.181 A 
ATOM     38  O   LIG A   1      -9.703   5.882 130.194  0.00  0.00    -0.451 OA
ATOM     39  C   LIG A   1     -10.421   6.748 129.427  0.00  0.00    +0.146 A 
ATOM     40  C   LIG A   1     -11.265   7.634 130.099  0.00  0.00    +0.092 A 
ATOM     41  O   LIG A   1      -9.099   5.999 126.231  0.00  0.00    -0.283 OA
BRANCH  37  42
ATOM     42  C   LIG A   1      -8.603   3.807 130.579  0.00  0.00    +0.025 A 
ATOM     43  C   LIG A   1      -9.428   2.685 130.817  0.00  0.00    +0.060 A 
ATOM     44  C   LIG A   1      -9.039   1.715 131.740  0.00  0.00    +0.159 A 
ATOM     45  C   LIG A   1      -7.857   1.850 132.456  0.00  0.00    +0.158 A 
ATOM     46  C   LIG A   1      -6.991   2.890 132.177  0.00  0.00    +0.050 A 
ATOM     47  C   LIG A   1      -7.351   3.842 131.219  0.00  0.00    +0.015 A 
BRANCH  45  48
ATOM     48  O   LIG A   1      -7.532   0.945 133.423  0.00  0.00    -0.503 OA
ATOM     49  H   LIG A   1      -7.886   1.329 134.250  0.00  0.00    +0.292 HD
ENDBRANCH  45  48
BRANCH  44  50
ATOM     50  O   LIG A   1      -9.783   0.587 131.953  0.00  0.00    -0.503 OA
ATOM     51  H   LIG A   1      -9.789   0.102 131.108  0.00  0.00    +0.292 HD
ENDBRANCH  44  50
ENDBRANCH  37  42
BRANCH  31  52
ATOM     52  O   LIG A   1     -12.905   9.322 130.081  0.00  0.00    -0.506 OA
ATOM     53  H   LIG A   1     -12.801  10.229 129.748  0.00  0.00    +0.292 HD
ENDBRANCH  31  52
BRANCH  33  54
ATOM     54  O   LIG A   1     -11.298   7.534 125.953  0.00  0.00    -0.506 OA
ATOM     55  H   LIG A   1     -10.668   6.880 125.612  0.00  0.00    +0.292 HD
ENDBRANCH  33  54
ENDBRANCH  30  36
ENDBRANCH   1  30
TORSDOF 18
ENDMDL
MODEL 5
REMARK VINA RESULT:      -8.1      2.745      4.790
REMARK  Name = NuBBE_142
REMARK  18 active torsions:
REMARK  status: ('A' for Active; 'I' for Inactive)
REMARK    1  A    between atoms: O_1  and  C_2
REMARK    2  A    between atoms: C_4  and  O_5
REMARK    3  A    between atoms: C_8  and  O_9
REMARK    4  A    between atoms: O_9  and  C_10
REMARK    5  A    between atoms: C_12  and  O_25
REMARK    6  A    between atoms: C_14  and  O_24
REMARK    7  A    between atoms: C_16  and  O_23
REMARK    8  A    between atoms: C_18  and  C_21
REMARK    9  A    between atoms: C_21  and  O_22
REMARK   10  A    between atoms: O_25  and  C_26
REMARK   11  A    between atoms: C_29  and  C_40
REMARK   12  A    between atoms: C_31  and  O_39
REMARK   13  A    between atoms: C_33  and  O_38
REMARK   14  A    between atoms: C_35  and  O_37
REMARK   15  A    between atoms: C_40  and  O_41
REMARK   16  A    between atoms: C_42  and  C_46
REMARK   17  A    between atoms: C_48  and  O_49
REMARK   18  A    between atoms: C_50  and  O_53
REMARK                            x       y       z     vdW  Elec       q    Type
REMARK                         _______ _______ _______ _____ _____    ______ ____
ROOT
ATOM      1  C   LIG A   1      -5.309   5.049 130.190  0.00  0.00    +0.340 C 
ATOM      2  C   LIG A   1      -5.679   6.375 130.971  0.00  0.00    +0.221 C 
ATOM      3  C   LIG A   1      -4.432   7.226 131.163  0.00  0.00    +0.180 C 
ATOM      4  C   LIG A   1      -3.734   7.528 129.844  0.00  0.00    +0.177 C 
ATOM      5  C   LIG A   1      -3.805   6.413 128.784  0.00  0.00    +0.179 C 
ATOM      6  O   LIG A   1      -4.137   5.139 129.331  0.00  0.00    -0.331 OA
ENDROOT
BRANCH   3   7
ATOM      7  O   LIG A   1      -3.540   6.647 132.112  0.00  0.00    -0.386 OA
ATOM      8  H   LIG A   1      -3.391   7.332 132.792  0.00  0.00    +0.210 HD
ENDBRANCH   3   7
BRANCH   4   9
ATOM      9  O   LIG A   1      -4.289   8.733 129.287  0.00  0.00    -0.387 OA
ATOM     10  H   LIG A   1      -4.663   8.490 128.417  0.00  0.00    +0.210 HD
ENDBRANCH   4   9
BRANCH   2  11
ATOM     11  O   LIG A   1      -6.740   7.158 130.363  0.00  0.00    -0.337 OA
BRANCH  11  12
ATOM     12  C   LIG A   1      -8.030   7.089 131.043  0.00  0.00    +0.282 C 
ATOM     13  O   LIG A   1      -8.150   5.955 131.906  0.00  0.00    -0.341 OA
ATOM     14  C   LIG A   1      -9.431   5.883 132.558  0.00  0.00    +0.178 C 
ATOM     15  C   LIG A   1     -10.553   5.657 131.531  0.00  0.00    +0.177 C 
ATOM     16  C   LIG A   1     -10.537   6.772 130.488  0.00  0.00    +0.179 C 
ATOM     17  C   LIG A   1      -9.138   7.121 129.960  0.00  0.00    +0.201 C 
BRANCH  15  18
ATOM     18  O   LIG A   1     -11.867   5.673 132.121  0.00  0.00    -0.387 OA
ATOM     19  H   LIG A   1     -12.442   5.104 131.563  0.00  0.00    +0.210 HD
ENDBRANCH  15  18
BRANCH  16  20
ATOM     20  O   LIG A   1     -11.374   6.376 129.384  0.00  0.00    -0.386 OA
ATOM     21  H   LIG A   1     -11.147   6.972 128.645  0.00  0.00    +0.210 HD
ENDBRANCH  16  20
BRANCH  17  22
ATOM     22  O   LIG A   1      -9.190   8.427 129.337  0.00  0.00    -0.384 OA
ATOM     23  H   LIG A   1      -8.441   8.964 129.656  0.00  0.00    +0.210 HD
ENDBRANCH  17  22
BRANCH  14  24
ATOM     24  C   LIG A   1      -9.423   4.742 133.590  0.00  0.00    +0.190 C 
BRANCH  24  25
ATOM     25  O   LIG A   1      -9.768   3.505 132.961  0.00  0.00    -0.392 OA
ATOM     26  H   LIG A   1      -9.342   2.792 133.473  0.00  0.00    +0.209 HD
ENDBRANCH  24  25
ENDBRANCH  14  24
ENDBRANCH  11  12
ENDBRANCH   2  11
BRANCH   5  27
ATOM     27  C   LIG A   1      -2.394   6.404 128.127  0.00  0.00    +0.190 C 
BRANCH  27  28
ATOM     28  O   LIG A   1      -2.030   5.155 127.553  0.00  0.00    -0.392 OA
ATOM     29  H   LIG A   1      -2.167   5.249 126.593  0.00  0.00    +0.209 HD
ENDBRANCH  27  28
ENDBRANCH   5  27
BRANCH   1  30
ATOM     30  O   LIG A   1      -6.450   4.491 129.491  0.00  0.00    -0.453 OA
BRANCH  30  36
ATOM     31  C   LIG A   1      -7.851  -1.837 130.098  0.00  0.00    +0.124 A 
ATOM     32  C   LIG A   1      -8.237  -1.258 131.303  0.00  0.00    +0.091 A 
ATOM     33  C   LIG A   1      -8.003   0.104 131.507  0.00  0.00    +0.135 A 
ATOM     34  C   LIG A   1      -7.385   0.890 130.515  0.00  0.00    +0.109 A 
ATOM     35  C   LIG A   1      -7.029   2.322 130.713  0.00  0.00    +0.238 A 
ATOM     36  C   LIG A   1      -6.649   3.108 129.454  0.00  0.00    +0.214 A 
ATOM     37  C   LIG A   1      -6.538   2.391 128.302  0.00  0.00    +0.181 A 
ATOM     38  O   LIG A   1      -6.586   1.007 128.239  0.00  0.00    -0.451 OA
ATOM     39  C   LIG A   1      -7.069   0.297 129.296  0.00  0.00    +0.146 A 
ATOM     40  C   LIG A   1      -7.277  -1.068 129.095  0.00  0.00    +0.092 A 
ATOM     41  O   LIG A   1      -7.043   2.801 131.797  0.00  0.00    -0.283 OA
BRANCH  37  42
ATOM     42  C   LIG A   1      -6.354   2.997 126.955  0.00  0.00    +0.025 A 
ATOM     43  C   LIG A   1      -7.460   3.236 126.109  0.00  0.00    +0.060 A 
ATOM     44  C   LIG A   1      -7.269   3.810 124.853  0.00  0.00    +0.159 A 
ATOM     45  C   LIG A   1      -5.993   4.127 124.404  0.00  0.00    +0.158 A 
ATOM     46  C   LIG A   1      -4.906   3.986 125.246  0.00  0.00    +0.050 A 
ATOM     47  C   LIG A   1      -5.095   3.455 126.526  0.00  0.00    +0.015 A 
BRANCH  45  48
ATOM     48  O   LIG A   1      -5.807   4.599 123.138  0.00  0.00    -0.503 OA
ATOM     49  H   LIG A   1      -6.481   4.138 122.601  0.00  0.00    +0.292 HD
ENDBRANCH  45  48
BRANCH  44  50
ATOM     50  O   LIG A   1      -8.321   4.110 124.032  0.00  0.00    -0.503 OA
ATOM     51  H   LIG A   1      -8.266   3.489 123.283  0.00  0.00    +0.292 HD
ENDBRANCH  44  50
ENDBRANCH  37  42
BRANCH  31  52
ATOM     52  O   LIG A   1      -8.043  -3.162 129.849  0.00  0.00    -0.506 OA
ATOM     53  H   LIG A   1      -7.246  -3.533 129.435  0.00  0.00    +0.292 HD
ENDBRANCH  31  52
BRANCH  33  54
ATOM     54  O   LIG A   1      -8.429   0.665 132.682  0.00  0.00    -0.506 OA
ATOM     55  H   LIG A   1      -9.323   0.356 132.899  0.00  0.00    +0.292 HD
ENDBRANCH  33  54
ENDBRANCH  30  36
ENDBRANCH   1  30
TORSDOF 18
ENDMDL
MODEL 6
REMARK VINA RESULT:      -7.8      1.289      2.313
REMARK  Name = NuBBE_142
REMARK  18 active torsions:
REMARK  status: ('A' for Active; 'I' for Inactive)
REMARK    1  A    between atoms: O_1  and  C_2
REMARK    2  A    between atoms: C_4  and  O_5
REMARK    3  A    between atoms: C_8  and  O_9
REMARK    4  A    between atoms: O_9  and  C_10
REMARK    5  A    between atoms: C_12  and  O_25
REMARK    6  A    between atoms: C_14  and  O_24
REMARK    7  A    between atoms: C_16  and  O_23
REMARK    8  A    between atoms: C_18  and  C_21
REMARK    9  A    between atoms: C_21  and  O_22
REMARK   10  A    between atoms: O_25  and  C_26
REMARK   11  A    between atoms: C_29  and  C_40
REMARK   12  A    between atoms: C_31  and  O_39
REMARK   13  A    between atoms: C_33  and  O_38
REMARK   14  A    between atoms: C_35  and  O_37
REMARK   15  A    between atoms: C_40  and  O_41
REMARK   16  A    between atoms: C_42  and  C_46
REMARK   17  A    between atoms: C_48  and  O_49
REMARK   18  A    between atoms: C_50  and  O_53
REMARK                            x       y       z     vdW  Elec       q    Type
REMARK                         _______ _______ _______ _____ _____    ______ ____
ROOT
ATOM      1  C   LIG A   1      -7.053   1.293 128.704  0.00  0.00    +0.340 C 
ATOM      2  C   LIG A   1      -7.741   2.682 129.021  0.00  0.00    +0.221 C 
ATOM      3  C   LIG A   1      -7.193   3.755 128.090  0.00  0.00    +0.180 C 
ATOM      4  C   LIG A   1      -7.346   3.374 126.623  0.00  0.00    +0.177 C 
ATOM      5  C   LIG A   1      -7.209   1.873 126.309  0.00  0.00    +0.179 C 
ATOM      6  O   LIG A   1      -6.559   1.139 127.344  0.00  0.00    -0.331 OA
ENDROOT
BRANCH   3   7
ATOM      7  O   LIG A   1      -5.845   4.092 128.410  0.00  0.00    -0.386 OA
ATOM      8  H   LIG A   1      -5.584   3.491 129.134  0.00  0.00    +0.210 HD
ENDBRANCH   3   7
BRANCH   4   9
ATOM      9  O   LIG A   1      -8.627   3.831 126.154  0.00  0.00    -0.387 OA
ATOM     10  H   LIG A   1      -8.759   4.724 126.529  0.00  0.00    +0.210 HD
ENDBRANCH   4   9
BRANCH   2  11
ATOM     11  O   LIG A   1      -9.192   2.662 128.975  0.00  0.00    -0.337 OA
BRANCH  11  12
ATOM     12  C   LIG A   1      -9.857   3.469 129.994  0.00  0.00    +0.282 C 
ATOM     13  O   LIG A   1     -10.024   4.836 129.609  0.00  0.00    -0.341 OA
ATOM     14  C   LIG A   1     -10.663   5.628 130.626  0.00  0.00    +0.178 C 
ATOM     15  C   LIG A   1      -9.775   5.726 131.877  0.00  0.00    +0.177 C 
ATOM     16  C   LIG A   1      -9.454   4.329 132.401  0.00  0.00    +0.179 C 
ATOM     17  C   LIG A   1      -9.052   3.325 131.311  0.00  0.00    +0.201 C 
BRANCH  15  18
ATOM     18  O   LIG A   1     -10.408   6.429 132.963  0.00  0.00    -0.387 OA
ATOM     19  H   LIG A   1     -10.650   5.760 133.641  0.00  0.00    +0.210 HD
ENDBRANCH  15  18
BRANCH  16  20
ATOM     20  O   LIG A   1      -8.386   4.436 133.362  0.00  0.00    -0.386 OA
ATOM     21  H   LIG A   1      -7.840   3.635 133.249  0.00  0.00    +0.210 HD
ENDBRANCH  16  20
BRANCH  17  22
ATOM     22  O   LIG A   1      -9.194   1.984 131.839  0.00  0.00    -0.384 OA
ATOM     23  H   LIG A   1      -8.417   1.454 131.581  0.00  0.00    +0.210 HD
ENDBRANCH  17  22
BRANCH  14  24
ATOM     24  C   LIG A   1     -10.959   7.035 130.077  0.00  0.00    +0.190 C 
BRANCH  24  25
ATOM     25  O   LIG A   1     -12.107   7.587 130.726  0.00  0.00    -0.392 OA
ATOM     26  H   LIG A   1     -12.321   7.003 131.478  0.00  0.00    +0.209 HD
ENDBRANCH  24  25
ENDBRANCH  14  24
ENDBRANCH  11  12
ENDBRANCH   2  11
BRANCH   5  27
ATOM     27  C   LIG A   1      -6.405   1.821 124.977  0.00  0.00    +0.190 C 
BRANCH  27  28
ATOM     28  O   LIG A   1      -6.284   3.078 124.324  0.00  0.00    -0.392 OA
ATOM     29  H   LIG A   1      -5.625   2.953 123.617  0.00  0.00    +0.209 HD
ENDBRANCH  27  28
ENDBRANCH   5  27
BRANCH   1  30
ATOM     30  O   LIG A   1      -7.876   0.171 129.111  0.00  0.00    -0.453 OA
BRANCH  30  36
ATOM     31  C   LIG A   1      -5.611  -4.587 132.932  0.00  0.00    +0.124 A 
ATOM     32  C   LIG A   1      -6.142  -3.639 133.801  0.00  0.00    +0.091 A 
ATOM     33  C   LIG A   1      -6.657  -2.451 133.277  0.00  0.00    +0.135 A 
ATOM     34  C   LIG A   1      -6.644  -2.205 131.890  0.00  0.00    +0.109 A 
ATOM     35  C   LIG A   1      -7.096  -0.921 131.285  0.00  0.00    +0.238 A 
ATOM     36  C   LIG A   1      -7.305  -0.923 129.767  0.00  0.00    +0.214 A 
ATOM     37  C   LIG A   1      -6.927  -2.050 129.104  0.00  0.00    +0.181 A 
ATOM     38  O   LIG A   1      -6.231  -3.099 129.685  0.00  0.00    -0.451 OA
ATOM     39  C   LIG A   1      -6.166  -3.199 131.042  0.00  0.00    +0.146 A 
ATOM     40  C   LIG A   1      -5.626  -4.377 131.560  0.00  0.00    +0.092 A 
ATOM     41  O   LIG A   1      -7.271   0.035 131.963  0.00  0.00    -0.283 OA
BRANCH  37  42
ATOM     42  C   LIG A   1      -7.213  -2.308 127.666  0.00  0.00    +0.025 A 
ATOM     43  C   LIG A   1      -8.525  -2.592 127.227  0.00  0.00    +0.060 A 
ATOM     44  C   LIG A   1      -8.775  -2.825 125.875  0.00  0.00    +0.159 A 
ATOM     45  C   LIG A   1      -7.740  -2.813 124.950  0.00  0.00    +0.158 A 
ATOM     46  C   LIG A   1      -6.465  -2.450 125.339  0.00  0.00    +0.050 A 
ATOM     47  C   LIG A   1      -6.214  -2.168 126.686  0.00  0.00    +0.015 A 
BRANCH  45  48
ATOM     48  O   LIG A   1      -7.979  -3.136 123.647  0.00  0.00    -0.503 OA
ATOM     49  H   LIG A   1      -8.083  -2.276 123.193  0.00  0.00    +0.292 HD
ENDBRANCH  45  48
BRANCH  44  50
ATOM     50  O   LIG A   1     -10.041  -3.044 125.406  0.00  0.00    -0.503 OA
ATOM     51  H   LIG A   1     -10.278  -2.255 124.885  0.00  0.00    +0.292 HD
ENDBRANCH  44  50
ENDBRANCH  37  42
BRANCH  31  52
ATOM     52  O   LIG A   1      -5.084  -5.757 133.388  0.00  0.00    -0.506 OA
ATOM     53  H   LIG A   1      -5.801  -6.358 133.647  0.00  0.00    +0.292 HD
ENDBRANCH  31  52
BRANCH  33  54
ATOM     54  O   LIG A   1      -7.214  -1.549 134.145  0.00  0.00    -0.506 OA
ATOM     55  H   LIG A   1      -6.652  -1.443 134.928  0.00  0.00    +0.292 HD
ENDBRANCH  33  54
ENDBRANCH  30  36
ENDBRANCH   1  30
TORSDOF 18
ENDMDL
MODEL 7
REMARK VINA RESULT:      -7.7      2.509      8.553
REMARK  Name = NuBBE_142
REMARK  18 active torsions:
REMARK  status: ('A' for Active; 'I' for Inactive)
REMARK    1  A    between atoms: O_1  and  C_2
REMARK    2  A    between atoms: C_4  and  O_5
REMARK    3  A    between atoms: C_8  and  O_9
REMARK    4  A    between atoms: O_9  and  C_10
REMARK    5  A    between atoms: C_12  and  O_25
REMARK    6  A    between atoms: C_14  and  O_24
REMARK    7  A    between atoms: C_16  and  O_23
REMARK    8  A    between atoms: C_18  and  C_21
REMARK    9  A    between atoms: C_21  and  O_22
REMARK   10  A    between atoms: O_25  and  C_26
REMARK   11  A    between atoms: C_29  and  C_40
REMARK   12  A    between atoms: C_31  and  O_39
REMARK   13  A    between atoms: C_33  and  O_38
REMARK   14  A    between atoms: C_35  and  O_37
REMARK   15  A    between atoms: C_40  and  O_41
REMARK   16  A    between atoms: C_42  and  C_46
REMARK   17  A    between atoms: C_48  and  O_49
REMARK   18  A    between atoms: C_50  and  O_53
REMARK                            x       y       z     vdW  Elec       q    Type
REMARK                         _______ _______ _______ _____ _____    ______ ____
ROOT
ATOM      1  C   LIG A   1      -6.588   4.166 127.997  0.00  0.00    +0.340 C 
ATOM      2  C   LIG A   1      -6.685   3.331 126.656  0.00  0.00    +0.221 C 
ATOM      3  C   LIG A   1      -5.452   3.584 125.799  0.00  0.00    +0.180 C 
ATOM      4  C   LIG A   1      -4.161   3.292 126.551  0.00  0.00    +0.177 C 
ATOM      5  C   LIG A   1      -4.184   3.604 128.059  0.00  0.00    +0.179 C 
ATOM      6  O   LIG A   1      -5.238   4.489 128.433  0.00  0.00    -0.331 OA
ENDROOT
BRANCH   3   7
ATOM      7  O   LIG A   1      -5.456   4.898 125.247  0.00  0.00    -0.386 OA
ATOM      8  H   LIG A   1      -6.175   4.908 124.586  0.00  0.00    +0.210 HD
ENDBRANCH   3   7
BRANCH   4   9
ATOM      9  O   LIG A   1      -3.818   1.906 126.371  0.00  0.00    -0.387 OA
ATOM     10  H   LIG A   1      -3.835   1.739 125.408  0.00  0.00    +0.210 HD
ENDBRANCH   4   9
BRANCH   2  11
ATOM     11  O   LIG A   1      -6.887   1.905 126.846  0.00  0.00    -0.337 OA
BRANCH  11  12
ATOM     12  C   LIG A   1      -7.239   1.162 125.640  0.00  0.00    +0.282 C 
ATOM     13  O   LIG A   1      -8.598   1.353 125.239  0.00  0.00    -0.341 OA
ATOM     14  C   LIG A   1      -8.943   0.603 124.061  0.00  0.00    +0.178 C 
ATOM     15  C   LIG A   1      -8.871  -0.908 124.337  0.00  0.00    +0.177 C 
ATOM     16  C   LIG A   1      -7.476  -1.283 124.828  0.00  0.00    +0.179 C 
ATOM     17  C   LIG A   1      -6.905  -0.330 125.889  0.00  0.00    +0.201 C 
BRANCH  15  18
ATOM     18  O   LIG A   1      -9.115  -1.706 123.163  0.00  0.00    -0.387 OA
ATOM     19  H   LIG A   1      -9.819  -2.353 123.392  0.00  0.00    +0.210 HD
ENDBRANCH  15  18
BRANCH  16  20
ATOM     20  O   LIG A   1      -7.526  -2.617 125.369  0.00  0.00    -0.386 OA
ATOM     21  H   LIG A   1      -8.247  -3.074 124.895  0.00  0.00    +0.210 HD
ENDBRANCH  16  20
BRANCH  17  22
ATOM     22  O   LIG A   1      -5.470  -0.517 125.956  0.00  0.00    -0.384 OA
ATOM     23  H   LIG A   1      -5.257  -1.444 125.741  0.00  0.00    +0.210 HD
ENDBRANCH  17  22
BRANCH  14  24
ATOM     24  C   LIG A   1     -10.360   0.988 123.598  0.00  0.00    +0.190 C 
BRANCH  24  25
ATOM     25  O   LIG A   1     -10.662   0.353 122.353  0.00  0.00    -0.392 OA
ATOM     26  H   LIG A   1     -10.194   0.849 121.656  0.00  0.00    +0.209 HD
ENDBRANCH  24  25
ENDBRANCH  14  24
ENDBRANCH  11  12
ENDBRANCH   2  11
BRANCH   5  27
ATOM     27  C   LIG A   1      -2.785   4.221 128.356  0.00  0.00    +0.190 C 
BRANCH  27  28
ATOM     28  O   LIG A   1      -1.906   4.226 127.240  0.00  0.00    -0.392 OA
ATOM     29  H   LIG A   1      -1.448   5.086 127.261  0.00  0.00    +0.209 HD
ENDBRANCH  27  28
ENDBRANCH   5  27
BRANCH   1  30
ATOM     30  O   LIG A   1      -7.375   3.580 129.064  0.00  0.00    -0.453 OA
BRANCH  30  36
ATOM     31  C   LIG A   1     -12.373   7.154 131.211  0.00  0.00    +0.124 A 
ATOM     32  C   LIG A   1     -12.436   7.230 129.823  0.00  0.00    +0.091 A 
ATOM     33  C   LIG A   1     -11.445   6.606 129.064  0.00  0.00    +0.135 A 
ATOM     34  C   LIG A   1     -10.390   5.908 129.683  0.00  0.00    +0.109 A 
ATOM     35  C   LIG A   1      -9.258   5.302 128.927  0.00  0.00    +0.238 A 
ATOM     36  C   LIG A   1      -8.367   4.327 129.704  0.00  0.00    +0.214 A 
ATOM     37  C   LIG A   1      -8.610   4.216 131.039  0.00  0.00    +0.181 A 
ATOM     38  O   LIG A   1      -9.481   5.034 131.742  0.00  0.00    -0.451 OA
ATOM     39  C   LIG A   1     -10.389   5.794 131.069  0.00  0.00    +0.146 A 
ATOM     40  C   LIG A   1     -11.363   6.437 131.835  0.00  0.00    +0.092 A 
ATOM     41  O   LIG A   1      -9.077   5.580 127.789  0.00  0.00    -0.283 OA
BRANCH  37  42
ATOM     42  C   LIG A   1      -7.974   3.200 131.922  0.00  0.00    +0.025 A 
ATOM     43  C   LIG A   1      -8.394   1.851 131.893  0.00  0.00    +0.060 A 
ATOM     44  C   LIG A   1      -7.782   0.912 132.723  0.00  0.00    +0.159 A 
ATOM     45  C   LIG A   1      -6.780   1.291 133.607  0.00  0.00    +0.158 A 
ATOM     46  C   LIG A   1      -6.292   2.583 133.590  0.00  0.00    +0.050 A 
ATOM     47  C   LIG A   1      -6.867   3.521 132.727  0.00  0.00    +0.015 A 
BRANCH  45  48
ATOM     48  O   LIG A   1      -6.256   0.385 134.481  0.00  0.00    -0.503 OA
ATOM     49  H   LIG A   1      -5.345   0.698 134.645  0.00  0.00    +0.292 HD
ENDBRANCH  45  48
BRANCH  44  50
ATOM     50  O   LIG A   1      -8.121  -0.413 132.680  0.00  0.00    -0.503 OA
ATOM     51  H   LIG A   1      -8.718  -0.516 131.917  0.00  0.00    +0.292 HD
ENDBRANCH  44  50
ENDBRANCH  37  42
BRANCH  31  52
ATOM     52  O   LIG A   1     -13.305   7.754 132.002  0.00  0.00    -0.506 OA
ATOM     53  H   LIG A   1     -13.185   7.467 132.922  0.00  0.00    +0.292 HD
ENDBRANCH  31  52
BRANCH  33  54
ATOM     54  O   LIG A   1     -11.548   6.656 127.698  0.00  0.00    -0.506 OA
ATOM     55  H   LIG A   1     -10.713   6.383 127.287  0.00  0.00    +0.292 HD
ENDBRANCH  33  54
ENDBRANCH  30  36
ENDBRANCH   1  30
TORSDOF 18
ENDMDL
MODEL 8
REMARK VINA RESULT:      -7.7      2.032      5.091
REMARK  Name = NuBBE_142
REMARK  18 active torsions:
REMARK  status: ('A' for Active; 'I' for Inactive)
REMARK    1  A    between atoms: O_1  and  C_2
REMARK    2  A    between atoms: C_4  and  O_5
REMARK    3  A    between atoms: C_8  and  O_9
REMARK    4  A    between atoms: O_9  and  C_10
REMARK    5  A    between atoms: C_12  and  O_25
REMARK    6  A    between atoms: C_14  and  O_24
REMARK    7  A    between atoms: C_16  and  O_23
REMARK    8  A    between atoms: C_18  and  C_21
REMARK    9  A    between atoms: C_21  and  O_22
REMARK   10  A    between atoms: O_25  and  C_26
REMARK   11  A    between atoms: C_29  and  C_40
REMARK   12  A    between atoms: C_31  and  O_39
REMARK   13  A    between atoms: C_33  and  O_38
REMARK   14  A    between atoms: C_35  and  O_37
REMARK   15  A    between atoms: C_40  and  O_41
REMARK   16  A    between atoms: C_42  and  C_46
REMARK   17  A    between atoms: C_48  and  O_49
REMARK   18  A    between atoms: C_50  and  O_53
REMARK                            x       y       z     vdW  Elec       q    Type
REMARK                         _______ _______ _______ _____ _____    ______ ____
ROOT
ATOM      1  C   LIG A   1      -5.922   2.020 129.474  0.00  0.00    +0.340 C 
ATOM      2  C   LIG A   1      -6.009   3.559 129.828  0.00  0.00    +0.221 C 
ATOM      3  C   LIG A   1      -4.776   4.281 129.301  0.00  0.00    +0.180 C 
ATOM      4  C   LIG A   1      -4.576   4.059 127.808  0.00  0.00    +0.177 C 
ATOM      5  C   LIG A   1      -5.001   2.676 127.279  0.00  0.00    +0.179 C 
ATOM      6  O   LIG A   1      -5.117   1.694 128.306  0.00  0.00    -0.331 OA
ENDROOT
BRANCH   3   7
ATOM      7  O   LIG A   1      -3.609   3.944 130.046  0.00  0.00    -0.386 OA
ATOM      8  H   LIG A   1      -3.908   3.810 130.966  0.00  0.00    +0.210 HD
ENDBRANCH   3   7
BRANCH   4   9
ATOM      9  O   LIG A   1      -5.296   5.073 127.084  0.00  0.00    -0.387 OA
ATOM     10  H   LIG A   1      -5.464   5.800 127.716  0.00  0.00    +0.210 HD
ENDBRANCH   4   9
BRANCH   2  11
ATOM     11  O   LIG A   1      -7.219   4.218 129.368  0.00  0.00    -0.337 OA
BRANCH  11  12
ATOM     12  C   LIG A   1      -7.810   5.160 130.314  0.00  0.00    +0.282 C 
ATOM     13  O   LIG A   1      -7.516   4.846 131.678  0.00  0.00    -0.341 OA
ATOM     14  C   LIG A   1      -8.118   5.768 132.605  0.00  0.00    +0.178 C 
ATOM     15  C   LIG A   1      -9.652   5.672 132.549  0.00  0.00    +0.177 C 
ATOM     16  C   LIG A   1     -10.140   5.937 131.128  0.00  0.00    +0.179 C 
ATOM     17  C   LIG A   1      -9.334   5.212 130.040  0.00  0.00    +0.201 C 
BRANCH  15  18
ATOM     18  O   LIG A   1     -10.306   6.642 133.389  0.00  0.00    -0.387 OA
ATOM     19  H   LIG A   1     -11.255   6.389 133.440  0.00  0.00    +0.210 HD
ENDBRANCH  15  18
BRANCH  16  20
ATOM     20  O   LIG A   1     -11.521   5.538 131.038  0.00  0.00    -0.386 OA
ATOM     21  H   LIG A   1     -12.046   6.350 131.175  0.00  0.00    +0.210 HD
ENDBRANCH  16  20
BRANCH  17  22
ATOM     22  O   LIG A   1      -9.591   5.853 128.767  0.00  0.00    -0.384 OA
ATOM     23  H   LIG A   1     -10.520   5.702 128.514  0.00  0.00    +0.210 HD
ENDBRANCH  17  22
BRANCH  14  24
ATOM     24  C   LIG A   1      -7.622   5.467 134.030  0.00  0.00    +0.190 C 
BRANCH  24  25
ATOM     25  O   LIG A   1      -8.623   4.754 134.761  0.00  0.00    -0.392 OA
ATOM     26  H   LIG A   1      -9.242   5.415 135.123  0.00  0.00    +0.209 HD
ENDBRANCH  24  25
ENDBRANCH  14  24
ENDBRANCH  11  12
ENDBRANCH   2  11
BRANCH   5  27
ATOM     27  C   LIG A   1      -3.901   2.296 126.244  0.00  0.00    +0.190 C 
BRANCH  27  28
ATOM     28  O   LIG A   1      -2.573   2.463 126.722  0.00  0.00    -0.392 OA
ATOM     29  H   LIG A   1      -2.205   3.224 126.238  0.00  0.00    +0.209 HD
ENDBRANCH  27  28
ENDBRANCH   5  27
BRANCH   1  30
ATOM     30  O   LIG A   1      -7.230   1.397 129.420  0.00  0.00    -0.453 OA
BRANCH  30  36
ATOM     31  C   LIG A   1      -9.559   0.117 123.478  0.00  0.00    +0.124 A 
ATOM     32  C   LIG A   1      -9.521   1.506 123.567  0.00  0.00    +0.091 A 
ATOM     33  C   LIG A   1      -9.119   2.098 124.765  0.00  0.00    +0.135 A 
ATOM     34  C   LIG A   1      -8.754   1.312 125.876  0.00  0.00    +0.109 A 
ATOM     35  C   LIG A   1      -8.405   1.888 127.205  0.00  0.00    +0.238 A 
ATOM     36  C   LIG A   1      -7.744   0.935 128.205  0.00  0.00    +0.214 A 
ATOM     37  C   LIG A   1      -7.666  -0.373 127.837  0.00  0.00    +0.181 A 
ATOM     38  O   LIG A   1      -8.283  -0.904 126.714  0.00  0.00    -0.451 OA
ATOM     39  C   LIG A   1      -8.740  -0.072 125.737  0.00  0.00    +0.146 A 
ATOM     40  C   LIG A   1      -9.165  -0.672 124.550  0.00  0.00    +0.092 A 
ATOM     41  O   LIG A   1      -8.642   3.023 127.449  0.00  0.00    -0.283 OA
BRANCH  37  42
ATOM     42  C   LIG A   1      -6.908  -1.409 128.590  0.00  0.00    +0.025 A 
ATOM     43  C   LIG A   1      -5.511  -1.548 128.425  0.00  0.00    +0.060 A 
ATOM     44  C   LIG A   1      -4.816  -2.520 129.144  0.00  0.00    +0.159 A 
ATOM     45  C   LIG A   1      -5.485  -3.382 130.002  0.00  0.00    +0.158 A 
ATOM     46  C   LIG A   1      -6.834  -3.210 130.247  0.00  0.00    +0.050 A 
ATOM     47  C   LIG A   1      -7.531  -2.206 129.568  0.00  0.00    +0.015 A 
BRANCH  45  48
ATOM     48  O   LIG A   1      -4.811  -4.390 130.626  0.00  0.00    -0.503 OA
ATOM     49  H   LIG A   1      -5.397  -4.662 131.361  0.00  0.00    +0.292 HD
ENDBRANCH  45  48
BRANCH  44  50
ATOM     50  O   LIG A   1      -3.456  -2.644 129.055  0.00  0.00    -0.503 OA
ATOM     51  H   LIG A   1      -3.228  -3.467 129.524  0.00  0.00    +0.292 HD
ENDBRANCH  44  50
ENDBRANCH  37  42
BRANCH  31  52
ATOM     52  O   LIG A   1      -9.955  -0.514 122.339  0.00  0.00    -0.506 OA
ATOM     53  H   LIG A   1     -10.036   0.133 121.619  0.00  0.00    +0.292 HD
ENDBRANCH  31  52
BRANCH  33  54
ATOM     54  O   LIG A   1      -9.047   3.465 124.820  0.00  0.00    -0.506 OA
ATOM     55  H   LIG A   1      -9.730   3.861 124.257  0.00  0.00    +0.292 HD
ENDBRANCH  33  54
ENDBRANCH  30  36
ENDBRANCH   1  30
TORSDOF 18
ENDMDL
MODEL 9
REMARK VINA RESULT:      -7.7      3.223      8.187
REMARK  Name = NuBBE_142
REMARK  18 active torsions:
REMARK  status: ('A' for Active; 'I' for Inactive)
REMARK    1  A    between atoms: O_1  and  C_2
REMARK    2  A    between atoms: C_4  and  O_5
REMARK    3  A    between atoms: C_8  and  O_9
REMARK    4  A    between atoms: O_9  and  C_10
REMARK    5  A    between atoms: C_12  and  O_25
REMARK    6  A    between atoms: C_14  and  O_24
REMARK    7  A    between atoms: C_16  and  O_23
REMARK    8  A    between atoms: C_18  and  C_21
REMARK    9  A    between atoms: C_21  and  O_22
REMARK   10  A    between atoms: O_25  and  C_26
REMARK   11  A    between atoms: C_29  and  C_40
REMARK   12  A    between atoms: C_31  and  O_39
REMARK   13  A    between atoms: C_33  and  O_38
REMARK   14  A    between atoms: C_35  and  O_37
REMARK   15  A    between atoms: C_40  and  O_41
REMARK   16  A    between atoms: C_42  and  C_46
REMARK   17  A    between atoms: C_48  and  O_49
REMARK   18  A    between atoms: C_50  and  O_53
REMARK                            x       y       z     vdW  Elec       q    Type
REMARK                         _______ _______ _______ _____ _____    ______ ____
ROOT
ATOM      1  C   LIG A   1      -7.979   4.530 127.926  0.00  0.00    +0.340 C 
ATOM      2  C   LIG A   1      -7.882   3.706 126.580  0.00  0.00    +0.221 C 
ATOM      3  C   LIG A   1      -6.665   4.157 125.784  0.00  0.00    +0.180 C 
ATOM      4  C   LIG A   1      -5.380   4.059 126.595  0.00  0.00    +0.177 C 
ATOM      5  C   LIG A   1      -5.523   4.346 128.102  0.00  0.00    +0.179 C 
ATOM      6  O   LIG A   1      -6.717   5.054 128.429  0.00  0.00    -0.331 OA
ENDROOT
BRANCH   3   7
ATOM      7  O   LIG A   1      -6.847   5.461 125.238  0.00  0.00    -0.386 OA
ATOM      8  H   LIG A   1      -6.198   5.539 124.512  0.00  0.00    +0.210 HD
ENDBRANCH   3   7
BRANCH   4   9
ATOM      9  O   LIG A   1      -4.819   2.745 126.425  0.00  0.00    -0.387 OA
ATOM     10  H   LIG A   1      -4.165   2.628 127.142  0.00  0.00    +0.210 HD
ENDBRANCH   4   9
BRANCH   2  11
ATOM     11  O   LIG A   1      -7.869   2.264 126.753  0.00  0.00    -0.337 OA
BRANCH  11  12
ATOM     12  C   LIG A   1      -7.763   1.491 125.519  0.00  0.00    +0.282 C 
ATOM     13  O   LIG A   1      -8.920   1.600 124.686  0.00  0.00    -0.341 OA
ATOM     14  C   LIG A   1      -8.816   0.821 123.482  0.00  0.00    +0.178 C 
ATOM     15  C   LIG A   1      -8.763  -0.681 123.807  0.00  0.00    +0.177 C 
ATOM     16  C   LIG A   1      -7.593  -0.971 124.743  0.00  0.00    +0.179 C 
ATOM     17  C   LIG A   1      -7.455   0.022 125.906  0.00  0.00    +0.201 C 
BRANCH  15  18
ATOM     18  O   LIG A   1      -8.562  -1.502 122.641  0.00  0.00    -0.387 OA
ATOM     19  H   LIG A   1      -8.965  -2.378 122.830  0.00  0.00    +0.210 HD
ENDBRANCH  15  18
BRANCH  16  20
ATOM     20  O   LIG A   1      -7.752  -2.301 125.273  0.00  0.00    -0.386 OA
ATOM     21  H   LIG A   1      -8.383  -2.223 126.013  0.00  0.00    +0.210 HD
ENDBRANCH  16  20
BRANCH  17  22
ATOM     22  O   LIG A   1      -6.117  -0.082 126.449  0.00  0.00    -0.384 OA
ATOM     23  H   LIG A   1      -5.897  -1.022 126.583  0.00  0.00    +0.210 HD
ENDBRANCH  17  22
BRANCH  14  24
ATOM     24  C   LIG A   1     -10.016   1.120 122.566  0.00  0.00    +0.190 C 
BRANCH  24  25
ATOM     25  O   LIG A   1     -10.921   0.014 122.561  0.00  0.00    -0.392 OA
ATOM     26  H   LIG A   1     -11.381   0.021 121.700  0.00  0.00    +0.209 HD
ENDBRANCH  24  25
ENDBRANCH  14  24
ENDBRANCH  11  12
ENDBRANCH   2  11
BRANCH   5  27
ATOM     27  C   LIG A   1      -4.252   5.168 128.468  0.00  0.00    +0.190 C 
BRANCH  27  28
ATOM     28  O   LIG A   1      -4.150   6.412 127.788  0.00  0.00    -0.392 OA
ATOM     29  H   LIG A   1      -5.017   6.563 127.370  0.00  0.00    +0.209 HD
ENDBRANCH  27  28
ENDBRANCH   5  27
BRANCH   1  30
ATOM     30  O   LIG A   1      -8.714   3.816 128.952  0.00  0.00    -0.453 OA
BRANCH  30  36
ATOM     31  C   LIG A   1      -7.285   5.177 135.155  0.00  0.00    +0.124 A 
ATOM     32  C   LIG A   1      -6.241   4.375 134.705  0.00  0.00    +0.091 A 
ATOM     33  C   LIG A   1      -6.291   3.860 133.407  0.00  0.00    +0.135 A 
ATOM     34  C   LIG A   1      -7.379   4.142 132.558  0.00  0.00    +0.109 A 
ATOM     35  C   LIG A   1      -7.529   3.548 131.200  0.00  0.00    +0.238 A 
ATOM     36  C   LIG A   1      -8.590   4.182 130.295  0.00  0.00    +0.214 A 
ATOM     37  C   LIG A   1      -9.385   5.130 130.864  0.00  0.00    +0.181 A 
ATOM     38  O   LIG A   1      -9.397   5.425 132.218  0.00  0.00    -0.451 OA
ATOM     39  C   LIG A   1      -8.376   4.999 133.013  0.00  0.00    +0.146 A 
ATOM     40  C   LIG A   1      -8.344   5.496 134.317  0.00  0.00    +0.092 A 
ATOM     41  O   LIG A   1      -6.855   2.632 130.866  0.00  0.00    -0.283 OA
BRANCH  37  42
ATOM     42  C   LIG A   1     -10.345   5.979 130.107  0.00  0.00    +0.025 A 
ATOM     43  C   LIG A   1      -9.912   7.146 129.439  0.00  0.00    +0.060 A 
ATOM     44  C   LIG A   1     -10.825   7.925 128.730  0.00  0.00    +0.159 A 
ATOM     45  C   LIG A   1     -12.171   7.586 128.695  0.00  0.00    +0.158 A 
ATOM     46  C   LIG A   1     -12.604   6.404 129.264  0.00  0.00    +0.050 A 
ATOM     47  C   LIG A   1     -11.687   5.591 129.937  0.00  0.00    +0.015 A 
BRANCH  45  48
ATOM     48  O   LIG A   1     -13.071   8.406 128.079  0.00  0.00    -0.503 OA
ATOM     49  H   LIG A   1     -13.707   8.647 128.781  0.00  0.00    +0.292 HD
ENDBRANCH  45  48
BRANCH  44  50
ATOM     50  O   LIG A   1     -10.431   9.028 128.022  0.00  0.00    -0.503 OA
ATOM     51  H   LIG A   1     -10.980   9.767 128.344  0.00  0.00    +0.292 HD
ENDBRANCH  44  50
ENDBRANCH  37  42
BRANCH  31  52
ATOM     52  O   LIG A   1      -7.295   5.695 136.414  0.00  0.00    -0.506 OA
ATOM     53  H   LIG A   1      -8.212   5.845 136.697  0.00  0.00    +0.292 HD
ENDBRANCH  31  52
BRANCH  33  54
ATOM     54  O   LIG A   1      -5.234   3.108 132.968  0.00  0.00    -0.506 OA
ATOM     55  H   LIG A   1      -5.502   2.183 132.854  0.00  0.00    +0.292 HD
ENDBRANCH  33  54
ENDBRANCH  30  36
ENDBRANCH   1  30
TORSDOF 18
ENDMDL
