MODEL 1
REMARK VINA RESULT:      -9.3      0.000      0.000
REMARK  Name = NuBBE_1968
REMARK  8 active torsions:
REMARK  status: ('A' for Active; 'I' for Inactive)
REMARK    1  A    between atoms: C_1  and  C_10
REMARK    2  A    between atoms: C_2  and  C_3
REMARK    3  A    between atoms: C_6  and  O_9
REMARK    4  A    between atoms: C_16  and  C_32
REMARK    5  A    between atoms: C_18  and  C_24
REMARK    6  A    between atoms: C_26  and  O_27
REMARK    7  A    between atoms: C_29  and  O_31
REMARK    8  A    between atoms: C_35  and  O_38
REMARK                            x       y       z     vdW  Elec       q    Type
REMARK                         _______ _______ _______ _____ _____    ______ ____
ROOT
ATOM      1  C   LIG A   1      -7.552   0.677 123.703  0.00  0.00    -0.033 C 
ATOM      2  C   LIG A   1      -8.281  -0.433 123.439  0.00  0.00    +0.051 C 
ATOM      3  C   LIG A   1      -8.652  -1.360 124.555  0.00  0.00    +0.167 C 
ATOM      4  O   LIG A   1      -9.365  -2.335 124.345  0.00  0.00    -0.292 OA
ATOM      5  C   LIG A   1      -8.077  -1.025 125.917  0.00  0.00    +0.134 C 
ATOM      6  C   LIG A   1      -6.519  -1.157 125.972  0.00  0.00    +0.045 C 
ATOM      7  C   LIG A   1      -5.962   0.294 125.683  0.00  0.00    +0.042 C 
ATOM      8  C   LIG A   1      -7.177   1.079 125.137  0.00  0.00    +0.094 C 
ATOM      9  C   LIG A   1      -8.236   0.458 126.006  0.00  0.00    +0.152 C 
ATOM     10  O   LIG A   1      -9.135   1.055 126.577  0.00  0.00    -0.296 OA
ENDROOT
BRANCH   7  11
ATOM     11  C   LIG A   1      -5.320   0.913 126.932  0.00  0.00    -0.036 A 
ATOM     12  C   LIG A   1      -5.375   0.318 128.206  0.00  0.00    +0.049 A 
ATOM     13  C   LIG A   1      -4.771   0.929 129.307  0.00  0.00    +0.121 A 
ATOM     14  C   LIG A   1      -4.107   2.139 129.179  0.00  0.00    +0.090 A 
ATOM     15  C   LIG A   1      -4.044   2.733 127.926  0.00  0.00    +0.121 A 
ATOM     16  C   LIG A   1      -4.632   2.134 126.812  0.00  0.00    +0.049 A 
BRANCH  13  17
ATOM     17  O   LIG A   1      -4.821   0.353 130.541  0.00  0.00    -0.507 OA
ATOM     18  H   LIG A   1      -5.750   0.187 130.777  0.00  0.00    +0.292 HD
ENDBRANCH  13  17
BRANCH  15  19
ATOM     19  O   LIG A   1      -3.407   3.927 127.746  0.00  0.00    -0.507 OA
ATOM     20  H   LIG A   1      -2.562   3.761 127.295  0.00  0.00    +0.292 HD
ENDBRANCH  15  19
ENDBRANCH   7  11
BRANCH   6  21
ATOM     21  C   LIG A   1      -5.988  -2.317 125.128  0.00  0.00    -0.042 A 
ATOM     22  C   LIG A   1      -4.946  -2.057 124.215  0.00  0.00    +0.007 A 
ATOM     23  C   LIG A   1      -4.375  -3.080 123.448  0.00  0.00    +0.045 A 
ATOM     24  C   LIG A   1      -4.851  -4.376 123.577  0.00  0.00    +0.117 A 
ATOM     25  C   LIG A   1      -5.883  -4.660 124.456  0.00  0.00    +0.045 A 
ATOM     26  C   LIG A   1      -6.447  -3.639 125.230  0.00  0.00    +0.007 A 
BRANCH  24  27
ATOM     27  O   LIG A   1      -4.328  -5.406 122.855  0.00  0.00    -0.507 OA
ATOM     28  H   LIG A   1      -3.813  -5.039 122.119  0.00  0.00    +0.292 HD
ENDBRANCH  24  27
ENDBRANCH   6  21
BRANCH   1  29
ATOM     29  C   LIG A   1      -7.099   1.494 122.585  0.00  0.00    +0.005 C 
ATOM     30  C   LIG A   1      -7.322   2.808 122.419  0.00  0.00    +0.008 C 
BRANCH  30  31
ATOM     31  C   LIG A   1      -6.817   3.633 121.301  0.00  0.00    -0.025 A 
ATOM     32  C   LIG A   1      -7.672   3.866 120.209  0.00  0.00    +0.011 A 
ATOM     33  C   LIG A   1      -7.266   4.657 119.130  0.00  0.00    +0.046 A 
ATOM     34  C   LIG A   1      -5.998   5.222 119.137  0.00  0.00    +0.117 A 
ATOM     35  C   LIG A   1      -5.134   5.008 120.201  0.00  0.00    +0.046 A 
ATOM     36  C   LIG A   1      -5.543   4.218 121.279  0.00  0.00    +0.011 A 
BRANCH  34  37
ATOM     37  O   LIG A   1      -5.559   6.002 118.110  0.00  0.00    -0.507 OA
ATOM     38  H   LIG A   1      -5.082   5.443 117.476  0.00  0.00    +0.292 HD
ENDBRANCH  34  37
ENDBRANCH  30  31
ENDBRANCH   1  29
TORSDOF 8
ENDMDL
MODEL 2
REMARK VINA RESULT:      -9.0      4.854      7.158
REMARK  Name = NuBBE_1968
REMARK  8 active torsions:
REMARK  status: ('A' for Active; 'I' for Inactive)
REMARK    1  A    between atoms: C_1  and  C_10
REMARK    2  A    between atoms: C_2  and  C_3
REMARK    3  A    between atoms: C_6  and  O_9
REMARK    4  A    between atoms: C_16  and  C_32
REMARK    5  A    between atoms: C_18  and  C_24
REMARK    6  A    between atoms: C_26  and  O_27
REMARK    7  A    between atoms: C_29  and  O_31
REMARK    8  A    between atoms: C_35  and  O_38
REMARK                            x       y       z     vdW  Elec       q    Type
REMARK                         _______ _______ _______ _____ _____    ______ ____
ROOT
ATOM      1  C   LIG A   1      -8.413   3.529 129.868  0.00  0.00    -0.033 C 
ATOM      2  C   LIG A   1      -8.955   2.359 130.284  0.00  0.00    +0.051 C 
ATOM      3  C   LIG A   1      -8.068   1.181 130.546  0.00  0.00    +0.167 C 
ATOM      4  O   LIG A   1      -8.534   0.135 130.984  0.00  0.00    -0.292 OA
ATOM      5  C   LIG A   1      -6.600   1.367 130.215  0.00  0.00    +0.134 C 
ATOM      6  C   LIG A   1      -6.337   1.560 128.685  0.00  0.00    +0.045 C 
ATOM      7  C   LIG A   1      -6.306   3.124 128.456  0.00  0.00    +0.042 C 
ATOM      8  C   LIG A   1      -6.893   3.723 129.754  0.00  0.00    +0.094 C 
ATOM      9  C   LIG A   1      -6.300   2.739 130.726  0.00  0.00    +0.152 C 
ATOM     10  O   LIG A   1      -5.780   3.014 131.796  0.00  0.00    -0.296 OA
ENDROOT
BRANCH   7  11
ATOM     11  C   LIG A   1      -4.894   3.618 128.115  0.00  0.00    -0.036 A 
ATOM     12  C   LIG A   1      -3.856   2.764 127.696  0.00  0.00    +0.049 A 
ATOM     13  C   LIG A   1      -2.589   3.271 127.399  0.00  0.00    +0.121 A 
ATOM     14  C   LIG A   1      -2.315   4.625 127.514  0.00  0.00    +0.090 A 
ATOM     15  C   LIG A   1      -3.333   5.477 127.923  0.00  0.00    +0.121 A 
ATOM     16  C   LIG A   1      -4.608   4.991 128.215  0.00  0.00    +0.049 A 
BRANCH  13  17
ATOM     17  O   LIG A   1      -1.583   2.447 126.992  0.00  0.00    -0.507 OA
ATOM     18  H   LIG A   1      -1.670   1.590 127.445  0.00  0.00    +0.292 HD
ENDBRANCH  13  17
BRANCH  15  19
ATOM     19  O   LIG A   1      -3.115   6.817 128.057  0.00  0.00    -0.507 OA
ATOM     20  H   LIG A   1      -3.935   7.288 127.828  0.00  0.00    +0.292 HD
ENDBRANCH  15  19
ENDBRANCH   7  11
BRANCH   6  21
ATOM     21  C   LIG A   1      -7.268   0.719 127.809  0.00  0.00    -0.042 A 
ATOM     22  C   LIG A   1      -8.163   1.388 126.950  0.00  0.00    +0.007 A 
ATOM     23  C   LIG A   1      -9.006   0.684 126.082  0.00  0.00    +0.045 A 
ATOM     24  C   LIG A   1      -8.974  -0.702 126.075  0.00  0.00    +0.117 A 
ATOM     25  C   LIG A   1      -8.114  -1.388 126.917  0.00  0.00    +0.045 A 
ATOM     26  C   LIG A   1      -7.264  -0.684 127.777  0.00  0.00    +0.007 A 
BRANCH  24  27
ATOM     27  O   LIG A   1      -9.773  -1.433 125.248  0.00  0.00    -0.507 OA
ATOM     28  H   LIG A   1     -10.636  -0.995 125.185  0.00  0.00    +0.292 HD
ENDBRANCH  24  27
ENDBRANCH   6  21
BRANCH   1  29
ATOM     29  C   LIG A   1      -9.306   4.619 129.501  0.00  0.00    +0.005 C 
ATOM     30  C   LIG A   1      -9.760   5.585 130.317  0.00  0.00    +0.008 C 
BRANCH  30  31
ATOM     31  C   LIG A   1     -10.631   6.710 129.920  0.00  0.00    -0.025 A 
ATOM     32  C   LIG A   1     -10.288   7.440 128.768  0.00  0.00    +0.011 A 
ATOM     33  C   LIG A   1     -11.083   8.502 128.323  0.00  0.00    +0.046 A 
ATOM     34  C   LIG A   1     -12.230   8.839 129.030  0.00  0.00    +0.117 A 
ATOM     35  C   LIG A   1     -12.591   8.134 130.169  0.00  0.00    +0.046 A 
ATOM     36  C   LIG A   1     -11.796   7.074 130.611  0.00  0.00    +0.011 A 
BRANCH  34  37
ATOM     37  O   LIG A   1     -13.037   9.861 128.633  0.00  0.00    -0.507 OA
ATOM     38  H   LIG A   1     -13.209  10.436 129.396  0.00  0.00    +0.292 HD
ENDBRANCH  34  37
ENDBRANCH  30  31
ENDBRANCH   1  29
TORSDOF 8
ENDMDL
MODEL 3
REMARK VINA RESULT:      -8.9      4.947      7.306
REMARK  Name = NuBBE_1968
REMARK  8 active torsions:
REMARK  status: ('A' for Active; 'I' for Inactive)
REMARK    1  A    between atoms: C_1  and  C_10
REMARK    2  A    between atoms: C_2  and  C_3
REMARK    3  A    between atoms: C_6  and  O_9
REMARK    4  A    between atoms: C_16  and  C_32
REMARK    5  A    between atoms: C_18  and  C_24
REMARK    6  A    between atoms: C_26  and  O_27
REMARK    7  A    between atoms: C_29  and  O_31
REMARK    8  A    between atoms: C_35  and  O_38
REMARK                            x       y       z     vdW  Elec       q    Type
REMARK                         _______ _______ _______ _____ _____    ______ ____
ROOT
ATOM      1  C   LIG A   1      -8.451   3.703 129.863  0.00  0.00    -0.033 C 
ATOM      2  C   LIG A   1      -8.997   2.531 130.264  0.00  0.00    +0.051 C 
ATOM      3  C   LIG A   1      -8.112   1.352 130.530  0.00  0.00    +0.167 C 
ATOM      4  O   LIG A   1      -8.583   0.303 130.956  0.00  0.00    -0.292 OA
ATOM      5  C   LIG A   1      -6.641   1.541 130.219  0.00  0.00    +0.134 C 
ATOM      6  C   LIG A   1      -6.359   1.744 128.693  0.00  0.00    +0.045 C 
ATOM      7  C   LIG A   1      -6.326   3.309 128.475  0.00  0.00    +0.042 C 
ATOM      8  C   LIG A   1      -6.930   3.899 129.769  0.00  0.00    +0.094 C 
ATOM      9  C   LIG A   1      -6.348   2.911 130.742  0.00  0.00    +0.152 C 
ATOM     10  O   LIG A   1      -5.842   3.180 131.820  0.00  0.00    -0.296 OA
ENDROOT
BRANCH   7  11
ATOM     11  C   LIG A   1      -4.910   3.806 128.154  0.00  0.00    -0.036 A 
ATOM     12  C   LIG A   1      -4.515   5.151 128.282  0.00  0.00    +0.049 A 
ATOM     13  C   LIG A   1      -3.211   5.545 127.975  0.00  0.00    +0.121 A 
ATOM     14  C   LIG A   1      -2.273   4.628 127.530  0.00  0.00    +0.090 A 
ATOM     15  C   LIG A   1      -2.651   3.298 127.403  0.00  0.00    +0.121 A 
ATOM     16  C   LIG A   1      -3.946   2.882 127.714  0.00  0.00    +0.049 A 
BRANCH  13  17
ATOM     17  O   LIG A   1      -2.826   6.846 128.100  0.00  0.00    -0.507 OA
ATOM     18  H   LIG A   1      -2.337   6.955 128.935  0.00  0.00    +0.292 HD
ENDBRANCH  13  17
BRANCH  15  19
ATOM     19  O   LIG A   1      -1.767   2.355 126.964  0.00  0.00    -0.507 OA
ATOM     20  H   LIG A   1      -1.859   1.563 127.519  0.00  0.00    +0.292 HD
ENDBRANCH  15  19
ENDBRANCH   7  11
BRANCH   6  21
ATOM     21  C   LIG A   1      -7.277   0.907 127.801  0.00  0.00    -0.042 A 
ATOM     22  C   LIG A   1      -8.166   1.581 126.939  0.00  0.00    +0.007 A 
ATOM     23  C   LIG A   1      -8.998   0.881 126.057  0.00  0.00    +0.045 A 
ATOM     24  C   LIG A   1      -8.961  -0.505 126.037  0.00  0.00    +0.117 A 
ATOM     25  C   LIG A   1      -8.107  -1.195 126.882  0.00  0.00    +0.045 A 
ATOM     26  C   LIG A   1      -7.268  -0.496 127.757  0.00  0.00    +0.007 A 
BRANCH  24  27
ATOM     27  O   LIG A   1      -9.749  -1.231 125.196  0.00  0.00    -0.507 OA
ATOM     28  H   LIG A   1      -9.499  -2.166 125.267  0.00  0.00    +0.292 HD
ENDBRANCH  24  27
ENDBRANCH   6  21
BRANCH   1  29
ATOM     29  C   LIG A   1      -9.341   4.795 129.491  0.00  0.00    +0.005 C 
ATOM     30  C   LIG A   1      -9.908   5.679 130.329  0.00  0.00    +0.008 C 
BRANCH  30  31
ATOM     31  C   LIG A   1     -10.775   6.808 129.932  0.00  0.00    -0.025 A 
ATOM     32  C   LIG A   1     -10.436   7.529 128.774  0.00  0.00    +0.011 A 
ATOM     33  C   LIG A   1     -11.226   8.594 128.329  0.00  0.00    +0.046 A 
ATOM     34  C   LIG A   1     -12.364   8.944 129.043  0.00  0.00    +0.117 A 
ATOM     35  C   LIG A   1     -12.721   8.249 130.189  0.00  0.00    +0.046 A 
ATOM     36  C   LIG A   1     -11.930   7.185 130.631  0.00  0.00    +0.011 A 
BRANCH  34  37
ATOM     37  O   LIG A   1     -13.167   9.971 128.647  0.00  0.00    -0.507 OA
ATOM     38  H   LIG A   1     -12.608  10.725 128.399  0.00  0.00    +0.292 HD
ENDBRANCH  34  37
ENDBRANCH  30  31
ENDBRANCH   1  29
TORSDOF 8
ENDMDL
MODEL 4
REMARK VINA RESULT:      -8.8      5.873      9.860
REMARK  Name = NuBBE_1968
REMARK  8 active torsions:
REMARK  status: ('A' for Active; 'I' for Inactive)
REMARK    1  A    between atoms: C_1  and  C_10
REMARK    2  A    between atoms: C_2  and  C_3
REMARK    3  A    between atoms: C_6  and  O_9
REMARK    4  A    between atoms: C_16  and  C_32
REMARK    5  A    between atoms: C_18  and  C_24
REMARK    6  A    between atoms: C_26  and  O_27
REMARK    7  A    between atoms: C_29  and  O_31
REMARK    8  A    between atoms: C_35  and  O_38
REMARK                            x       y       z     vdW  Elec       q    Type
REMARK                         _______ _______ _______ _____ _____    ______ ____
ROOT
ATOM      1  C   LIG A   1      -5.334   6.519 131.232  0.00  0.00    -0.033 C 
ATOM      2  C   LIG A   1      -4.766   6.521 132.461  0.00  0.00    +0.051 C 
ATOM      3  C   LIG A   1      -3.356   6.043 132.627  0.00  0.00    +0.167 C 
ATOM      4  O   LIG A   1      -2.804   6.097 133.720  0.00  0.00    -0.292 OA
ATOM      5  C   LIG A   1      -2.693   5.481 131.385  0.00  0.00    +0.134 C 
ATOM      6  C   LIG A   1      -3.362   4.160 130.878  0.00  0.00    +0.045 C 
ATOM      7  C   LIG A   1      -4.410   4.610 129.784  0.00  0.00    +0.042 C 
ATOM      8  C   LIG A   1      -4.543   6.139 129.972  0.00  0.00    +0.094 C 
ATOM      9  C   LIG A   1      -3.107   6.434 130.310  0.00  0.00    +0.152 C 
ATOM     10  O   LIG A   1      -2.444   7.362 129.873  0.00  0.00    -0.296 OA
ENDROOT
BRANCH   7  11
ATOM     11  C   LIG A   1      -3.976   4.182 128.375  0.00  0.00    -0.036 A 
ATOM     12  C   LIG A   1      -4.755   4.407 127.225  0.00  0.00    +0.049 A 
ATOM     13  C   LIG A   1      -4.308   3.994 125.967  0.00  0.00    +0.121 A 
ATOM     14  C   LIG A   1      -3.092   3.347 125.817  0.00  0.00    +0.090 A 
ATOM     15  C   LIG A   1      -2.314   3.123 126.946  0.00  0.00    +0.121 A 
ATOM     16  C   LIG A   1      -2.738   3.537 128.209  0.00  0.00    +0.049 A 
BRANCH  13  17
ATOM     17  O   LIG A   1      -5.060   4.212 124.852  0.00  0.00    -0.507 OA
ATOM     18  H   LIG A   1      -4.971   3.450 124.253  0.00  0.00    +0.292 HD
ENDBRANCH  13  17
BRANCH  15  19
ATOM     19  O   LIG A   1      -1.111   2.486 126.854  0.00  0.00    -0.507 OA
ATOM     20  H   LIG A   1      -0.627   2.848 126.092  0.00  0.00    +0.292 HD
ENDBRANCH  15  19
ENDBRANCH   7  11
BRANCH   6  21
ATOM     21  C   LIG A   1      -3.846   3.262 132.018  0.00  0.00    -0.042 A 
ATOM     22  C   LIG A   1      -5.223   2.972 132.101  0.00  0.00    +0.007 A 
ATOM     23  C   LIG A   1      -5.730   2.115 133.085  0.00  0.00    +0.045 A 
ATOM     24  C   LIG A   1      -4.865   1.549 134.009  0.00  0.00    +0.117 A 
ATOM     25  C   LIG A   1      -3.508   1.826 133.961  0.00  0.00    +0.045 A 
ATOM     26  C   LIG A   1      -3.000   2.674 132.971  0.00  0.00    +0.007 A 
BRANCH  24  27
ATOM     27  O   LIG A   1      -5.309   0.707 134.985  0.00  0.00    -0.507 OA
ATOM     28  H   LIG A   1      -5.784  -0.028 134.567  0.00  0.00    +0.292 HD
ENDBRANCH  24  27
ENDBRANCH   6  21
BRANCH   1  29
ATOM     29  C   LIG A   1      -6.744   6.870 131.116  0.00  0.00    +0.005 C 
ATOM     30  C   LIG A   1      -7.786   6.038 131.274  0.00  0.00    +0.008 C 
BRANCH  30  31
ATOM     31  C   LIG A   1      -9.212   6.419 131.197  0.00  0.00    -0.025 A 
ATOM     32  C   LIG A   1      -9.640   7.170 130.089  0.00  0.00    +0.011 A 
ATOM     33  C   LIG A   1     -10.980   7.543 129.943  0.00  0.00    +0.046 A 
ATOM     34  C   LIG A   1     -11.902   7.164 130.909  0.00  0.00    +0.117 A 
ATOM     35  C   LIG A   1     -11.507   6.424 132.013  0.00  0.00    +0.046 A 
ATOM     36  C   LIG A   1     -10.167   6.052 132.156  0.00  0.00    +0.011 A 
BRANCH  34  37
ATOM     37  O   LIG A   1     -13.219   7.501 130.809  0.00  0.00    -0.507 OA
ATOM     38  H   LIG A   1     -13.746   6.843 131.291  0.00  0.00    +0.292 HD
ENDBRANCH  34  37
ENDBRANCH  30  31
ENDBRANCH   1  29
TORSDOF 8
ENDMDL
MODEL 5
REMARK VINA RESULT:      -8.7      8.830     12.836
REMARK  Name = NuBBE_1968
REMARK  8 active torsions:
REMARK  status: ('A' for Active; 'I' for Inactive)
REMARK    1  A    between atoms: C_1  and  C_10
REMARK    2  A    between atoms: C_2  and  C_3
REMARK    3  A    between atoms: C_6  and  O_9
REMARK    4  A    between atoms: C_16  and  C_32
REMARK    5  A    between atoms: C_18  and  C_24
REMARK    6  A    between atoms: C_26  and  O_27
REMARK    7  A    between atoms: C_29  and  O_31
REMARK    8  A    between atoms: C_35  and  O_38
REMARK                            x       y       z     vdW  Elec       q    Type
REMARK                         _______ _______ _______ _____ _____    ______ ____
ROOT
ATOM      1  C   LIG A   1      -7.324   5.052 134.916  0.00  0.00    -0.033 C 
ATOM      2  C   LIG A   1      -8.229   4.064 134.719  0.00  0.00    +0.051 C 
ATOM      3  C   LIG A   1      -8.113   3.182 133.514  0.00  0.00    +0.167 C 
ATOM      4  O   LIG A   1      -8.885   2.243 133.353  0.00  0.00    -0.292 OA
ATOM      5  C   LIG A   1      -7.020   3.543 132.528  0.00  0.00    +0.134 C 
ATOM      6  C   LIG A   1      -7.261   4.920 131.824  0.00  0.00    +0.045 C 
ATOM      7  C   LIG A   1      -6.458   5.977 132.683  0.00  0.00    +0.042 C 
ATOM      8  C   LIG A   1      -6.110   5.237 133.994  0.00  0.00    +0.094 C 
ATOM      9  C   LIG A   1      -5.857   3.876 133.405  0.00  0.00    +0.152 C 
ATOM     10  O   LIG A   1      -4.932   3.132 133.691  0.00  0.00    -0.296 OA
ENDROOT
BRANCH   7  11
ATOM     11  C   LIG A   1      -5.241   6.519 131.920  0.00  0.00    -0.036 A 
ATOM     12  C   LIG A   1      -5.269   6.846 130.552  0.00  0.00    +0.049 A 
ATOM     13  C   LIG A   1      -4.129   7.335 129.910  0.00  0.00    +0.121 A 
ATOM     14  C   LIG A   1      -2.939   7.506 130.599  0.00  0.00    +0.090 A 
ATOM     15  C   LIG A   1      -2.901   7.189 131.951  0.00  0.00    +0.121 A 
ATOM     16  C   LIG A   1      -4.032   6.708 132.612  0.00  0.00    +0.049 A 
BRANCH  13  17
ATOM     17  O   LIG A   1      -4.154   7.655 128.586  0.00  0.00    -0.507 OA
ATOM     18  H   LIG A   1      -4.088   6.839 128.060  0.00  0.00    +0.292 HD
ENDBRANCH  13  17
BRANCH  15  19
ATOM     19  O   LIG A   1      -1.753   7.333 132.674  0.00  0.00    -0.507 OA
ATOM     20  H   LIG A   1      -1.458   6.453 132.963  0.00  0.00    +0.292 HD
ENDBRANCH  15  19
ENDBRANCH   7  11
BRANCH   6  21
ATOM     21  C   LIG A   1      -8.738   5.192 131.536  0.00  0.00    -0.042 A 
ATOM     22  C   LIG A   1      -9.368   6.251 132.221  0.00  0.00    +0.007 A 
ATOM     23  C   LIG A   1     -10.702   6.592 131.969  0.00  0.00    +0.045 A 
ATOM     24  C   LIG A   1     -11.428   5.866 131.037  0.00  0.00    +0.117 A 
ATOM     25  C   LIG A   1     -10.840   4.811 130.358  0.00  0.00    +0.045 A 
ATOM     26  C   LIG A   1      -9.503   4.477 130.603  0.00  0.00    +0.007 A 
BRANCH  24  27
ATOM     27  O   LIG A   1     -12.728   6.159 130.755  0.00  0.00    -0.507 OA
ATOM     28  H   LIG A   1     -13.195   5.332 130.552  0.00  0.00    +0.292 HD
ENDBRANCH  24  27
ENDBRANCH   6  21
BRANCH   1  29
ATOM     29  C   LIG A   1      -7.530   5.973 136.026  0.00  0.00    +0.005 C 
ATOM     30  C   LIG A   1      -8.400   6.996 136.060  0.00  0.00    +0.008 C 
BRANCH  30  31
ATOM     31  C   LIG A   1      -8.629   7.894 137.211  0.00  0.00    -0.025 A 
ATOM     32  C   LIG A   1      -7.664   7.923 138.233  0.00  0.00    +0.011 A 
ATOM     33  C   LIG A   1      -7.808   8.768 139.338  0.00  0.00    +0.046 A 
ATOM     34  C   LIG A   1      -8.921   9.592 139.427  0.00  0.00    +0.117 A 
ATOM     35  C   LIG A   1      -9.888   9.583 138.432  0.00  0.00    +0.046 A 
ATOM     36  C   LIG A   1      -9.742   8.739 137.329  0.00  0.00    +0.011 A 
BRANCH  34  37
ATOM     37  O   LIG A   1      -9.103  10.435 140.481  0.00  0.00    -0.507 OA
ATOM     38  H   LIG A   1      -8.249  10.569 140.923  0.00  0.00    +0.292 HD
ENDBRANCH  34  37
ENDBRANCH  30  31
ENDBRANCH   1  29
TORSDOF 8
ENDMDL
MODEL 6
REMARK VINA RESULT:      -8.7      7.680     10.108
REMARK  Name = NuBBE_1968
REMARK  8 active torsions:
REMARK  status: ('A' for Active; 'I' for Inactive)
REMARK    1  A    between atoms: C_1  and  C_10
REMARK    2  A    between atoms: C_2  and  C_3
REMARK    3  A    between atoms: C_6  and  O_9
REMARK    4  A    between atoms: C_16  and  C_32
REMARK    5  A    between atoms: C_18  and  C_24
REMARK    6  A    between atoms: C_26  and  O_27
REMARK    7  A    between atoms: C_29  and  O_31
REMARK    8  A    between atoms: C_35  and  O_38
REMARK                            x       y       z     vdW  Elec       q    Type
REMARK                         _______ _______ _______ _____ _____    ______ ____
ROOT
ATOM      1  C   LIG A   1      -8.145   4.238 131.256  0.00  0.00    -0.033 C 
ATOM      2  C   LIG A   1      -7.382   3.481 130.431  0.00  0.00    +0.051 C 
ATOM      3  C   LIG A   1      -6.199   2.746 130.980  0.00  0.00    +0.167 C 
ATOM      4  O   LIG A   1      -5.536   2.006 130.262  0.00  0.00    -0.292 OA
ATOM      5  C   LIG A   1      -5.878   2.999 132.440  0.00  0.00    +0.134 C 
ATOM      6  C   LIG A   1      -5.428   4.471 132.722  0.00  0.00    +0.045 C 
ATOM      7  C   LIG A   1      -6.741   5.236 133.160  0.00  0.00    +0.042 C 
ATOM      8  C   LIG A   1      -7.897   4.288 132.770  0.00  0.00    +0.094 C 
ATOM      9  C   LIG A   1      -7.220   2.985 133.098  0.00  0.00    +0.152 C 
ATOM     10  O   LIG A   1      -7.726   2.044 133.688  0.00  0.00    -0.296 OA
ENDROOT
BRANCH   7  11
ATOM     11  C   LIG A   1      -6.706   5.613 134.648  0.00  0.00    -0.036 A 
ATOM     12  C   LIG A   1      -7.851   5.978 135.380  0.00  0.00    +0.049 A 
ATOM     13  C   LIG A   1      -7.758   6.312 136.733  0.00  0.00    +0.121 A 
ATOM     14  C   LIG A   1      -6.538   6.299 137.391  0.00  0.00    +0.090 A 
ATOM     15  C   LIG A   1      -5.402   5.937 136.679  0.00  0.00    +0.121 A 
ATOM     16  C   LIG A   1      -5.476   5.591 135.329  0.00  0.00    +0.049 A 
BRANCH  13  17
ATOM     17  O   LIG A   1      -8.866   6.664 137.444  0.00  0.00    -0.507 OA
ATOM     18  H   LIG A   1      -9.311   7.403 136.994  0.00  0.00    +0.292 HD
ENDBRANCH  13  17
BRANCH  15  19
ATOM     19  O   LIG A   1      -4.177   5.913 137.277  0.00  0.00    -0.507 OA
ATOM     20  H   LIG A   1      -3.771   6.792 137.185  0.00  0.00    +0.292 HD
ENDBRANCH  15  19
ENDBRANCH   7  11
BRANCH   6  21
ATOM     21  C   LIG A   1      -4.588   5.065 131.590  0.00  0.00    -0.042 A 
ATOM     22  C   LIG A   1      -5.049   6.239 130.962  0.00  0.00    +0.007 A 
ATOM     23  C   LIG A   1      -4.306   6.868 129.955  0.00  0.00    +0.045 A 
ATOM     24  C   LIG A   1      -3.097   6.319 129.555  0.00  0.00    +0.117 A 
ATOM     25  C   LIG A   1      -2.625   5.158 130.145  0.00  0.00    +0.045 A 
ATOM     26  C   LIG A   1      -3.363   4.535 131.158  0.00  0.00    +0.007 A 
BRANCH  24  27
ATOM     27  O   LIG A   1      -2.336   6.893 128.582  0.00  0.00    -0.507 OA
ATOM     28  H   LIG A   1      -2.690   6.632 127.717  0.00  0.00    +0.292 HD
ENDBRANCH  24  27
ENDBRANCH   6  21
BRANCH   1  29
ATOM     29  C   LIG A   1      -9.213   5.040 130.675  0.00  0.00    +0.005 C 
ATOM     30  C   LIG A   1      -9.352   6.372 130.775  0.00  0.00    +0.008 C 
BRANCH  30  31
ATOM     31  C   LIG A   1     -10.418   7.177 130.143  0.00  0.00    -0.025 A 
ATOM     32  C   LIG A   1     -11.667   7.247 130.784  0.00  0.00    +0.011 A 
ATOM     33  C   LIG A   1     -12.711   8.010 130.252  0.00  0.00    +0.046 A 
ATOM     34  C   LIG A   1     -12.510   8.711 129.071  0.00  0.00    +0.117 A 
ATOM     35  C   LIG A   1     -11.287   8.660 128.417  0.00  0.00    +0.046 A 
ATOM     36  C   LIG A   1     -10.246   7.897 128.952  0.00  0.00    +0.011 A 
BRANCH  34  37
ATOM     37  O   LIG A   1     -13.495   9.471 128.516  0.00  0.00    -0.507 OA
ATOM     38  H   LIG A   1     -13.167   9.847 127.683  0.00  0.00    +0.292 HD
ENDBRANCH  34  37
ENDBRANCH  30  31
ENDBRANCH   1  29
TORSDOF 8
ENDMDL
MODEL 7
REMARK VINA RESULT:      -8.7      8.242     12.820
REMARK  Name = NuBBE_1968
REMARK  8 active torsions:
REMARK  status: ('A' for Active; 'I' for Inactive)
REMARK    1  A    between atoms: C_1  and  C_10
REMARK    2  A    between atoms: C_2  and  C_3
REMARK    3  A    between atoms: C_6  and  O_9
REMARK    4  A    between atoms: C_16  and  C_32
REMARK    5  A    between atoms: C_18  and  C_24
REMARK    6  A    between atoms: C_26  and  O_27
REMARK    7  A    between atoms: C_29  and  O_31
REMARK    8  A    between atoms: C_35  and  O_38
REMARK                            x       y       z     vdW  Elec       q    Type
REMARK                         _______ _______ _______ _____ _____    ______ ____
ROOT
ATOM      1  C   LIG A   1      -7.419   5.346 135.095  0.00  0.00    -0.033 C 
ATOM      2  C   LIG A   1      -8.322   4.435 134.663  0.00  0.00    +0.051 C 
ATOM      3  C   LIG A   1      -7.881   3.320 133.765  0.00  0.00    +0.167 C 
ATOM      4  O   LIG A   1      -8.672   2.450 133.417  0.00  0.00    -0.292 OA
ATOM      5  C   LIG A   1      -6.435   3.363 133.314  0.00  0.00    +0.134 C 
ATOM      6  C   LIG A   1      -6.117   4.586 132.391  0.00  0.00    +0.045 C 
ATOM      7  C   LIG A   1      -5.563   5.709 133.357  0.00  0.00    +0.042 C 
ATOM      8  C   LIG A   1      -5.922   5.218 134.777  0.00  0.00    +0.094 C 
ATOM      9  C   LIG A   1      -5.695   3.747 134.554  0.00  0.00    +0.152 C 
ATOM     10  O   LIG A   1      -5.117   2.988 135.315  0.00  0.00    -0.296 OA
ENDROOT
BRANCH   7  11
ATOM     11  C   LIG A   1      -4.066   5.960 133.133  0.00  0.00    -0.036 A 
ATOM     12  C   LIG A   1      -3.138   6.088 134.183  0.00  0.00    +0.049 A 
ATOM     13  C   LIG A   1      -1.786   6.317 133.919  0.00  0.00    +0.121 A 
ATOM     14  C   LIG A   1      -1.321   6.430 132.619  0.00  0.00    +0.090 A 
ATOM     15  C   LIG A   1      -2.227   6.301 131.574  0.00  0.00    +0.121 A 
ATOM     16  C   LIG A   1      -3.580   6.063 131.818  0.00  0.00    +0.049 A 
BRANCH  13  17
ATOM     17  O   LIG A   1      -0.886   6.440 134.934  0.00  0.00    -0.507 OA
ATOM     18  H   LIG A   1      -0.066   5.975 134.691  0.00  0.00    +0.292 HD
ENDBRANCH  13  17
BRANCH  15  19
ATOM     19  O   LIG A   1      -1.822   6.409 130.276  0.00  0.00    -0.507 OA
ATOM     20  H   LIG A   1      -2.475   5.963 129.711  0.00  0.00    +0.292 HD
ENDBRANCH  15  19
ENDBRANCH   7  11
BRANCH   6  21
ATOM     21  C   LIG A   1      -7.271   4.941 131.454  0.00  0.00    -0.042 A 
ATOM     22  C   LIG A   1      -7.844   6.225 131.556  0.00  0.00    +0.007 A 
ATOM     23  C   LIG A   1      -8.868   6.639 130.696  0.00  0.00    +0.045 A 
ATOM     24  C   LIG A   1      -9.342   5.765 129.729  0.00  0.00    +0.117 A 
ATOM     25  C   LIG A   1      -8.808   4.491 129.613  0.00  0.00    +0.045 A 
ATOM     26  C   LIG A   1      -7.778   4.082 130.467  0.00  0.00    +0.007 A 
BRANCH  24  27
ATOM     27  O   LIG A   1     -10.336   6.120 128.867  0.00  0.00    -0.507 OA
ATOM     28  H   LIG A   1     -11.070   6.496 129.378  0.00  0.00    +0.292 HD
ENDBRANCH  24  27
ENDBRANCH   6  21
BRANCH   1  29
ATOM     29  C   LIG A   1      -7.895   6.488 135.864  0.00  0.00    +0.005 C 
ATOM     30  C   LIG A   1      -7.902   6.599 137.202  0.00  0.00    +0.008 C 
BRANCH  30  31
ATOM     31  C   LIG A   1      -8.348   7.783 137.966  0.00  0.00    -0.025 A 
ATOM     32  C   LIG A   1      -9.570   8.380 137.611  0.00  0.00    +0.011 A 
ATOM     33  C   LIG A   1     -10.062   9.489 138.309  0.00  0.00    +0.046 A 
ATOM     34  C   LIG A   1      -9.331  10.006 139.370  0.00  0.00    +0.117 A 
ATOM     35  C   LIG A   1      -8.123   9.435 139.741  0.00  0.00    +0.046 A 
ATOM     36  C   LIG A   1      -7.634   8.328 139.043  0.00  0.00    +0.011 A 
BRANCH  34  37
ATOM     37  O   LIG A   1      -9.771  11.081 140.082  0.00  0.00    -0.507 OA
ATOM     38  H   LIG A   1     -10.327  10.764 140.812  0.00  0.00    +0.292 HD
ENDBRANCH  34  37
ENDBRANCH  30  31
ENDBRANCH   1  29
TORSDOF 8
ENDMDL
MODEL 8
REMARK VINA RESULT:      -8.5      7.077      9.342
REMARK  Name = NuBBE_1968
REMARK  8 active torsions:
REMARK  status: ('A' for Active; 'I' for Inactive)
REMARK    1  A    between atoms: C_1  and  C_10
REMARK    2  A    between atoms: C_2  and  C_3
REMARK    3  A    between atoms: C_6  and  O_9
REMARK    4  A    between atoms: C_16  and  C_32
REMARK    5  A    between atoms: C_18  and  C_24
REMARK    6  A    between atoms: C_26  and  O_27
REMARK    7  A    between atoms: C_29  and  O_31
REMARK    8  A    between atoms: C_35  and  O_38
REMARK                            x       y       z     vdW  Elec       q    Type
REMARK                         _______ _______ _______ _____ _____    ______ ____
ROOT
ATOM      1  C   LIG A   1      -7.270   5.749 132.405  0.00  0.00    -0.033 C 
ATOM      2  C   LIG A   1      -7.327   5.161 133.624  0.00  0.00    +0.051 C 
ATOM      3  C   LIG A   1      -6.104   4.508 134.190  0.00  0.00    +0.167 C 
ATOM      4  O   LIG A   1      -6.120   4.027 135.318  0.00  0.00    -0.292 OA
ATOM      5  C   LIG A   1      -4.892   4.464 133.282  0.00  0.00    +0.134 C 
ATOM      6  C   LIG A   1      -5.106   3.570 132.016  0.00  0.00    +0.045 C 
ATOM      7  C   LIG A   1      -5.584   4.557 130.878  0.00  0.00    +0.042 C 
ATOM      8  C   LIG A   1      -5.956   5.861 131.619  0.00  0.00    +0.094 C 
ATOM      9  C   LIG A   1      -4.873   5.825 132.663  0.00  0.00    +0.152 C 
ATOM     10  O   LIG A   1      -4.191   6.772 133.021  0.00  0.00    -0.296 OA
ENDROOT
BRANCH   7  11
ATOM     11  C   LIG A   1      -4.513   4.730 129.792  0.00  0.00    -0.036 A 
ATOM     12  C   LIG A   1      -4.009   5.983 129.396  0.00  0.00    +0.049 A 
ATOM     13  C   LIG A   1      -3.033   6.079 128.401  0.00  0.00    +0.121 A 
ATOM     14  C   LIG A   1      -2.540   4.947 127.772  0.00  0.00    +0.090 A 
ATOM     15  C   LIG A   1      -3.029   3.705 128.157  0.00  0.00    +0.121 A 
ATOM     16  C   LIG A   1      -3.996   3.588 129.156  0.00  0.00    +0.049 A 
BRANCH  13  17
ATOM     17  O   LIG A   1      -2.542   7.290 128.018  0.00  0.00    -0.507 OA
ATOM     18  H   LIG A   1      -3.152   7.989 128.311  0.00  0.00    +0.292 HD
ENDBRANCH  13  17
BRANCH  15  19
ATOM     19  O   LIG A   1      -2.581   2.560 127.565  0.00  0.00    -0.507 OA
ATOM     20  H   LIG A   1      -3.002   1.801 128.004  0.00  0.00    +0.292 HD
ENDBRANCH  15  19
ENDBRANCH   7  11
BRANCH   6  21
ATOM     21  C   LIG A   1      -5.954   2.328 132.300  0.00  0.00    -0.042 A 
ATOM     22  C   LIG A   1      -7.164   2.170 131.595  0.00  0.00    +0.007 A 
ATOM     23  C   LIG A   1      -7.964   1.034 131.765  0.00  0.00    +0.045 A 
ATOM     24  C   LIG A   1      -7.568   0.047 132.655  0.00  0.00    +0.117 A 
ATOM     25  C   LIG A   1      -6.391   0.181 133.372  0.00  0.00    +0.045 A 
ATOM     26  C   LIG A   1      -5.586   1.312 133.195  0.00  0.00    +0.007 A 
BRANCH  24  27
ATOM     27  O   LIG A   1      -8.311  -1.078 132.854  0.00  0.00    -0.507 OA
ATOM     28  H   LIG A   1      -7.793  -1.700 133.390  0.00  0.00    +0.292 HD
ENDBRANCH  24  27
ENDBRANCH   6  21
BRANCH   1  29
ATOM     29  C   LIG A   1      -8.502   6.267 131.824  0.00  0.00    +0.005 C 
ATOM     30  C   LIG A   1      -8.632   6.841 130.617  0.00  0.00    +0.008 C 
BRANCH  30  31
ATOM     31  C   LIG A   1      -9.897   7.321 130.023  0.00  0.00    -0.025 A 
ATOM     32  C   LIG A   1     -11.098   7.026 130.691  0.00  0.00    +0.011 A 
ATOM     33  C   LIG A   1     -12.328   7.471 130.196  0.00  0.00    +0.046 A 
ATOM     34  C   LIG A   1     -12.363   8.218 129.026  0.00  0.00    +0.117 A 
ATOM     35  C   LIG A   1     -11.193   8.523 128.347  0.00  0.00    +0.046 A 
ATOM     36  C   LIG A   1      -9.965   8.078 128.844  0.00  0.00    +0.011 A 
BRANCH  34  37
ATOM     37  O   LIG A   1     -13.536   8.676 128.508  0.00  0.00    -0.507 OA
ATOM     38  H   LIG A   1     -14.206   7.978 128.588  0.00  0.00    +0.292 HD
ENDBRANCH  34  37
ENDBRANCH  30  31
ENDBRANCH   1  29
TORSDOF 8
ENDMDL
MODEL 9
REMARK VINA RESULT:      -8.3      5.033      9.237
REMARK  Name = NuBBE_1968
REMARK  8 active torsions:
REMARK  status: ('A' for Active; 'I' for Inactive)
REMARK    1  A    between atoms: C_1  and  C_10
REMARK    2  A    between atoms: C_2  and  C_3
REMARK    3  A    between atoms: C_6  and  O_9
REMARK    4  A    between atoms: C_16  and  C_32
REMARK    5  A    between atoms: C_18  and  C_24
REMARK    6  A    between atoms: C_26  and  O_27
REMARK    7  A    between atoms: C_29  and  O_31
REMARK    8  A    between atoms: C_35  and  O_38
REMARK                            x       y       z     vdW  Elec       q    Type
REMARK                         _______ _______ _______ _____ _____    ______ ____
ROOT
ATOM      1  C   LIG A   1      -6.281  -1.387 129.912  0.00  0.00    -0.033 C 
ATOM      2  C   LIG A   1      -5.761  -0.136 129.902  0.00  0.00    +0.051 C 
ATOM      3  C   LIG A   1      -5.014   0.367 131.098  0.00  0.00    +0.167 C 
ATOM      4  O   LIG A   1      -4.482   1.472 131.081  0.00  0.00    -0.292 OA
ATOM      5  C   LIG A   1      -4.988  -0.553 132.302  0.00  0.00    +0.134 C 
ATOM      6  C   LIG A   1      -6.400  -0.764 132.942  0.00  0.00    +0.045 C 
ATOM      7  C   LIG A   1      -6.967  -2.085 132.286  0.00  0.00    +0.042 C 
ATOM      8  C   LIG A   1      -6.040  -2.355 131.080  0.00  0.00    +0.094 C 
ATOM      9  C   LIG A   1      -4.748  -1.901 131.703  0.00  0.00    +0.152 C 
ATOM     10  O   LIG A   1      -3.674  -2.476 131.623  0.00  0.00    -0.296 OA
ENDROOT
BRANCH   7  11
ATOM     11  C   LIG A   1      -7.037  -3.236 133.300  0.00  0.00    -0.036 A 
ATOM     12  C   LIG A   1      -6.028  -4.208 133.437  0.00  0.00    +0.049 A 
ATOM     13  C   LIG A   1      -6.146  -5.233 134.378  0.00  0.00    +0.121 A 
ATOM     14  C   LIG A   1      -7.260  -5.327 135.197  0.00  0.00    +0.090 A 
ATOM     15  C   LIG A   1      -8.260  -4.371 135.073  0.00  0.00    +0.121 A 
ATOM     16  C   LIG A   1      -8.156  -3.334 134.146  0.00  0.00    +0.049 A 
BRANCH  13  17
ATOM     17  O   LIG A   1      -5.170  -6.174 134.514  0.00  0.00    -0.507 OA
ATOM     18  H   LIG A   1      -4.827  -6.406 133.634  0.00  0.00    +0.292 HD
ENDBRANCH  13  17
BRANCH  15  19
ATOM     19  O   LIG A   1      -9.379  -4.420 135.851  0.00  0.00    -0.507 OA
ATOM     20  H   LIG A   1      -9.787  -3.538 135.862  0.00  0.00    +0.292 HD
ENDBRANCH  15  19
ENDBRANCH   7  11
BRANCH   6  21
ATOM     21  C   LIG A   1      -7.267   0.495 132.900  0.00  0.00    -0.042 A 
ATOM     22  C   LIG A   1      -8.474   0.451 132.173  0.00  0.00    +0.007 A 
ATOM     23  C   LIG A   1      -9.344   1.548 132.135  0.00  0.00    +0.045 A 
ATOM     24  C   LIG A   1      -9.007   2.710 132.814  0.00  0.00    +0.117 A 
ATOM     25  C   LIG A   1      -7.822   2.788 133.526  0.00  0.00    +0.045 A 
ATOM     26  C   LIG A   1      -6.958   1.688 133.573  0.00  0.00    +0.007 A 
BRANCH  24  27
ATOM     27  O   LIG A   1      -9.820   3.803 132.809  0.00  0.00    -0.507 OA
ATOM     28  H   LIG A   1      -9.966   4.085 133.726  0.00  0.00    +0.292 HD
ENDBRANCH  24  27
ENDBRANCH   6  21
BRANCH   1  29
ATOM     29  C   LIG A   1      -7.108  -1.807 128.789  0.00  0.00    +0.005 C 
ATOM     30  C   LIG A   1      -6.730  -1.865 127.501  0.00  0.00    +0.008 C 
BRANCH  30  31
ATOM     31  C   LIG A   1      -7.567  -2.335 126.378  0.00  0.00    -0.025 A 
ATOM     32  C   LIG A   1      -8.894  -2.710 126.651  0.00  0.00    +0.011 A 
ATOM     33  C   LIG A   1      -9.747  -3.142 125.630  0.00  0.00    +0.046 A 
ATOM     34  C   LIG A   1      -9.276  -3.199 124.326  0.00  0.00    +0.117 A 
ATOM     35  C   LIG A   1      -7.970  -2.836 124.029  0.00  0.00    +0.046 A 
ATOM     36  C   LIG A   1      -7.120  -2.404 125.051  0.00  0.00    +0.011 A 
BRANCH  34  37
ATOM     37  O   LIG A   1     -10.070  -3.609 123.298  0.00  0.00    -0.507 OA
ATOM     38  H   LIG A   1      -9.818  -4.514 123.052  0.00  0.00    +0.292 HD
ENDBRANCH  34  37
ENDBRANCH  30  31
ENDBRANCH   1  29
TORSDOF 8
ENDMDL
