MODEL 1
REMARK VINA RESULT:      -7.8      0.000      0.000
REMARK  Name = NuBBE_1337
REMARK  9 active torsions:
REMARK  status: ('A' for Active; 'I' for Inactive)
REMARK    1  A    between atoms: O_1  and  C_2
REMARK    2  A    between atoms: O_1  and  C_12
REMARK    3  A    between atoms: C_2  and  C_3
REMARK    4  A    between atoms: C_4  and  C_5
REMARK    5  A    between atoms: C_4  and  C_11
REMARK    6  A    between atoms: C_5  and  C_6
REMARK    7  A    between atoms: C_6  and  C_7
REMARK    8  A    between atoms: C_8  and  C_9
REMARK    9  A    between atoms: C_8  and  C_10
REMARK                            x       y       z     vdW  Elec       q    Type
REMARK                         _______ _______ _______ _____ _____    ______ ____
ROOT
ATOM      1  O   LIG A   1      -9.229   2.172 125.110  0.00  0.00    -0.488 OA
ENDROOT
BRANCH   1   2
ATOM      2  C   LIG A   1      -8.318   2.670 124.215  0.00  0.00    +0.124 A 
ATOM      3  C   LIG A   1      -8.585   2.948 122.877  0.00  0.00    +0.092 A 
ATOM      4  C   LIG A   1      -7.569   3.456 122.069  0.00  0.00    +0.142 A 
ATOM      5  O   LIG A   1      -7.907   3.707 120.722  0.00  0.00    -0.422 OA
ATOM      6  C   LIG A   1      -6.960   4.181 119.829  0.00  0.00    +0.337 A 
ATOM      7  O   LIG A   1      -7.224   4.382 118.644  0.00  0.00    -0.245 OA
ATOM      8  C   LIG A   1      -5.613   4.444 120.355  0.00  0.00    +0.092 A 
ATOM      9  C   LIG A   1      -5.284   4.221 121.634  0.00  0.00    +0.018 A 
ATOM     10  C   LIG A   1      -6.284   3.694 122.549  0.00  0.00    +0.018 A 
ATOM     11  C   LIG A   1      -6.014   3.405 123.888  0.00  0.00    +0.015 A 
ATOM     12  C   LIG A   1      -7.026   2.886 124.711  0.00  0.00    +0.046 A 
ENDBRANCH   1   2
BRANCH   1  13
ATOM     13  C   LIG A   1      -9.853   0.935 124.743  0.00  0.00    +0.257 C 
BRANCH  13  14
ATOM     14  C   LIG A   1      -9.083  -0.194 125.373  0.00  0.00    +0.012 C 
ATOM     15  C   LIG A   1      -8.768  -1.390 124.831  0.00  0.00    -0.073 C 
ATOM     16  C   LIG A   1      -9.172  -1.836 123.448  0.00  0.00    +0.038 C 
BRANCH  15  17
ATOM     17  C   LIG A   1      -7.922  -2.391 125.609  0.00  0.00    +0.034 C 
BRANCH  17  18
ATOM     18  C   LIG A   1      -6.436  -2.002 125.681  0.00  0.00    +0.031 C 
BRANCH  18  19
ATOM     19  C   LIG A   1      -5.522  -3.079 125.152  0.00  0.00    -0.028 C 
ATOM     20  C   LIG A   1      -5.144  -3.243 123.868  0.00  0.00    -0.080 C 
ATOM     21  C   LIG A   1      -5.593  -2.382 122.716  0.00  0.00    +0.038 C 
ATOM     22  C   LIG A   1      -4.214  -4.359 123.471  0.00  0.00    +0.038 C 
ENDBRANCH  18  19
ENDBRANCH  17  18
ENDBRANCH  15  17
ENDBRANCH  13  14
ENDBRANCH   1  13
TORSDOF 6
ENDMDL
MODEL 2
REMARK VINA RESULT:      -7.5      9.853     12.143
REMARK  Name = NuBBE_1337
REMARK  9 active torsions:
REMARK  status: ('A' for Active; 'I' for Inactive)
REMARK    1  A    between atoms: O_1  and  C_2
REMARK    2  A    between atoms: O_1  and  C_12
REMARK    3  A    between atoms: C_2  and  C_3
REMARK    4  A    between atoms: C_4  and  C_5
REMARK    5  A    between atoms: C_4  and  C_11
REMARK    6  A    between atoms: C_5  and  C_6
REMARK    7  A    between atoms: C_6  and  C_7
REMARK    8  A    between atoms: C_8  and  C_9
REMARK    9  A    between atoms: C_8  and  C_10
REMARK                            x       y       z     vdW  Elec       q    Type
REMARK                         _______ _______ _______ _____ _____    ______ ____
ROOT
ATOM      1  O   LIG A   1      -9.197   6.620 132.338  0.00  0.00    -0.488 OA
ENDROOT
BRANCH   1   2
ATOM      2  C   LIG A   1     -10.057   6.712 131.273  0.00  0.00    +0.124 A 
ATOM      3  C   LIG A   1      -9.685   7.063 129.978  0.00  0.00    +0.092 A 
ATOM      4  C   LIG A   1     -10.658   7.118 128.980  0.00  0.00    +0.142 A 
ATOM      5  O   LIG A   1     -10.213   7.489 127.693  0.00  0.00    -0.422 OA
ATOM      6  C   LIG A   1     -11.105   7.604 126.639  0.00  0.00    +0.337 A 
ATOM      7  O   LIG A   1     -10.746   7.951 125.515  0.00  0.00    -0.245 OA
ATOM      8  C   LIG A   1     -12.515   7.288 126.916  0.00  0.00    +0.092 A 
ATOM      9  C   LIG A   1     -12.945   6.923 128.130  0.00  0.00    +0.018 A 
ATOM     10  C   LIG A   1     -11.998   6.837 129.230  0.00  0.00    +0.018 A 
ATOM     11  C   LIG A   1     -12.371   6.495 130.531  0.00  0.00    +0.015 A 
ATOM     12  C   LIG A   1     -11.403   6.444 131.547  0.00  0.00    +0.046 A 
ENDBRANCH   1   2
BRANCH   1  13
ATOM     13  C   LIG A   1      -8.855   5.291 132.750  0.00  0.00    +0.257 C 
BRANCH  13  14
ATOM     14  C   LIG A   1      -8.342   5.345 134.163  0.00  0.00    +0.012 C 
ATOM     15  C   LIG A   1      -7.072   5.537 134.581  0.00  0.00    -0.073 C 
ATOM     16  C   LIG A   1      -5.887   5.711 133.664  0.00  0.00    +0.038 C 
BRANCH  15  17
ATOM     17  C   LIG A   1      -6.753   5.622 136.068  0.00  0.00    +0.034 C 
BRANCH  17  18
ATOM     18  C   LIG A   1      -7.864   6.299 136.888  0.00  0.00    +0.031 C 
BRANCH  18  19
ATOM     19  C   LIG A   1      -7.433   7.616 137.484  0.00  0.00    -0.028 C 
ATOM     20  C   LIG A   1      -8.201   8.715 137.627  0.00  0.00    -0.080 C 
ATOM     21  C   LIG A   1      -9.637   8.832 137.188  0.00  0.00    +0.038 C 
ATOM     22  C   LIG A   1      -7.648   9.970 138.250  0.00  0.00    +0.038 C 
ENDBRANCH  18  19
ENDBRANCH  17  18
ENDBRANCH  15  17
ENDBRANCH  13  14
ENDBRANCH   1  13
TORSDOF 6
ENDMDL
MODEL 3
REMARK VINA RESULT:      -7.5      2.815      4.398
REMARK  Name = NuBBE_1337
REMARK  9 active torsions:
REMARK  status: ('A' for Active; 'I' for Inactive)
REMARK    1  A    between atoms: O_1  and  C_2
REMARK    2  A    between atoms: O_1  and  C_12
REMARK    3  A    between atoms: C_2  and  C_3
REMARK    4  A    between atoms: C_4  and  C_5
REMARK    5  A    between atoms: C_4  and  C_11
REMARK    6  A    between atoms: C_5  and  C_6
REMARK    7  A    between atoms: C_6  and  C_7
REMARK    8  A    between atoms: C_8  and  C_9
REMARK    9  A    between atoms: C_8  and  C_10
REMARK                            x       y       z     vdW  Elec       q    Type
REMARK                         _______ _______ _______ _____ _____    ______ ____
ROOT
ATOM      1  O   LIG A   1      -9.761  -1.508 123.427  0.00  0.00    -0.488 OA
ENDROOT
BRANCH   1   2
ATOM      2  C   LIG A   1      -8.997  -0.389 123.639  0.00  0.00    +0.124 A 
ATOM      3  C   LIG A   1      -9.441   0.769 124.272  0.00  0.00    +0.092 A 
ATOM      4  C   LIG A   1      -8.561   1.840 124.429  0.00  0.00    +0.142 A 
ATOM      5  O   LIG A   1      -9.079   2.985 125.071  0.00  0.00    -0.422 OA
ATOM      6  C   LIG A   1      -8.296   4.114 125.248  0.00  0.00    +0.337 A 
ATOM      7  O   LIG A   1      -8.732   5.134 125.781  0.00  0.00    -0.245 OA
ATOM      8  C   LIG A   1      -6.906   4.049 124.773  0.00  0.00    +0.092 A 
ATOM      9  C   LIG A   1      -6.401   2.964 124.174  0.00  0.00    +0.018 A 
ATOM     10  C   LIG A   1      -7.247   1.798 123.971  0.00  0.00    +0.018 A 
ATOM     11  C   LIG A   1      -6.807   0.640 123.327  0.00  0.00    +0.015 A 
ATOM     12  C   LIG A   1      -7.685  -0.443 123.155  0.00  0.00    +0.046 A 
ENDBRANCH   1   2
BRANCH   1  13
ATOM     13  C   LIG A   1      -9.089  -2.763 123.594  0.00  0.00    +0.257 C 
BRANCH  13  14
ATOM     14  C   LIG A   1      -9.273  -3.219 125.015  0.00  0.00    +0.012 C 
ATOM     15  C   LIG A   1      -8.391  -3.138 126.036  0.00  0.00    -0.073 C 
ATOM     16  C   LIG A   1      -6.996  -2.577 125.918  0.00  0.00    +0.038 C 
BRANCH  15  17
ATOM     17  C   LIG A   1      -8.783  -3.603 127.433  0.00  0.00    +0.034 C 
BRANCH  17  18
ATOM     18  C   LIG A   1      -8.140  -2.766 128.552  0.00  0.00    +0.031 C 
BRANCH  18  19
ATOM     19  C   LIG A   1      -7.464  -3.612 129.601  0.00  0.00    -0.028 C 
ATOM     20  C   LIG A   1      -6.136  -3.693 129.826  0.00  0.00    -0.080 C 
ATOM     21  C   LIG A   1      -5.079  -2.962 129.041  0.00  0.00    +0.038 C 
ATOM     22  C   LIG A   1      -5.588  -4.574 130.918  0.00  0.00    +0.038 C 
ENDBRANCH  18  19
ENDBRANCH  17  18
ENDBRANCH  15  17
ENDBRANCH  13  14
ENDBRANCH   1  13
TORSDOF 6
ENDMDL
MODEL 4
REMARK VINA RESULT:      -7.4      7.000      8.545
REMARK  Name = NuBBE_1337
REMARK  9 active torsions:
REMARK  status: ('A' for Active; 'I' for Inactive)
REMARK    1  A    between atoms: O_1  and  C_2
REMARK    2  A    between atoms: O_1  and  C_12
REMARK    3  A    between atoms: C_2  and  C_3
REMARK    4  A    between atoms: C_4  and  C_5
REMARK    5  A    between atoms: C_4  and  C_11
REMARK    6  A    between atoms: C_5  and  C_6
REMARK    7  A    between atoms: C_6  and  C_7
REMARK    8  A    between atoms: C_8  and  C_9
REMARK    9  A    between atoms: C_8  and  C_10
REMARK                            x       y       z     vdW  Elec       q    Type
REMARK                         _______ _______ _______ _____ _____    ______ ____
ROOT
ATOM      1  O   LIG A   1      -9.329   6.376 132.385  0.00  0.00    -0.488 OA
ENDROOT
BRANCH   1   2
ATOM      2  C   LIG A   1     -10.176   6.606 131.331  0.00  0.00    +0.124 A 
ATOM      3  C   LIG A   1      -9.769   6.898 130.032  0.00  0.00    +0.092 A 
ATOM      4  C   LIG A   1     -10.733   7.108 129.046  0.00  0.00    +0.142 A 
ATOM      5  O   LIG A   1     -10.251   7.409 127.754  0.00  0.00    -0.422 OA
ATOM      6  C   LIG A   1     -11.127   7.666 126.712  0.00  0.00    +0.337 A 
ATOM      7  O   LIG A   1     -10.731   7.956 125.584  0.00  0.00    -0.245 OA
ATOM      8  C   LIG A   1     -12.565   7.574 127.005  0.00  0.00    +0.092 A 
ATOM      9  C   LIG A   1     -13.033   7.278 128.224  0.00  0.00    +0.018 A 
ATOM     10  C   LIG A   1     -12.098   7.040 129.312  0.00  0.00    +0.018 A 
ATOM     11  C   LIG A   1     -12.505   6.757 130.617  0.00  0.00    +0.015 A 
ATOM     12  C   LIG A   1     -11.545   6.552 131.622  0.00  0.00    +0.046 A 
ENDBRANCH   1   2
BRANCH   1  13
ATOM     13  C   LIG A   1      -8.308   5.395 132.163  0.00  0.00    +0.257 C 
BRANCH  13  14
ATOM     14  C   LIG A   1      -8.888   4.033 132.430  0.00  0.00    +0.012 C 
ATOM     15  C   LIG A   1      -9.314   3.119 131.530  0.00  0.00    -0.073 C 
ATOM     16  C   LIG A   1      -9.309   3.324 130.036  0.00  0.00    +0.038 C 
BRANCH  15  17
ATOM     17  C   LIG A   1      -9.819   1.758 131.993  0.00  0.00    +0.034 C 
BRANCH  17  18
ATOM     18  C   LIG A   1      -8.689   0.745 132.239  0.00  0.00    +0.031 C 
BRANCH  18  19
ATOM     19  C   LIG A   1      -8.582  -0.291 131.148  0.00  0.00    -0.028 C 
ATOM     20  C   LIG A   1      -7.664  -0.316 130.160  0.00  0.00    -0.080 C 
ATOM     21  C   LIG A   1      -6.584   0.713 129.956  0.00  0.00    +0.038 C 
ATOM     22  C   LIG A   1      -7.662  -1.418 129.133  0.00  0.00    +0.038 C 
ENDBRANCH  18  19
ENDBRANCH  17  18
ENDBRANCH  15  17
ENDBRANCH  13  14
ENDBRANCH   1  13
TORSDOF 6
ENDMDL
MODEL 5
REMARK VINA RESULT:      -7.2      1.582      2.199
REMARK  Name = NuBBE_1337
REMARK  9 active torsions:
REMARK  status: ('A' for Active; 'I' for Inactive)
REMARK    1  A    between atoms: O_1  and  C_2
REMARK    2  A    between atoms: O_1  and  C_12
REMARK    3  A    between atoms: C_2  and  C_3
REMARK    4  A    between atoms: C_4  and  C_5
REMARK    5  A    between atoms: C_4  and  C_11
REMARK    6  A    between atoms: C_5  and  C_6
REMARK    7  A    between atoms: C_6  and  C_7
REMARK    8  A    between atoms: C_8  and  C_9
REMARK    9  A    between atoms: C_8  and  C_10
REMARK                            x       y       z     vdW  Elec       q    Type
REMARK                         _______ _______ _______ _____ _____    ______ ____
ROOT
ATOM      1  O   LIG A   1      -9.042   2.111 125.677  0.00  0.00    -0.488 OA
ENDROOT
BRANCH   1   2
ATOM      2  C   LIG A   1      -8.489   2.535 124.496  0.00  0.00    +0.124 A 
ATOM      3  C   LIG A   1      -7.231   3.119 124.370  0.00  0.00    +0.092 A 
ATOM      4  C   LIG A   1      -6.782   3.504 123.108  0.00  0.00    +0.142 A 
ATOM      5  O   LIG A   1      -5.503   4.098 123.054  0.00  0.00    -0.422 OA
ATOM      6  C   LIG A   1      -4.977   4.545 121.853  0.00  0.00    +0.337 A 
ATOM      7  O   LIG A   1      -3.876   5.089 121.784  0.00  0.00    -0.245 OA
ATOM      8  C   LIG A   1      -5.792   4.339 120.645  0.00  0.00    +0.092 A 
ATOM      9  C   LIG A   1      -7.001   3.766 120.683  0.00  0.00    +0.018 A 
ATOM     10  C   LIG A   1      -7.548   3.331 121.959  0.00  0.00    +0.018 A 
ATOM     11  C   LIG A   1      -8.813   2.754 122.088  0.00  0.00    +0.015 A 
ATOM     12  C   LIG A   1      -9.282   2.369 123.354  0.00  0.00    +0.046 A 
ENDBRANCH   1   2
BRANCH   1  13
ATOM     13  C   LIG A   1      -9.417   0.729 125.730  0.00  0.00    +0.257 C 
BRANCH  13  14
ATOM     14  C   LIG A   1      -8.336  -0.033 126.447  0.00  0.00    +0.012 C 
ATOM     15  C   LIG A   1      -8.202  -1.372 126.570  0.00  0.00    -0.073 C 
ATOM     16  C   LIG A   1      -9.170  -2.382 126.009  0.00  0.00    +0.038 C 
BRANCH  15  17
ATOM     17  C   LIG A   1      -6.996  -1.964 127.289  0.00  0.00    +0.034 C 
BRANCH  17  18
ATOM     18  C   LIG A   1      -5.810  -2.244 126.351  0.00  0.00    +0.031 C 
BRANCH  18  19
ATOM     19  C   LIG A   1      -6.094  -1.870 124.918  0.00  0.00    -0.028 C 
ATOM     20  C   LIG A   1      -5.696  -2.550 123.823  0.00  0.00    -0.080 C 
ATOM     21  C   LIG A   1      -4.865  -3.805 123.839  0.00  0.00    +0.038 C 
ATOM     22  C   LIG A   1      -6.057  -2.071 122.441  0.00  0.00    +0.038 C 
ENDBRANCH  18  19
ENDBRANCH  17  18
ENDBRANCH  15  17
ENDBRANCH  13  14
ENDBRANCH   1  13
TORSDOF 6
ENDMDL
MODEL 6
REMARK VINA RESULT:      -7.2      8.723     10.570
REMARK  Name = NuBBE_1337
REMARK  9 active torsions:
REMARK  status: ('A' for Active; 'I' for Inactive)
REMARK    1  A    between atoms: O_1  and  C_2
REMARK    2  A    between atoms: O_1  and  C_12
REMARK    3  A    between atoms: C_2  and  C_3
REMARK    4  A    between atoms: C_4  and  C_5
REMARK    5  A    between atoms: C_4  and  C_11
REMARK    6  A    between atoms: C_5  and  C_6
REMARK    7  A    between atoms: C_6  and  C_7
REMARK    8  A    between atoms: C_8  and  C_9
REMARK    9  A    between atoms: C_8  and  C_10
REMARK                            x       y       z     vdW  Elec       q    Type
REMARK                         _______ _______ _______ _____ _____    ______ ____
ROOT
ATOM      1  O   LIG A   1      -9.335   6.282 132.490  0.00  0.00    -0.488 OA
ENDROOT
BRANCH   1   2
ATOM      2  C   LIG A   1     -10.184   6.556 131.449  0.00  0.00    +0.124 A 
ATOM      3  C   LIG A   1      -9.781   6.842 130.146  0.00  0.00    +0.092 A 
ATOM      4  C   LIG A   1     -10.748   7.100 129.175  0.00  0.00    +0.142 A 
ATOM      5  O   LIG A   1     -10.269   7.391 127.880  0.00  0.00    -0.422 OA
ATOM      6  C   LIG A   1     -11.146   7.694 126.850  0.00  0.00    +0.337 A 
ATOM      7  O   LIG A   1     -10.753   7.976 125.720  0.00  0.00    -0.245 OA
ATOM      8  C   LIG A   1     -12.583   7.661 127.161  0.00  0.00    +0.092 A 
ATOM      9  C   LIG A   1     -13.048   7.375 128.383  0.00  0.00    +0.018 A 
ATOM     10  C   LIG A   1     -12.111   7.089 129.458  0.00  0.00    +0.018 A 
ATOM     11  C   LIG A   1     -12.513   6.812 130.766  0.00  0.00    +0.015 A 
ATOM     12  C   LIG A   1     -11.550   6.558 131.756  0.00  0.00    +0.046 A 
ENDBRANCH   1   2
BRANCH   1  13
ATOM     13  C   LIG A   1      -8.306   5.321 132.220  0.00  0.00    +0.257 C 
BRANCH  13  14
ATOM     14  C   LIG A   1      -6.983   5.908 132.629  0.00  0.00    +0.012 C 
ATOM     15  C   LIG A   1      -5.869   6.052 131.879  0.00  0.00    -0.073 C 
ATOM     16  C   LIG A   1      -5.741   5.604 130.445  0.00  0.00    +0.038 C 
BRANCH  15  17
ATOM     17  C   LIG A   1      -4.633   6.730 132.456  0.00  0.00    +0.034 C 
BRANCH  17  18
ATOM     18  C   LIG A   1      -3.565   7.045 131.395  0.00  0.00    +0.031 C 
BRANCH  18  19
ATOM     19  C   LIG A   1      -2.285   7.575 131.991  0.00  0.00    -0.028 C 
ATOM     20  C   LIG A   1      -1.246   6.838 132.433  0.00  0.00    -0.080 C 
ATOM     21  C   LIG A   1      -1.190   5.333 132.433  0.00  0.00    +0.038 C 
ATOM     22  C   LIG A   1      -0.016   7.495 133.001  0.00  0.00    +0.038 C 
ENDBRANCH  18  19
ENDBRANCH  17  18
ENDBRANCH  15  17
ENDBRANCH  13  14
ENDBRANCH   1  13
TORSDOF 6
ENDMDL
MODEL 7
REMARK VINA RESULT:      -7.2      7.403      9.609
REMARK  Name = NuBBE_1337
REMARK  9 active torsions:
REMARK  status: ('A' for Active; 'I' for Inactive)
REMARK    1  A    between atoms: O_1  and  C_2
REMARK    2  A    between atoms: O_1  and  C_12
REMARK    3  A    between atoms: C_2  and  C_3
REMARK    4  A    between atoms: C_4  and  C_5
REMARK    5  A    between atoms: C_4  and  C_11
REMARK    6  A    between atoms: C_5  and  C_6
REMARK    7  A    between atoms: C_6  and  C_7
REMARK    8  A    between atoms: C_8  and  C_9
REMARK    9  A    between atoms: C_8  and  C_10
REMARK                            x       y       z     vdW  Elec       q    Type
REMARK                         _______ _______ _______ _____ _____    ______ ____
ROOT
ATOM      1  O   LIG A   1      -8.744   6.369 131.875  0.00  0.00    -0.488 OA
ENDROOT
BRANCH   1   2
ATOM      2  C   LIG A   1      -9.860   6.527 131.094  0.00  0.00    +0.124 A 
ATOM      3  C   LIG A   1      -9.850   6.659 129.708  0.00  0.00    +0.092 A 
ATOM      4  C   LIG A   1     -11.059   6.811 129.029  0.00  0.00    +0.142 A 
ATOM      5  O   LIG A   1     -10.975   6.948 127.627  0.00  0.00    -0.422 OA
ATOM      6  C   LIG A   1     -12.115   7.137 126.863  0.00  0.00    +0.337 A 
ATOM      7  O   LIG A   1     -12.066   7.284 125.643  0.00  0.00    -0.245 OA
ATOM      8  C   LIG A   1     -13.404   7.150 127.571  0.00  0.00    +0.092 A 
ATOM      9  C   LIG A   1     -13.496   7.009 128.899  0.00  0.00    +0.018 A 
ATOM     10  C   LIG A   1     -12.285   6.842 129.688  0.00  0.00    +0.018 A 
ATOM     11  C   LIG A   1     -12.292   6.720 131.078  0.00  0.00    +0.015 A 
ATOM     12  C   LIG A   1     -11.082   6.574 131.776  0.00  0.00    +0.046 A 
ENDBRANCH   1   2
BRANCH   1  13
ATOM     13  C   LIG A   1      -7.517   6.857 131.316  0.00  0.00    +0.257 C 
BRANCH  13  14
ATOM     14  C   LIG A   1      -6.459   5.803 131.490  0.00  0.00    +0.012 C 
ATOM     15  C   LIG A   1      -5.117   5.961 131.475  0.00  0.00    -0.073 C 
ATOM     16  C   LIG A   1      -4.413   7.274 131.242  0.00  0.00    +0.038 C 
BRANCH  15  17
ATOM     17  C   LIG A   1      -4.198   4.773 131.731  0.00  0.00    +0.034 C 
BRANCH  17  18
ATOM     18  C   LIG A   1      -2.900   4.823 130.908  0.00  0.00    +0.031 C 
BRANCH  18  19
ATOM     19  C   LIG A   1      -3.069   4.278 129.513  0.00  0.00    -0.028 C 
ATOM     20  C   LIG A   1      -2.820   4.938 128.363  0.00  0.00    -0.080 C 
ATOM     21  C   LIG A   1      -2.346   6.364 128.269  0.00  0.00    +0.038 C 
ATOM     22  C   LIG A   1      -3.023   4.272 127.028  0.00  0.00    +0.038 C 
ENDBRANCH  18  19
ENDBRANCH  17  18
ENDBRANCH  15  17
ENDBRANCH  13  14
ENDBRANCH   1  13
TORSDOF 6
ENDMDL
MODEL 8
REMARK VINA RESULT:      -7.1      6.046     10.077
REMARK  Name = NuBBE_1337
REMARK  9 active torsions:
REMARK  status: ('A' for Active; 'I' for Inactive)
REMARK    1  A    between atoms: O_1  and  C_2
REMARK    2  A    between atoms: O_1  and  C_12
REMARK    3  A    between atoms: C_2  and  C_3
REMARK    4  A    between atoms: C_4  and  C_5
REMARK    5  A    between atoms: C_4  and  C_11
REMARK    6  A    between atoms: C_5  and  C_6
REMARK    7  A    between atoms: C_6  and  C_7
REMARK    8  A    between atoms: C_8  and  C_9
REMARK    9  A    between atoms: C_8  and  C_10
REMARK                            x       y       z     vdW  Elec       q    Type
REMARK                         _______ _______ _______ _____ _____    ______ ____
ROOT
ATOM      1  O   LIG A   1      -6.070  -2.443 128.959  0.00  0.00    -0.488 OA
ENDROOT
BRANCH   1   2
ATOM      2  C   LIG A   1      -6.134  -3.045 130.190  0.00  0.00    +0.124 A 
ATOM      3  C   LIG A   1      -6.892  -2.584 131.264  0.00  0.00    +0.092 A 
ATOM      4  C   LIG A   1      -6.874  -3.292 132.465  0.00  0.00    +0.142 A 
ATOM      5  O   LIG A   1      -7.657  -2.764 133.513  0.00  0.00    -0.422 OA
ATOM      6  C   LIG A   1      -7.682  -3.373 134.757  0.00  0.00    +0.337 A 
ATOM      7  O   LIG A   1      -8.336  -2.918 135.694  0.00  0.00    -0.245 OA
ATOM      8  C   LIG A   1      -6.894  -4.604 134.918  0.00  0.00    +0.092 A 
ATOM      9  C   LIG A   1      -6.157  -5.121 133.926  0.00  0.00    +0.018 A 
ATOM     10  C   LIG A   1      -6.119  -4.449 132.636  0.00  0.00    +0.018 A 
ATOM     11  C   LIG A   1      -5.353  -4.905 131.563  0.00  0.00    +0.015 A 
ATOM     12  C   LIG A   1      -5.355  -4.198 130.350  0.00  0.00    +0.046 A 
ENDBRANCH   1   2
BRANCH   1  13
ATOM     13  C   LIG A   1      -7.121  -1.515 128.663  0.00  0.00    +0.257 C 
BRANCH  13  14
ATOM     14  C   LIG A   1      -7.797  -1.948 127.391  0.00  0.00    +0.012 C 
ATOM     15  C   LIG A   1      -8.632  -2.993 127.206  0.00  0.00    -0.073 C 
ATOM     16  C   LIG A   1      -9.029  -3.971 128.283  0.00  0.00    +0.038 C 
BRANCH  15  17
ATOM     17  C   LIG A   1      -9.271  -3.239 125.845  0.00  0.00    +0.034 C 
BRANCH  17  18
ATOM     18  C   LIG A   1      -8.343  -3.975 124.864  0.00  0.00    +0.031 C 
BRANCH  18  19
ATOM     19  C   LIG A   1      -7.825  -3.082 123.765  0.00  0.00    -0.028 C 
ATOM     20  C   LIG A   1      -6.560  -2.636 123.629  0.00  0.00    -0.080 C 
ATOM     21  C   LIG A   1      -5.430  -2.936 124.578  0.00  0.00    +0.038 C 
ATOM     22  C   LIG A   1      -6.170  -1.753 122.473  0.00  0.00    +0.038 C 
ENDBRANCH  18  19
ENDBRANCH  17  18
ENDBRANCH  15  17
ENDBRANCH  13  14
ENDBRANCH   1  13
TORSDOF 6
ENDMDL
MODEL 9
REMARK VINA RESULT:      -7.1      2.106      3.527
REMARK  Name = NuBBE_1337
REMARK  9 active torsions:
REMARK  status: ('A' for Active; 'I' for Inactive)
REMARK    1  A    between atoms: O_1  and  C_2
REMARK    2  A    between atoms: O_1  and  C_12
REMARK    3  A    between atoms: C_2  and  C_3
REMARK    4  A    between atoms: C_4  and  C_5
REMARK    5  A    between atoms: C_4  and  C_11
REMARK    6  A    between atoms: C_5  and  C_6
REMARK    7  A    between atoms: C_6  and  C_7
REMARK    8  A    between atoms: C_8  and  C_9
REMARK    9  A    between atoms: C_8  and  C_10
REMARK                            x       y       z     vdW  Elec       q    Type
REMARK                         _______ _______ _______ _____ _____    ______ ____
ROOT
ATOM      1  O   LIG A   1     -10.123   0.155 123.281  0.00  0.00    -0.488 OA
ENDROOT
BRANCH   1   2
ATOM      2  C   LIG A   1      -9.109   0.965 123.723  0.00  0.00    +0.124 A 
ATOM      3  C   LIG A   1      -8.367   1.825 122.916  0.00  0.00    +0.092 A 
ATOM      4  C   LIG A   1      -7.361   2.601 123.490  0.00  0.00    +0.142 A 
ATOM      5  O   LIG A   1      -6.644   3.443 122.613  0.00  0.00    -0.422 OA
ATOM      6  C   LIG A   1      -5.603   4.230 123.078  0.00  0.00    +0.337 A 
ATOM      7  O   LIG A   1      -4.947   4.952 122.329  0.00  0.00    -0.245 OA
ATOM      8  C   LIG A   1      -5.311   4.176 124.518  0.00  0.00    +0.092 A 
ATOM      9  C   LIG A   1      -5.993   3.390 125.361  0.00  0.00    +0.018 A 
ATOM     10  C   LIG A   1      -7.063   2.548 124.849  0.00  0.00    +0.018 A 
ATOM     11  C   LIG A   1      -7.800   1.679 125.655  0.00  0.00    +0.015 A 
ATOM     12  C   LIG A   1      -8.811   0.885 125.089  0.00  0.00    +0.046 A 
ENDBRANCH   1   2
BRANCH   1  13
ATOM     13  C   LIG A   1      -9.733  -0.912 122.407  0.00  0.00    +0.257 C 
BRANCH  13  14
ATOM     14  C   LIG A   1      -9.268  -2.071 123.245  0.00  0.00    +0.012 C 
ATOM     15  C   LIG A   1      -8.001  -2.487 123.459  0.00  0.00    -0.073 C 
ATOM     16  C   LIG A   1      -6.778  -1.853 122.846  0.00  0.00    +0.038 C 
BRANCH  15  17
ATOM     17  C   LIG A   1      -7.720  -3.656 124.396  0.00  0.00    +0.034 C 
BRANCH  17  18
ATOM     18  C   LIG A   1      -8.512  -3.580 125.711  0.00  0.00    +0.031 C 
BRANCH  18  19
ATOM     19  C   LIG A   1      -8.085  -2.430 126.587  0.00  0.00    -0.028 C 
ATOM     20  C   LIG A   1      -7.959  -2.454 127.930  0.00  0.00    -0.080 C 
ATOM     21  C   LIG A   1      -8.250  -3.644 128.805  0.00  0.00    +0.038 C 
ATOM     22  C   LIG A   1      -7.513  -1.231 128.688  0.00  0.00    +0.038 C 
ENDBRANCH  18  19
ENDBRANCH  17  18
ENDBRANCH  15  17
ENDBRANCH  13  14
ENDBRANCH   1  13
TORSDOF 6
ENDMDL
