MODEL 1
REMARK VINA RESULT:      -8.2      0.000      0.000
REMARK  Name = NuBBE_1366
REMARK  14 active torsions:
REMARK  status: ('A' for Active; 'I' for Inactive)
REMARK    1  A    between atoms: C_4  and  O_5
REMARK    2  A    between atoms: C_6  and  O_7
REMARK    3  A    between atoms: C_9  and  C_10
REMARK    4  A    between atoms: C_11  and  O_12
REMARK    5  A    between atoms: C_16  and  O_18
REMARK    6  A    between atoms: C_19  and  O_21
REMARK    7  A    between atoms: C_22  and  C_23
REMARK    8  A    between atoms: C_24  and  C_26
REMARK    9  A    between atoms: C_26  and  C_28
REMARK   10  A    between atoms: C_26  and  O_32
REMARK   11  A    between atoms: C_28  and  O_29
REMARK   12  A    between atoms: O_29  and  C_30
REMARK   13  A    between atoms: C_35  and  C_36
REMARK   14  A    between atoms: C_37  and  C_39
REMARK                            x       y       z     vdW  Elec       q    Type
REMARK                         _______ _______ _______ _____ _____    ______ ____
ROOT
ATOM      1  O   LIG A   1      -6.722  -2.561 126.413  0.00  0.00    -0.251 OA
ATOM      2  C   LIG A   1      -6.672  -1.335 126.316  0.00  0.00    +0.311 C 
ATOM      3  C   LIG A   1      -6.731  -0.480 127.555  0.00  0.00    +0.159 C 
ATOM      4  C   LIG A   1      -7.191   0.951 127.300  0.00  0.00    +0.114 C 
ATOM      5  C   LIG A   1      -7.103   1.849 128.587  0.00  0.00    +0.107 C 
ATOM      6  C   LIG A   1      -7.613   3.386 128.154  0.00  0.00    +0.033 C 
ATOM      7  C   LIG A   1      -7.752   4.224 129.490  0.00  0.00    +0.009 C 
ATOM      8  C   LIG A   1      -6.397   4.938 129.737  0.00  0.00    +0.015 C 
ATOM      9  C   LIG A   1      -8.138   2.953 130.171  0.00  0.00    +0.081 C 
ATOM     10  C   LIG A   1      -7.616   3.198 131.645  0.00  0.00    +0.045 C 
ATOM     11  C   LIG A   1      -8.132   1.566 129.665  0.00  0.00    +0.087 C 
ATOM     12  C   LIG A   1      -8.542   0.862 130.981  0.00  0.00    +0.152 C 
ATOM     13  C   LIG A   1      -9.462   1.973 132.017  0.00  0.00    +0.150 C 
ATOM     14  C   LIG A   1      -8.964   3.634 131.990  0.00  0.00    +0.005 C 
ATOM     15  C   LIG A   1      -9.182   4.292 133.336  0.00  0.00    +0.014 C 
ATOM     16  C   LIG A   1      -8.864   4.857 130.652  0.00  0.00    +0.046 C 
ATOM     17  C   LIG A   1      -6.674   3.917 127.066  0.00  0.00    +0.008 C 
ATOM     18  C   LIG A   1      -6.785   3.029 125.818  0.00  0.00    +0.014 C 
ATOM     19  C   LIG A   1      -6.413   1.540 126.075  0.00  0.00    +0.041 C 
ATOM     20  C   LIG A   1      -4.863   1.482 126.270  0.00  0.00    +0.018 C 
ATOM     21  C   LIG A   1      -6.726   0.641 124.834  0.00  0.00    +0.218 C 
ATOM     22  O   LIG A   1      -6.451  -0.757 125.120  0.00  0.00    -0.456 OA
ENDROOT
BRANCH  21  23
ATOM     23  C   LIG A   1      -8.073   0.778 124.151  0.00  0.00    +0.031 A 
ATOM     24  C   LIG A   1      -8.997  -0.216 123.879  0.00  0.00    +0.202 A 
ATOM     25  O   LIG A   1     -10.100   0.279 123.269  0.00  0.00    -0.471 OA
ATOM     26  C   LIG A   1      -9.883   1.603 123.088  0.00  0.00    +0.195 A 
ATOM     27  C   LIG A   1      -8.652   1.960 123.589  0.00  0.00    +0.048 A 
ENDBRANCH  21  23
BRANCH   4  28
ATOM     28  O   LIG A   1      -8.589   0.930 126.953  0.00  0.00    -0.385 OA
ATOM     29  H   LIG A   1      -9.133   1.215 127.711  0.00  0.00    +0.210 HD
ENDBRANCH   4  28
BRANCH   5  30
ATOM     30  O   LIG A   1      -5.802   1.858 129.150  0.00  0.00    -0.385 OA
ATOM     31  H   LIG A   1      -5.593   2.772 129.434  0.00  0.00    +0.210 HD
ENDBRANCH   5  30
BRANCH   9  32
ATOM     32  O   LIG A   1      -9.702   2.978 129.875  0.00  0.00    -0.388 OA
ATOM     33  H   LIG A   1     -10.181   3.422 130.603  0.00  0.00    +0.210 HD
ENDBRANCH   9  32
BRANCH  12  34
ATOM     34  O   LIG A   1      -7.388   0.293 131.591  0.00  0.00    -0.389 OA
ATOM     35  H   LIG A   1      -6.902   1.033 132.004  0.00  0.00    +0.210 HD
ENDBRANCH  12  34
BRANCH  13  36
ATOM     36  O   LIG A   1     -10.854   1.865 131.756  0.00  0.00    -0.389 OA
ATOM     37  H   LIG A   1     -10.926   1.025 131.256  0.00  0.00    +0.210 HD
ENDBRANCH  13  36
BRANCH  16  38
ATOM     38  C   LIG A   1     -10.183   5.492 130.150  0.00  0.00    +0.227 C 
BRANCH  38  39
ATOM     39  C   LIG A   1     -10.024   7.022 130.036  0.00  0.00    +0.336 C 
ATOM     40  O   LIG A   1      -8.954   7.607 130.026  0.00  0.00    -0.248 OA
BRANCH  39  41
ATOM     41  O   LIG A   1     -11.257   7.629 130.016  0.00  0.00    -0.466 OA
ATOM     42  C   LIG A   1     -11.506   8.399 128.841  0.00  0.00    +0.280 C 
ENDBRANCH  39  41
ENDBRANCH  38  39
BRANCH  38  43
ATOM     43  O   LIG A   1     -11.242   5.177 131.043  0.00  0.00    -0.380 OA
ATOM     44  H   LIG A   1     -11.589   4.303 130.786  0.00  0.00    +0.210 HD
ENDBRANCH  38  43
ENDBRANCH  16  38
TORSDOF 10
ENDMDL
MODEL 2
REMARK VINA RESULT:      -8.2      1.884      7.421
REMARK  Name = NuBBE_1366
REMARK  14 active torsions:
REMARK  status: ('A' for Active; 'I' for Inactive)
REMARK    1  A    between atoms: C_4  and  O_5
REMARK    2  A    between atoms: C_6  and  O_7
REMARK    3  A    between atoms: C_9  and  C_10
REMARK    4  A    between atoms: C_11  and  O_12
REMARK    5  A    between atoms: C_16  and  O_18
REMARK    6  A    between atoms: C_19  and  O_21
REMARK    7  A    between atoms: C_22  and  C_23
REMARK    8  A    between atoms: C_24  and  C_26
REMARK    9  A    between atoms: C_26  and  C_28
REMARK   10  A    between atoms: C_26  and  O_32
REMARK   11  A    between atoms: C_28  and  O_29
REMARK   12  A    between atoms: O_29  and  C_30
REMARK   13  A    between atoms: C_35  and  C_36
REMARK   14  A    between atoms: C_37  and  C_39
REMARK                            x       y       z     vdW  Elec       q    Type
REMARK                         _______ _______ _______ _____ _____    ______ ____
ROOT
ATOM      1  O   LIG A   1      -6.582   7.586 130.724  0.00  0.00    -0.251 OA
ATOM      2  C   LIG A   1      -7.219   6.537 130.820  0.00  0.00    +0.311 C 
ATOM      3  C   LIG A   1      -6.658   5.262 130.244  0.00  0.00    +0.159 C 
ATOM      4  C   LIG A   1      -7.710   4.200 129.949  0.00  0.00    +0.114 C 
ATOM      5  C   LIG A   1      -7.077   2.839 129.485  0.00  0.00    +0.107 C 
ATOM      6  C   LIG A   1      -8.339   1.768 129.220  0.00  0.00    +0.033 C 
ATOM      7  C   LIG A   1      -7.724   0.483 128.530  0.00  0.00    +0.009 C 
ATOM      8  C   LIG A   1      -7.349  -0.517 129.655  0.00  0.00    +0.015 C 
ATOM      9  C   LIG A   1      -6.729   1.387 127.881  0.00  0.00    +0.081 C 
ATOM     10  C   LIG A   1      -5.474   0.436 127.724  0.00  0.00    +0.045 C 
ATOM     11  C   LIG A   1      -6.476   2.826 128.092  0.00  0.00    +0.087 C 
ATOM     12  C   LIG A   1      -5.253   2.962 127.153  0.00  0.00    +0.152 C 
ATOM     13  C   LIG A   1      -5.302   1.717 125.888  0.00  0.00    +0.150 C 
ATOM     14  C   LIG A   1      -5.917   0.167 126.362  0.00  0.00    +0.005 C 
ATOM     15  C   LIG A   1      -5.239  -0.948 125.595  0.00  0.00    +0.014 C 
ATOM     16  C   LIG A   1      -7.520  -0.357 127.034  0.00  0.00    +0.046 C 
ATOM     17  C   LIG A   1      -9.099   1.583 130.538  0.00  0.00    +0.008 C 
ATOM     18  C   LIG A   1      -9.715   2.924 130.964  0.00  0.00    +0.014 C 
ATOM     19  C   LIG A   1      -8.667   4.054 131.180  0.00  0.00    +0.041 C 
ATOM     20  C   LIG A   1      -7.896   3.719 132.497  0.00  0.00    +0.018 C 
ATOM     21  C   LIG A   1      -9.350   5.441 131.420  0.00  0.00    +0.218 C 
ATOM     22  O   LIG A   1      -8.359   6.496 131.535  0.00  0.00    -0.456 OA
ENDROOT
BRANCH  21  23
ATOM     23  C   LIG A   1     -10.470   5.875 130.494  0.00  0.00    +0.031 A 
ATOM     24  C   LIG A   1     -11.590   5.157 130.113  0.00  0.00    +0.202 A 
ATOM     25  O   LIG A   1     -12.385   5.872 129.283  0.00  0.00    -0.471 OA
ATOM     26  C   LIG A   1     -11.761   7.054 129.069  0.00  0.00    +0.195 A 
ATOM     27  C   LIG A   1     -10.576   7.103 129.767  0.00  0.00    +0.048 A 
ENDBRANCH  21  23
BRANCH   4  28
ATOM     28  O   LIG A   1      -8.508   4.640 128.832  0.00  0.00    -0.385 OA
ATOM     29  H   LIG A   1      -9.399   4.245 128.871  0.00  0.00    +0.210 HD
ENDBRANCH   4  28
BRANCH   5  30
ATOM     30  O   LIG A   1      -6.138   2.334 130.420  0.00  0.00    -0.385 OA
ATOM     31  H   LIG A   1      -6.330   1.386 130.572  0.00  0.00    +0.210 HD
ENDBRANCH   5  30
BRANCH   9  32
ATOM     32  O   LIG A   1      -7.571   1.797 126.593  0.00  0.00    -0.388 OA
ATOM     33  H   LIG A   1      -7.128   1.483 125.780  0.00  0.00    +0.210 HD
ENDBRANCH   9  32
BRANCH  12  34
ATOM     34  O   LIG A   1      -4.061   2.976 127.931  0.00  0.00    -0.389 OA
ATOM     35  H   LIG A   1      -4.118   3.763 128.507  0.00  0.00    +0.210 HD
ENDBRANCH  12  34
BRANCH  13  36
ATOM     36  O   LIG A   1      -5.988   2.197 124.739  0.00  0.00    -0.389 OA
ATOM     37  H   LIG A   1      -5.264   2.507 124.157  0.00  0.00    +0.210 HD
ENDBRANCH  13  36
BRANCH  16  38
ATOM     38  C   LIG A   1      -8.721  -0.444 126.061  0.00  0.00    +0.227 C 
BRANCH  38  39
ATOM     39  C   LIG A   1      -9.162  -1.912 125.894  0.00  0.00    +0.336 C 
ATOM     40  O   LIG A   1      -8.985  -2.786 126.726  0.00  0.00    -0.248 OA
BRANCH  39  41
ATOM     41  O   LIG A   1      -9.719  -2.105 124.652  0.00  0.00    -0.466 OA
ATOM     42  C   LIG A   1      -9.329  -3.326 124.024  0.00  0.00    +0.280 C 
ENDBRANCH  39  41
ENDBRANCH  38  39
BRANCH  38  43
ATOM     43  O   LIG A   1      -8.362   0.104 124.799  0.00  0.00    -0.380 OA
ATOM     44  H   LIG A   1      -9.170   0.479 124.405  0.00  0.00    +0.210 HD
ENDBRANCH  38  43
ENDBRANCH  16  38
TORSDOF 10
ENDMDL
MODEL 3
REMARK VINA RESULT:      -8.1      2.862      7.281
REMARK  Name = NuBBE_1366
REMARK  14 active torsions:
REMARK  status: ('A' for Active; 'I' for Inactive)
REMARK    1  A    between atoms: C_4  and  O_5
REMARK    2  A    between atoms: C_6  and  O_7
REMARK    3  A    between atoms: C_9  and  C_10
REMARK    4  A    between atoms: C_11  and  O_12
REMARK    5  A    between atoms: C_16  and  O_18
REMARK    6  A    between atoms: C_19  and  O_21
REMARK    7  A    between atoms: C_22  and  C_23
REMARK    8  A    between atoms: C_24  and  C_26
REMARK    9  A    between atoms: C_26  and  C_28
REMARK   10  A    between atoms: C_26  and  O_32
REMARK   11  A    between atoms: C_28  and  O_29
REMARK   12  A    between atoms: O_29  and  C_30
REMARK   13  A    between atoms: C_35  and  C_36
REMARK   14  A    between atoms: C_37  and  C_39
REMARK                            x       y       z     vdW  Elec       q    Type
REMARK                         _______ _______ _______ _____ _____    ______ ____
ROOT
ATOM      1  O   LIG A   1      -3.747   4.556 132.627  0.00  0.00    -0.251 OA
ATOM      2  C   LIG A   1      -4.346   3.609 132.117  0.00  0.00    +0.311 C 
ATOM      3  C   LIG A   1      -4.337   3.432 130.621  0.00  0.00    +0.159 C 
ATOM      4  C   LIG A   1      -5.497   2.598 130.089  0.00  0.00    +0.114 C 
ATOM      5  C   LIG A   1      -5.376   2.315 128.547  0.00  0.00    +0.107 C 
ATOM      6  C   LIG A   1      -6.695   1.378 128.110  0.00  0.00    +0.033 C 
ATOM      7  C   LIG A   1      -6.703   1.293 126.529  0.00  0.00    +0.009 C 
ATOM      8  C   LIG A   1      -5.898   0.030 126.124  0.00  0.00    +0.015 C 
ATOM      9  C   LIG A   1      -6.120   2.667 126.517  0.00  0.00    +0.081 C 
ATOM     10  C   LIG A   1      -5.268   2.652 125.183  0.00  0.00    +0.045 C 
ATOM     11  C   LIG A   1      -5.629   3.499 127.633  0.00  0.00    +0.087 C 
ATOM     12  C   LIG A   1      -5.101   4.686 126.792  0.00  0.00    +0.152 C 
ATOM     13  C   LIG A   1      -5.969   4.784 125.246  0.00  0.00    +0.150 C 
ATOM     14  C   LIG A   1      -6.405   3.274 124.515  0.00  0.00    +0.005 C 
ATOM     15  C   LIG A   1      -6.383   3.370 123.005  0.00  0.00    +0.014 C 
ATOM     16  C   LIG A   1      -7.439   1.894 125.085  0.00  0.00    +0.046 C 
ATOM     17  C   LIG A   1      -6.637   0.066 128.900  0.00  0.00    +0.008 C 
ATOM     18  C   LIG A   1      -6.766   0.368 130.400  0.00  0.00    +0.014 C 
ATOM     19  C   LIG A   1      -5.646   1.298 130.950  0.00  0.00    +0.041 C 
ATOM     20  C   LIG A   1      -4.330   0.456 130.991  0.00  0.00    +0.018 C 
ATOM     21  C   LIG A   1      -5.926   1.734 132.426  0.00  0.00    +0.218 C 
ATOM     22  O   LIG A   1      -4.915   2.667 132.893  0.00  0.00    -0.456 OA
ENDROOT
BRANCH  21  23
ATOM     23  C   LIG A   1      -7.309   2.237 132.792  0.00  0.00    +0.031 A 
ATOM     24  C   LIG A   1      -8.533   1.693 132.444  0.00  0.00    +0.202 A 
ATOM     25  O   LIG A   1      -9.562   2.404 132.964  0.00  0.00    -0.471 OA
ATOM     26  C   LIG A   1      -9.016   3.458 133.615  0.00  0.00    +0.195 A 
ATOM     27  C   LIG A   1      -7.644   3.418 133.525  0.00  0.00    +0.048 A 
ENDBRANCH  21  23
BRANCH   4  28
ATOM     28  O   LIG A   1      -6.714   3.355 130.235  0.00  0.00    -0.385 OA
ATOM     29  H   LIG A   1      -6.789   3.710 131.140  0.00  0.00    +0.210 HD
ENDBRANCH   4  28
BRANCH   5  30
ATOM     30  O   LIG A   1      -4.146   1.696 128.207  0.00  0.00    -0.385 OA
ATOM     31  H   LIG A   1      -4.335   0.795 127.873  0.00  0.00    +0.210 HD
ENDBRANCH   5  30
BRANCH   9  32
ATOM     32  O   LIG A   1      -7.471   3.509 126.578  0.00  0.00    -0.388 OA
ATOM     33  H   LIG A   1      -7.330   4.408 126.219  0.00  0.00    +0.210 HD
ENDBRANCH   9  32
BRANCH  12  34
ATOM     34  O   LIG A   1      -3.685   4.590 126.677  0.00  0.00    -0.389 OA
ATOM     35  H   LIG A   1      -3.318   4.932 127.514  0.00  0.00    +0.210 HD
ENDBRANCH  12  34
BRANCH  13  36
ATOM     36  O   LIG A   1      -7.107   5.629 125.363  0.00  0.00    -0.389 OA
ATOM     37  H   LIG A   1      -7.204   5.744 126.331  0.00  0.00    +0.210 HD
ENDBRANCH  13  36
BRANCH  16  38
ATOM     38  C   LIG A   1      -8.975   2.079 125.055  0.00  0.00    +0.227 C 
BRANCH  38  39
ATOM     39  C   LIG A   1      -9.606   1.107 124.037  0.00  0.00    +0.336 C 
ATOM     40  O   LIG A   1     -10.805   0.972 123.862  0.00  0.00    -0.248 OA
BRANCH  39  41
ATOM     41  O   LIG A   1      -8.628   0.374 123.408  0.00  0.00    -0.466 OA
ATOM     42  C   LIG A   1      -8.963  -1.001 123.222  0.00  0.00    +0.280 C 
ENDBRANCH  39  41
ENDBRANCH  38  39
BRANCH  38  43
ATOM     43  O   LIG A   1      -9.294   3.421 124.712  0.00  0.00    -0.380 OA
ATOM     44  H   LIG A   1      -9.801   3.798 125.455  0.00  0.00    +0.210 HD
ENDBRANCH  38  43
ENDBRANCH  16  38
TORSDOF 10
ENDMDL
MODEL 4
REMARK VINA RESULT:      -8.0      1.923      7.532
REMARK  Name = NuBBE_1366
REMARK  14 active torsions:
REMARK  status: ('A' for Active; 'I' for Inactive)
REMARK    1  A    between atoms: C_4  and  O_5
REMARK    2  A    between atoms: C_6  and  O_7
REMARK    3  A    between atoms: C_9  and  C_10
REMARK    4  A    between atoms: C_11  and  O_12
REMARK    5  A    between atoms: C_16  and  O_18
REMARK    6  A    between atoms: C_19  and  O_21
REMARK    7  A    between atoms: C_22  and  C_23
REMARK    8  A    between atoms: C_24  and  C_26
REMARK    9  A    between atoms: C_26  and  C_28
REMARK   10  A    between atoms: C_26  and  O_32
REMARK   11  A    between atoms: C_28  and  O_29
REMARK   12  A    between atoms: O_29  and  C_30
REMARK   13  A    between atoms: C_35  and  C_36
REMARK   14  A    between atoms: C_37  and  C_39
REMARK                            x       y       z     vdW  Elec       q    Type
REMARK                         _______ _______ _______ _____ _____    ______ ____
ROOT
ATOM      1  O   LIG A   1      -5.673   7.228 130.959  0.00  0.00    -0.251 OA
ATOM      2  C   LIG A   1      -6.416   6.254 130.832  0.00  0.00    +0.311 C 
ATOM      3  C   LIG A   1      -6.142   5.235 129.756  0.00  0.00    +0.159 C 
ATOM      4  C   LIG A   1      -7.362   4.415 129.355  0.00  0.00    +0.114 C 
ATOM      5  C   LIG A   1      -7.009   3.270 128.337  0.00  0.00    +0.107 C 
ATOM      6  C   LIG A   1      -8.429   2.443 128.007  0.00  0.00    +0.033 C 
ATOM      7  C   LIG A   1      -8.124   1.451 126.811  0.00  0.00    +0.009 C 
ATOM      8  C   LIG A   1      -7.690   0.096 127.429  0.00  0.00    +0.015 C 
ATOM      9  C   LIG A   1      -7.150   2.464 126.305  0.00  0.00    +0.081 C 
ATOM     10  C   LIG A   1      -6.081   1.554 125.574  0.00  0.00    +0.045 C 
ATOM     11  C   LIG A   1      -6.674   3.715 126.926  0.00  0.00    +0.087 C 
ATOM     12  C   LIG A   1      -5.632   4.099 125.849  0.00  0.00    +0.152 C 
ATOM     13  C   LIG A   1      -6.072   3.391 124.281  0.00  0.00    +0.150 C 
ATOM     14  C   LIG A   1      -6.793   1.814 124.329  0.00  0.00    +0.005 C 
ATOM     15  C   LIG A   1      -6.418   1.004 123.106  0.00  0.00    +0.014 C 
ATOM     16  C   LIG A   1      -8.305   1.186 125.113  0.00  0.00    +0.046 C 
ATOM     17  C   LIG A   1      -8.958   1.850 129.317  0.00  0.00    +0.008 C 
ATOM     18  C   LIG A   1      -9.304   2.988 130.289  0.00  0.00    +0.014 C 
ATOM     19  C   LIG A   1      -8.094   3.901 130.641  0.00  0.00    +0.041 C 
ATOM     20  C   LIG A   1      -7.150   3.073 131.572  0.00  0.00    +0.018 C 
ATOM     21  C   LIG A   1      -8.532   5.151 131.472  0.00  0.00    +0.218 C 
ATOM     22  O   LIG A   1      -7.405   6.033 131.719  0.00  0.00    -0.456 OA
ENDROOT
BRANCH  21  23
ATOM     23  C   LIG A   1      -9.732   5.955 131.008  0.00  0.00    +0.031 A 
ATOM     24  C   LIG A   1     -11.073   5.649 131.158  0.00  0.00    +0.202 A 
ATOM     25  O   LIG A   1     -11.868   6.610 130.630  0.00  0.00    -0.471 OA
ATOM     26  C   LIG A   1     -11.046   7.534 130.078  0.00  0.00    +0.195 A 
ATOM     27  C   LIG A   1      -9.730   7.175 130.260  0.00  0.00    +0.048 A 
ENDBRANCH  21  23
BRANCH   4  28
ATOM     28  O   LIG A   1      -8.281   5.270 128.649  0.00  0.00    -0.385 OA
ATOM     29  H   LIG A   1      -9.040   4.756 128.316  0.00  0.00    +0.210 HD
ENDBRANCH   4  28
BRANCH   5  30
ATOM     30  O   LIG A   1      -5.993   2.409 128.826  0.00  0.00    -0.385 OA
ATOM     31  H   LIG A   1      -5.666   2.767 129.677  0.00  0.00    +0.210 HD
ENDBRANCH   5  30
BRANCH   9  32
ATOM     32  O   LIG A   1      -8.147   3.356 125.441  0.00  0.00    -0.388 OA
ATOM     33  H   LIG A   1      -8.485   2.848 124.677  0.00  0.00    +0.210 HD
ENDBRANCH   9  32
BRANCH  12  34
ATOM     34  O   LIG A   1      -4.329   3.763 126.312  0.00  0.00    -0.389 OA
ATOM     35  H   LIG A   1      -4.313   2.792 126.408  0.00  0.00    +0.210 HD
ENDBRANCH  12  34
BRANCH  13  36
ATOM     36  O   LIG A   1      -6.883   4.288 123.535  0.00  0.00    -0.389 OA
ATOM     37  H   LIG A   1      -6.464   5.159 123.696  0.00  0.00    +0.210 HD
ENDBRANCH  13  36
BRANCH  16  38
ATOM     38  C   LIG A   1      -9.661   1.525 124.449  0.00  0.00    +0.227 C 
BRANCH  38  39
ATOM     39  C   LIG A   1     -10.118   0.356 123.552  0.00  0.00    +0.336 C 
ATOM     40  O   LIG A   1     -10.928   0.457 122.646  0.00  0.00    -0.248 OA
BRANCH  39  41
ATOM     41  O   LIG A   1      -9.536  -0.818 123.965  0.00  0.00    -0.466 OA
ATOM     42  C   LIG A   1      -9.075  -1.644 122.896  0.00  0.00    +0.280 C 
ENDBRANCH  39  41
ENDBRANCH  38  39
BRANCH  38  43
ATOM     43  O   LIG A   1      -9.539   2.713 123.677  0.00  0.00    -0.380 OA
ATOM     44  H   LIG A   1     -10.439   3.045 123.510  0.00  0.00    +0.210 HD
ENDBRANCH  38  43
ENDBRANCH  16  38
TORSDOF 10
ENDMDL
MODEL 5
REMARK VINA RESULT:      -7.9      2.089      2.874
REMARK  Name = NuBBE_1366
REMARK  14 active torsions:
REMARK  status: ('A' for Active; 'I' for Inactive)
REMARK    1  A    between atoms: C_4  and  O_5
REMARK    2  A    between atoms: C_6  and  O_7
REMARK    3  A    between atoms: C_9  and  C_10
REMARK    4  A    between atoms: C_11  and  O_12
REMARK    5  A    between atoms: C_16  and  O_18
REMARK    6  A    between atoms: C_19  and  O_21
REMARK    7  A    between atoms: C_22  and  C_23
REMARK    8  A    between atoms: C_24  and  C_26
REMARK    9  A    between atoms: C_26  and  C_28
REMARK   10  A    between atoms: C_26  and  O_32
REMARK   11  A    between atoms: C_28  and  O_29
REMARK   12  A    between atoms: O_29  and  C_30
REMARK   13  A    between atoms: C_35  and  C_36
REMARK   14  A    between atoms: C_37  and  C_39
REMARK                            x       y       z     vdW  Elec       q    Type
REMARK                         _______ _______ _______ _____ _____    ______ ____
ROOT
ATOM      1  O   LIG A   1      -8.975  -3.875 127.609  0.00  0.00    -0.251 OA
ATOM      2  C   LIG A   1      -8.137  -2.973 127.600  0.00  0.00    +0.311 C 
ATOM      3  C   LIG A   1      -7.953  -2.106 128.818  0.00  0.00    +0.159 C 
ATOM      4  C   LIG A   1      -7.319  -0.751 128.524  0.00  0.00    +0.114 C 
ATOM      5  C   LIG A   1      -7.013   0.066 129.831  0.00  0.00    +0.107 C 
ATOM      6  C   LIG A   1      -6.303   1.509 129.360  0.00  0.00    +0.033 C 
ATOM      7  C   LIG A   1      -6.213   2.427 130.647  0.00  0.00    +0.009 C 
ATOM      8  C   LIG A   1      -4.832   2.171 131.307  0.00  0.00    +0.015 C 
ATOM      9  C   LIG A   1      -7.472   1.778 131.118  0.00  0.00    +0.081 C 
ATOM     10  C   LIG A   1      -7.309   1.848 132.691  0.00  0.00    +0.045 C 
ATOM     11  C   LIG A   1      -8.218   0.634 130.557  0.00  0.00    +0.087 C 
ATOM     12  C   LIG A   1      -9.296   0.527 131.662  0.00  0.00    +0.152 C 
ATOM     13  C   LIG A   1      -9.529   2.098 132.456  0.00  0.00    +0.150 C 
ATOM     14  C   LIG A   1      -8.107   3.068 132.665  0.00  0.00    +0.005 C 
ATOM     15  C   LIG A   1      -8.190   3.896 133.929  0.00  0.00    +0.014 C 
ATOM     16  C   LIG A   1      -6.920   3.765 131.481  0.00  0.00    +0.046 C 
ATOM     17  C   LIG A   1      -5.004   1.187 128.614  0.00  0.00    +0.008 C 
ATOM     18  C   LIG A   1      -5.332   0.398 127.337  0.00  0.00    +0.014 C 
ATOM     19  C   LIG A   1      -6.067  -0.947 127.604  0.00  0.00    +0.041 C 
ATOM     20  C   LIG A   1      -5.019  -1.927 128.226  0.00  0.00    +0.018 C 
ATOM     21  C   LIG A   1      -6.551  -1.618 126.277  0.00  0.00    +0.218 C 
ATOM     22  O   LIG A   1      -7.307  -2.828 126.550  0.00  0.00    -0.456 OA
ENDROOT
BRANCH  21  23
ATOM     23  C   LIG A   1      -7.277  -0.770 125.250  0.00  0.00    +0.031 A 
ATOM     24  C   LIG A   1      -8.539  -0.969 124.718  0.00  0.00    +0.202 A 
ATOM     25  O   LIG A   1      -8.868   0.003 123.834  0.00  0.00    -0.471 OA
ATOM     26  C   LIG A   1      -7.794   0.821 123.739  0.00  0.00    +0.195 A 
ATOM     27  C   LIG A   1      -6.785   0.386 124.566  0.00  0.00    +0.048 A 
ENDBRANCH  21  23
BRANCH   4  28
ATOM     28  O   LIG A   1      -8.268   0.053 127.796  0.00  0.00    -0.385 OA
ATOM     29  H   LIG A   1      -7.896   0.327 126.937  0.00  0.00    +0.210 HD
ENDBRANCH   4  28
BRANCH   5  30
ATOM     30  O   LIG A   1      -6.198  -0.656 130.740  0.00  0.00    -0.385 OA
ATOM     31  H   LIG A   1      -6.440  -0.393 131.651  0.00  0.00    +0.210 HD
ENDBRANCH   5  30
BRANCH   9  32
ATOM     32  O   LIG A   1      -8.526   2.728 130.394  0.00  0.00    -0.388 OA
ATOM     33  H   LIG A   1      -9.438   2.476 130.640  0.00  0.00    +0.210 HD
ENDBRANCH   9  32
BRANCH  12  34
ATOM     34  O   LIG A   1      -8.967  -0.544 132.540  0.00  0.00    -0.389 OA
ATOM     35  H   LIG A   1      -9.814  -0.947 132.812  0.00  0.00    +0.210 HD
ENDBRANCH  12  34
BRANCH  13  36
ATOM     36  O   LIG A   1     -10.549   2.842 131.806  0.00  0.00    -0.389 OA
ATOM     37  H   LIG A   1     -10.383   2.672 130.855  0.00  0.00    +0.210 HD
ENDBRANCH  13  36
BRANCH  16  38
ATOM     38  C   LIG A   1      -7.355   5.005 130.663  0.00  0.00    +0.227 C 
BRANCH  38  39
ATOM     39  C   LIG A   1      -6.414   6.191 130.957  0.00  0.00    +0.336 C 
ATOM     40  O   LIG A   1      -6.688   7.360 130.740  0.00  0.00    -0.248 OA
BRANCH  39  41
ATOM     41  O   LIG A   1      -5.207   5.737 131.430  0.00  0.00    -0.466 OA
ATOM     42  C   LIG A   1      -4.108   5.989 130.555  0.00  0.00    +0.280 C 
ENDBRANCH  39  41
ENDBRANCH  38  39
BRANCH  38  43
ATOM     43  O   LIG A   1      -8.695   5.352 130.987  0.00  0.00    -0.380 OA
ATOM     44  H   LIG A   1      -8.689   6.276 131.296  0.00  0.00    +0.210 HD
ENDBRANCH  38  43
ENDBRANCH  16  38
TORSDOF 10
ENDMDL
MODEL 6
REMARK VINA RESULT:      -7.8      2.437      7.644
REMARK  Name = NuBBE_1366
REMARK  14 active torsions:
REMARK  status: ('A' for Active; 'I' for Inactive)
REMARK    1  A    between atoms: C_4  and  O_5
REMARK    2  A    between atoms: C_6  and  O_7
REMARK    3  A    between atoms: C_9  and  C_10
REMARK    4  A    between atoms: C_11  and  O_12
REMARK    5  A    between atoms: C_16  and  O_18
REMARK    6  A    between atoms: C_19  and  O_21
REMARK    7  A    between atoms: C_22  and  C_23
REMARK    8  A    between atoms: C_24  and  C_26
REMARK    9  A    between atoms: C_26  and  C_28
REMARK   10  A    between atoms: C_26  and  O_32
REMARK   11  A    between atoms: C_28  and  O_29
REMARK   12  A    between atoms: O_29  and  C_30
REMARK   13  A    between atoms: C_35  and  C_36
REMARK   14  A    between atoms: C_37  and  C_39
REMARK                            x       y       z     vdW  Elec       q    Type
REMARK                         _______ _______ _______ _____ _____    ______ ____
ROOT
ATOM      1  O   LIG A   1      -5.689   7.209 130.580  0.00  0.00    -0.251 OA
ATOM      2  C   LIG A   1      -5.693   5.979 130.628  0.00  0.00    +0.311 C 
ATOM      3  C   LIG A   1      -5.668   5.177 129.353  0.00  0.00    +0.159 C 
ATOM      4  C   LIG A   1      -6.202   3.757 129.503  0.00  0.00    +0.114 C 
ATOM      5  C   LIG A   1      -6.029   2.908 128.192  0.00  0.00    +0.107 C 
ATOM      6  C   LIG A   1      -6.633   1.377 128.509  0.00  0.00    +0.033 C 
ATOM      7  C   LIG A   1      -6.678   0.599 127.131  0.00  0.00    +0.009 C 
ATOM      8  C   LIG A   1      -5.333  -0.160 126.979  0.00  0.00    +0.015 C 
ATOM      9  C   LIG A   1      -6.951   1.911 126.473  0.00  0.00    +0.081 C 
ATOM     10  C   LIG A   1      -6.304   1.703 125.043  0.00  0.00    +0.045 C 
ATOM     11  C   LIG A   1      -6.941   3.275 127.037  0.00  0.00    +0.087 C 
ATOM     12  C   LIG A   1      -7.200   4.047 125.720  0.00  0.00    +0.152 C 
ATOM     13  C   LIG A   1      -8.060   3.016 124.558  0.00  0.00    +0.150 C 
ATOM     14  C   LIG A   1      -7.629   1.337 124.558  0.00  0.00    +0.005 C 
ATOM     15  C   LIG A   1      -7.745   0.742 123.171  0.00  0.00    +0.014 C 
ATOM     16  C   LIG A   1      -7.700   0.058 125.846  0.00  0.00    +0.046 C 
ATOM     17  C   LIG A   1      -5.820   0.765 129.654  0.00  0.00    +0.008 C 
ATOM     18  C   LIG A   1      -6.014   1.607 130.924  0.00  0.00    +0.014 C 
ATOM     19  C   LIG A   1      -5.565   3.088 130.767  0.00  0.00    +0.041 C 
ATOM     20  C   LIG A   1      -4.002   3.091 130.718  0.00  0.00    +0.018 C 
ATOM     21  C   LIG A   1      -5.959   3.950 132.012  0.00  0.00    +0.218 C 
ATOM     22  O   LIG A   1      -5.606   5.345 131.813  0.00  0.00    -0.456 OA
ENDROOT
BRANCH  21  23
ATOM     23  C   LIG A   1      -7.368   3.841 132.562  0.00  0.00    +0.031 A 
ATOM     24  C   LIG A   1      -8.246   4.866 132.868  0.00  0.00    +0.202 A 
ATOM     25  O   LIG A   1      -9.429   4.392 133.325  0.00  0.00    -0.471 OA
ATOM     26  C   LIG A   1      -9.315   3.044 133.374  0.00  0.00    +0.195 A 
ATOM     27  C   LIG A   1      -8.070   2.652 132.939  0.00  0.00    +0.048 A 
ENDBRANCH  21  23
BRANCH   4  28
ATOM     28  O   LIG A   1      -7.625   3.821 129.720  0.00  0.00    -0.385 OA
ATOM     29  H   LIG A   1      -8.021   2.932 129.658  0.00  0.00    +0.210 HD
ENDBRANCH   4  28
BRANCH   5  30
ATOM     30  O   LIG A   1      -4.682   2.867 127.750  0.00  0.00    -0.385 OA
ATOM     31  H   LIG A   1      -4.484   1.959 127.442  0.00  0.00    +0.210 HD
ENDBRANCH   5  30
BRANCH   9  32
ATOM     32  O   LIG A   1      -8.537   1.938 126.623  0.00  0.00    -0.388 OA
ATOM     33  H   LIG A   1      -8.964   1.663 125.788  0.00  0.00    +0.210 HD
ENDBRANCH   9  32
BRANCH  12  34
ATOM     34  O   LIG A   1      -5.975   4.592 125.244  0.00  0.00    -0.389 OA
ATOM     35  H   LIG A   1      -5.264   4.029 125.606  0.00  0.00    +0.210 HD
ENDBRANCH  12  34
BRANCH  13  36
ATOM     36  O   LIG A   1      -9.466   3.171 124.695  0.00  0.00    -0.389 OA
ATOM     37  H   LIG A   1      -9.552   3.961 125.268  0.00  0.00    +0.210 HD
ENDBRANCH  13  36
BRANCH  16  38
ATOM     38  C   LIG A   1      -9.082  -0.541 126.197  0.00  0.00    +0.227 C 
BRANCH  38  39
ATOM     39  C   LIG A   1      -9.091  -2.057 125.910  0.00  0.00    +0.336 C 
ATOM     40  O   LIG A   1      -8.500  -2.889 126.577  0.00  0.00    -0.248 OA
BRANCH  39  41
ATOM     41  O   LIG A   1      -9.799  -2.321 124.763  0.00  0.00    -0.466 OA
ATOM     42  C   LIG A   1      -9.154  -3.240 123.881  0.00  0.00    +0.280 C 
ENDBRANCH  39  41
ENDBRANCH  38  39
BRANCH  38  43
ATOM     43  O   LIG A   1     -10.097   0.104 125.439  0.00  0.00    -0.380 OA
ATOM     44  H   LIG A   1     -10.770  -0.566 125.225  0.00  0.00    +0.210 HD
ENDBRANCH  38  43
ENDBRANCH  16  38
TORSDOF 10
ENDMDL
MODEL 7
REMARK VINA RESULT:      -7.8      2.557      7.177
REMARK  Name = NuBBE_1366
REMARK  14 active torsions:
REMARK  status: ('A' for Active; 'I' for Inactive)
REMARK    1  A    between atoms: C_4  and  O_5
REMARK    2  A    between atoms: C_6  and  O_7
REMARK    3  A    between atoms: C_9  and  C_10
REMARK    4  A    between atoms: C_11  and  O_12
REMARK    5  A    between atoms: C_16  and  O_18
REMARK    6  A    between atoms: C_19  and  O_21
REMARK    7  A    between atoms: C_22  and  C_23
REMARK    8  A    between atoms: C_24  and  C_26
REMARK    9  A    between atoms: C_26  and  C_28
REMARK   10  A    between atoms: C_26  and  O_32
REMARK   11  A    between atoms: C_28  and  O_29
REMARK   12  A    between atoms: O_29  and  C_30
REMARK   13  A    between atoms: C_35  and  C_36
REMARK   14  A    between atoms: C_37  and  C_39
REMARK                            x       y       z     vdW  Elec       q    Type
REMARK                         _______ _______ _______ _____ _____    ______ ____
ROOT
ATOM      1  O   LIG A   1      -7.648   5.726 134.510  0.00  0.00    -0.251 OA
ATOM      2  C   LIG A   1      -7.947   4.995 133.566  0.00  0.00    +0.311 C 
ATOM      3  C   LIG A   1      -6.873   4.491 132.636  0.00  0.00    +0.159 C 
ATOM      4  C   LIG A   1      -7.388   4.072 131.264  0.00  0.00    +0.114 C 
ATOM      5  C   LIG A   1      -6.268   3.421 130.374  0.00  0.00    +0.107 C 
ATOM      6  C   LIG A   1      -6.977   2.992 128.918  0.00  0.00    +0.033 C 
ATOM      7  C   LIG A   1      -5.809   2.559 127.940  0.00  0.00    +0.009 C 
ATOM      8  C   LIG A   1      -5.618   1.027 128.092  0.00  0.00    +0.015 C 
ATOM      9  C   LIG A   1      -4.945   3.559 128.633  0.00  0.00    +0.081 C 
ATOM     10  C   LIG A   1      -3.509   2.912 128.485  0.00  0.00    +0.045 C 
ATOM     11  C   LIG A   1      -5.211   4.368 129.839  0.00  0.00    +0.087 C 
ATOM     12  C   LIG A   1      -3.817   5.033 129.955  0.00  0.00    +0.152 C 
ATOM     13  C   LIG A   1      -3.031   5.103 128.365  0.00  0.00    +0.150 C 
ATOM     14  C   LIG A   1      -3.311   3.754 127.312  0.00  0.00    +0.005 C 
ATOM     15  C   LIG A   1      -2.107   3.487 126.433  0.00  0.00    +0.014 C 
ATOM     16  C   LIG A   1      -4.828   3.051 126.605  0.00  0.00    +0.046 C 
ATOM     17  C   LIG A   1      -8.090   1.978 129.203  0.00  0.00    +0.008 C 
ATOM     18  C   LIG A   1      -9.175   2.641 130.065  0.00  0.00    +0.014 C 
ATOM     19  C   LIG A   1      -8.654   3.165 131.434  0.00  0.00    +0.041 C 
ATOM     20  C   LIG A   1      -8.374   1.914 132.328  0.00  0.00    +0.018 C 
ATOM     21  C   LIG A   1      -9.741   4.000 132.188  0.00  0.00    +0.218 C 
ATOM     22  O   LIG A   1      -9.210   4.550 133.423  0.00  0.00    -0.456 OA
ENDROOT
BRANCH  21  23
ATOM     23  C   LIG A   1     -10.504   5.066 131.427  0.00  0.00    +0.031 A 
ATOM     24  C   LIG A   1     -10.651   6.404 131.750  0.00  0.00    +0.202 A 
ATOM     25  O   LIG A   1     -11.390   7.064 130.827  0.00  0.00    -0.471 OA
ATOM     26  C   LIG A   1     -11.782   6.144 129.914  0.00  0.00    +0.195 A 
ATOM     27  C   LIG A   1     -11.287   4.902 130.241  0.00  0.00    +0.048 A 
ENDBRANCH  21  23
BRANCH   4  28
ATOM     28  O   LIG A   1      -7.797   5.252 130.545  0.00  0.00    -0.385 OA
ATOM     29  H   LIG A   1      -8.547   5.684 130.994  0.00  0.00    +0.210 HD
ENDBRANCH   4  28
BRANCH   5  30
ATOM     30  O   LIG A   1      -5.649   2.315 131.011  0.00  0.00    -0.385 OA
ATOM     31  H   LIG A   1      -6.338   1.653 131.221  0.00  0.00    +0.210 HD
ENDBRANCH   5  30
BRANCH   9  32
ATOM     32  O   LIG A   1      -5.320   4.847 127.775  0.00  0.00    -0.388 OA
ATOM     33  H   LIG A   1      -4.631   5.023 127.104  0.00  0.00    +0.210 HD
ENDBRANCH   9  32
BRANCH  12  34
ATOM     34  O   LIG A   1      -3.063   4.374 130.966  0.00  0.00    -0.389 OA
ATOM     35  H   LIG A   1      -2.442   3.780 130.503  0.00  0.00    +0.210 HD
ENDBRANCH  12  34
BRANCH  13  36
ATOM     36  O   LIG A   1      -3.341   6.323 127.705  0.00  0.00    -0.389 OA
ATOM     37  H   LIG A   1      -4.072   6.075 127.102  0.00  0.00    +0.210 HD
ENDBRANCH  13  36
BRANCH  16  38
ATOM     38  C   LIG A   1      -5.496   3.802 125.429  0.00  0.00    +0.227 C 
BRANCH  38  39
ATOM     39  C   LIG A   1      -6.632   2.947 124.830  0.00  0.00    +0.336 C 
ATOM     40  O   LIG A   1      -6.536   1.761 124.561  0.00  0.00    -0.248 OA
BRANCH  39  41
ATOM     41  O   LIG A   1      -7.737   3.726 124.583  0.00  0.00    -0.466 OA
ATOM     42  C   LIG A   1      -8.061   4.625 125.644  0.00  0.00    +0.280 C 
ENDBRANCH  39  41
ENDBRANCH  38  39
BRANCH  38  43
ATOM     43  O   LIG A   1      -4.528   4.095 124.430  0.00  0.00    -0.380 OA
ATOM     44  H   LIG A   1      -3.740   3.555 124.621  0.00  0.00    +0.210 HD
ENDBRANCH  38  43
ENDBRANCH  16  38
TORSDOF 10
ENDMDL
MODEL 8
REMARK VINA RESULT:      -7.7      3.091      7.685
REMARK  Name = NuBBE_1366
REMARK  14 active torsions:
REMARK  status: ('A' for Active; 'I' for Inactive)
REMARK    1  A    between atoms: C_4  and  O_5
REMARK    2  A    between atoms: C_6  and  O_7
REMARK    3  A    between atoms: C_9  and  C_10
REMARK    4  A    between atoms: C_11  and  O_12
REMARK    5  A    between atoms: C_16  and  O_18
REMARK    6  A    between atoms: C_19  and  O_21
REMARK    7  A    between atoms: C_22  and  C_23
REMARK    8  A    between atoms: C_24  and  C_26
REMARK    9  A    between atoms: C_26  and  C_28
REMARK   10  A    between atoms: C_26  and  O_32
REMARK   11  A    between atoms: C_28  and  O_29
REMARK   12  A    between atoms: O_29  and  C_30
REMARK   13  A    between atoms: C_35  and  C_36
REMARK   14  A    between atoms: C_37  and  C_39
REMARK                            x       y       z     vdW  Elec       q    Type
REMARK                         _______ _______ _______ _____ _____    ______ ____
ROOT
ATOM      1  O   LIG A   1      -4.160   7.248 128.429  0.00  0.00    -0.251 OA
ATOM      2  C   LIG A   1      -4.180   6.028 128.594  0.00  0.00    +0.311 C 
ATOM      3  C   LIG A   1      -4.609   5.125 127.468  0.00  0.00    +0.159 C 
ATOM      4  C   LIG A   1      -5.099   3.755 127.924  0.00  0.00    +0.114 C 
ATOM      5  C   LIG A   1      -5.402   2.793 126.718  0.00  0.00    +0.107 C 
ATOM      6  C   LIG A   1      -5.904   1.331 127.365  0.00  0.00    +0.033 C 
ATOM      7  C   LIG A   1      -6.433   0.446 126.162  0.00  0.00    +0.009 C 
ATOM      8  C   LIG A   1      -5.240  -0.398 125.643  0.00  0.00    +0.015 C 
ATOM      9  C   LIG A   1      -6.878   1.714 125.511  0.00  0.00    +0.081 C 
ATOM     10  C   LIG A   1      -6.758   1.353 123.975  0.00  0.00    +0.045 C 
ATOM     11  C   LIG A   1      -6.641   3.117 125.906  0.00  0.00    +0.087 C 
ATOM     12  C   LIG A   1      -7.310   3.792 124.684  0.00  0.00    +0.152 C 
ATOM     13  C   LIG A   1      -8.540   2.721 123.981  0.00  0.00    +0.150 C 
ATOM     14  C   LIG A   1      -8.179   1.025 123.998  0.00  0.00    +0.005 C 
ATOM     15  C   LIG A   1      -8.773   0.327 122.794  0.00  0.00    +0.014 C 
ATOM     16  C   LIG A   1      -7.843  -0.138 125.352  0.00  0.00    +0.046 C 
ATOM     17  C   LIG A   1      -4.767   0.768 128.225  0.00  0.00    +0.008 C 
ATOM     18  C   LIG A   1      -4.498   1.721 129.399  0.00  0.00    +0.014 C 
ATOM     19  C   LIG A   1      -4.089   3.156 128.960  0.00  0.00    +0.041 C 
ATOM     20  C   LIG A   1      -2.636   3.065 128.391  0.00  0.00    +0.018 C 
ATOM     21  C   LIG A   1      -4.015   4.137 130.176  0.00  0.00    +0.218 C 
ATOM     22  O   LIG A   1      -3.715   5.489 129.737  0.00  0.00    -0.456 OA
ENDROOT
BRANCH  21  23
ATOM     23  C   LIG A   1      -5.158   4.155 131.173  0.00  0.00    +0.031 A 
ATOM     24  C   LIG A   1      -5.907   5.240 131.593  0.00  0.00    +0.202 A 
ATOM     25  O   LIG A   1      -6.858   4.876 132.485  0.00  0.00    -0.471 OA
ATOM     26  C   LIG A   1      -6.704   3.548 132.698  0.00  0.00    +0.195 A 
ATOM     27  C   LIG A   1      -5.666   3.058 131.939  0.00  0.00    +0.048 A 
ENDBRANCH  21  23
BRANCH   4  28
ATOM     28  O   LIG A   1      -6.362   3.918 128.597  0.00  0.00    -0.385 OA
ATOM     29  H   LIG A   1      -6.241   4.391 129.442  0.00  0.00    +0.210 HD
ENDBRANCH   4  28
BRANCH   5  30
ATOM     30  O   LIG A   1      -4.286   2.640 125.857  0.00  0.00    -0.385 OA
ATOM     31  H   LIG A   1      -4.614   2.514 124.943  0.00  0.00    +0.210 HD
ENDBRANCH   5  30
BRANCH   9  32
ATOM     32  O   LIG A   1      -8.317   1.844 126.180  0.00  0.00    -0.388 OA
ATOM     33  H   LIG A   1      -8.927   1.175 125.811  0.00  0.00    +0.210 HD
ENDBRANCH   9  32
BRANCH  12  34
ATOM     34  O   LIG A   1      -6.304   4.225 123.775  0.00  0.00    -0.389 OA
ATOM     35  H   LIG A   1      -6.661   5.015 123.326  0.00  0.00    +0.210 HD
ENDBRANCH  12  34
BRANCH  13  36
ATOM     36  O   LIG A   1      -9.812   2.967 124.565  0.00  0.00    -0.389 OA
ATOM     37  H   LIG A   1     -10.128   3.763 124.090  0.00  0.00    +0.210 HD
ENDBRANCH  13  36
BRANCH  16  38
ATOM     38  C   LIG A   1      -9.040  -0.626 126.201  0.00  0.00    +0.227 C 
BRANCH  38  39
ATOM     39  C   LIG A   1      -9.175  -2.159 126.094  0.00  0.00    +0.336 C 
ATOM     40  O   LIG A   1      -8.768  -2.949 126.930  0.00  0.00    -0.248 OA
BRANCH  39  41
ATOM     41  O   LIG A   1      -9.756  -2.505 124.898  0.00  0.00    -0.466 OA
ATOM     42  C   LIG A   1      -8.999  -3.445 124.135  0.00  0.00    +0.280 C 
ENDBRANCH  39  41
ENDBRANCH  38  39
BRANCH  38  43
ATOM     43  O   LIG A   1     -10.236   0.001 125.758  0.00  0.00    -0.380 OA
ATOM     44  H   LIG A   1     -10.968  -0.356 126.294  0.00  0.00    +0.210 HD
ENDBRANCH  38  43
ENDBRANCH  16  38
TORSDOF 10
ENDMDL
MODEL 9
REMARK VINA RESULT:      -7.6      2.130      3.001
REMARK  Name = NuBBE_1366
REMARK  14 active torsions:
REMARK  status: ('A' for Active; 'I' for Inactive)
REMARK    1  A    between atoms: C_4  and  O_5
REMARK    2  A    between atoms: C_6  and  O_7
REMARK    3  A    between atoms: C_9  and  C_10
REMARK    4  A    between atoms: C_11  and  O_12
REMARK    5  A    between atoms: C_16  and  O_18
REMARK    6  A    between atoms: C_19  and  O_21
REMARK    7  A    between atoms: C_22  and  C_23
REMARK    8  A    between atoms: C_24  and  C_26
REMARK    9  A    between atoms: C_26  and  C_28
REMARK   10  A    between atoms: C_26  and  O_32
REMARK   11  A    between atoms: C_28  and  O_29
REMARK   12  A    between atoms: O_29  and  C_30
REMARK   13  A    between atoms: C_35  and  C_36
REMARK   14  A    between atoms: C_37  and  C_39
REMARK                            x       y       z     vdW  Elec       q    Type
REMARK                         _______ _______ _______ _____ _____    ______ ____
ROOT
ATOM      1  O   LIG A   1      -4.020  -2.958 129.144  0.00  0.00    -0.251 OA
ATOM      2  C   LIG A   1      -4.769  -2.194 128.535  0.00  0.00    +0.311 C 
ATOM      3  C   LIG A   1      -4.999  -0.797 129.051  0.00  0.00    +0.159 C 
ATOM      4  C   LIG A   1      -6.294  -0.160 128.560  0.00  0.00    +0.114 C 
ATOM      5  C   LIG A   1      -6.430   1.343 129.001  0.00  0.00    +0.107 C 
ATOM      6  C   LIG A   1      -7.876   1.915 128.376  0.00  0.00    +0.033 C 
ATOM      7  C   LIG A   1      -8.128   3.342 129.013  0.00  0.00    +0.009 C 
ATOM      8  C   LIG A   1      -7.506   4.396 128.059  0.00  0.00    +0.015 C 
ATOM      9  C   LIG A   1      -7.435   2.845 130.239  0.00  0.00    +0.081 C 
ATOM     10  C   LIG A   1      -6.796   4.173 130.817  0.00  0.00    +0.045 C 
ATOM     11  C   LIG A   1      -6.712   1.579 130.473  0.00  0.00    +0.087 C 
ATOM     12  C   LIG A   1      -6.214   1.886 131.906  0.00  0.00    +0.152 C 
ATOM     13  C   LIG A   1      -7.291   3.053 132.700  0.00  0.00    +0.150 C 
ATOM     14  C   LIG A   1      -7.961   4.290 131.686  0.00  0.00    +0.005 C 
ATOM     15  C   LIG A   1      -8.156   5.580 132.453  0.00  0.00    +0.014 C 
ATOM     16  C   LIG A   1      -9.015   4.219 130.209  0.00  0.00    +0.046 C 
ATOM     17  C   LIG A   1      -7.816   1.809 126.848  0.00  0.00    +0.008 C 
ATOM     18  C   LIG A   1      -7.693   0.333 126.443  0.00  0.00    +0.014 C 
ATOM     19  C   LIG A   1      -6.426  -0.369 127.013  0.00  0.00    +0.041 C 
ATOM     20  C   LIG A   1      -5.198   0.195 126.229  0.00  0.00    +0.018 C 
ATOM     21  C   LIG A   1      -6.443  -1.909 126.740  0.00  0.00    +0.218 C 
ATOM     22  O   LIG A   1      -5.296  -2.558 127.351  0.00  0.00    -0.456 OA
ENDROOT
BRANCH  21  23
ATOM     23  C   LIG A   1      -7.707  -2.692 127.039  0.00  0.00    +0.031 A 
ATOM     24  C   LIG A   1      -8.869  -2.755 126.289  0.00  0.00    +0.202 A 
ATOM     25  O   LIG A   1      -9.788  -3.570 126.859  0.00  0.00    -0.471 OA
ATOM     26  C   LIG A   1      -9.252  -4.007 128.023  0.00  0.00    +0.195 A 
ATOM     27  C   LIG A   1      -7.990  -3.486 128.195  0.00  0.00    +0.048 A 
ENDBRANCH  21  23
BRANCH   4  28
ATOM     28  O   LIG A   1      -7.405  -0.833 129.183  0.00  0.00    -0.385 OA
ATOM     29  H   LIG A   1      -7.722  -1.563 128.619  0.00  0.00    +0.210 HD
ENDBRANCH   4  28
BRANCH   5  30
ATOM     30  O   LIG A   1      -5.324   2.128 128.589  0.00  0.00    -0.385 OA
ATOM     31  H   LIG A   1      -4.504   1.615 128.743  0.00  0.00    +0.210 HD
ENDBRANCH   5  30
BRANCH   9  32
ATOM     32  O   LIG A   1      -8.682   2.186 130.978  0.00  0.00    -0.388 OA
ATOM     33  H   LIG A   1      -8.757   1.240 130.744  0.00  0.00    +0.210 HD
ENDBRANCH   9  32
BRANCH  12  34
ATOM     34  O   LIG A   1      -4.845   2.274 131.856  0.00  0.00    -0.389 OA
ATOM     35  H   LIG A   1      -4.808   3.196 132.176  0.00  0.00    +0.210 HD
ENDBRANCH  12  34
BRANCH  13  36
ATOM     36  O   LIG A   1      -8.320   2.381 133.413  0.00  0.00    -0.389 OA
ATOM     37  H   LIG A   1      -8.074   1.436 133.327  0.00  0.00    +0.210 HD
ENDBRANCH  13  36
BRANCH  16  38
ATOM     38  C   LIG A   1     -10.516   3.899 130.404  0.00  0.00    +0.227 C 
BRANCH  38  39
ATOM     39  C   LIG A   1     -11.339   5.204 130.425  0.00  0.00    +0.336 C 
ATOM     40  O   LIG A   1     -11.494   5.906 131.409  0.00  0.00    -0.248 OA
BRANCH  39  41
ATOM     41  O   LIG A   1     -11.921   5.420 129.199  0.00  0.00    -0.466 OA
ATOM     42  C   LIG A   1     -12.684   6.624 129.124  0.00  0.00    +0.280 C 
ENDBRANCH  39  41
ENDBRANCH  38  39
BRANCH  38  43
ATOM     43  O   LIG A   1     -10.705   3.184 131.618  0.00  0.00    -0.380 OA
ATOM     44  H   LIG A   1     -10.066   2.448 131.625  0.00  0.00    +0.210 HD
ENDBRANCH  38  43
ENDBRANCH  16  38
TORSDOF 10
ENDMDL
