MODEL 1
REMARK VINA RESULT:      -7.5      0.000      0.000
REMARK  Name = NuBBE_859
REMARK  18 active torsions:
REMARK  status: ('A' for Active; 'I' for Inactive)
REMARK    1  A    between atoms: C_1  and  C_2
REMARK    2  A    between atoms: C_4  and  O_5
REMARK    3  A    between atoms: O_5  and  C_6
REMARK    4  A    between atoms: C_6  and  C_7
REMARK    5  A    between atoms: C_13  and  C_14
REMARK    6  A    between atoms: C_13  and  C_30
REMARK    7  A    between atoms: C_14  and  C_15
REMARK    8  A    between atoms: C_15  and  C_16
REMARK    9  A    between atoms: C_17  and  C_18
REMARK   10  A    between atoms: C_17  and  C_19
REMARK   11  A    between atoms: C_19  and  C_20
REMARK   12  A    between atoms: C_20  and  C_21
REMARK   13  A    between atoms: C_22  and  C_23
REMARK   14  A    between atoms: C_22  and  C_24
REMARK   15  A    between atoms: C_24  and  C_25
REMARK   16  A    between atoms: C_25  and  C_26
REMARK   17  A    between atoms: C_27  and  C_28
REMARK   18  A    between atoms: C_27  and  C_29
REMARK                            x       y       z     vdW  Elec       q    Type
REMARK                         _______ _______ _______ _____ _____    ______ ____
ROOT
ATOM      1  C   LIG A   1      -5.264  -0.592 125.611  0.00  0.00    +0.048 C 
ATOM      2  C   LIG A   1      -6.455  -0.167 124.805  0.00  0.00    -0.005 A 
ATOM      3  C   LIG A   1      -6.668   1.175 124.517  0.00  0.00    +0.053 A 
ATOM      4  C   LIG A   1      -7.796   1.581 123.810  0.00  0.00    +0.132 A 
ATOM      5  C   LIG A   1      -8.690   0.636 123.289  0.00  0.00    +0.053 A 
ATOM      6  C   LIG A   1      -8.481  -0.723 123.552  0.00  0.00    -0.002 A 
ATOM      7  C   LIG A   1      -7.396  -1.097 124.363  0.00  0.00    +0.128 A 
ATOM      8  O   LIG A   1      -7.180  -2.381 124.777  0.00  0.00    -0.485 OA
ATOM      9  C   LIG A   1      -8.307  -3.275 124.671  0.00  0.00    +0.108 C 
ATOM     10  C   LIG A   1      -7.666  -4.654 124.850  0.00  0.00    +0.056 C 
ATOM     11  C   LIG A   1      -8.883  -3.165 123.260  0.00  0.00    +0.052 C 
ATOM     12  C   LIG A   1      -9.425  -1.763 123.010  0.00  0.00    +0.043 C 
ENDROOT
BRANCH   4  13
ATOM     13  O   LIG A   1      -8.059   2.936 123.538  0.00  0.00    -0.426 OA
BRANCH  13  14
ATOM     14  C   LIG A   1      -7.993   3.383 122.197  0.00  0.00    +0.309 C 
ATOM     15  C   LIG A   1      -6.550   3.543 121.833  0.00  0.00    +0.136 C 
ATOM     16  O   LIG A   1      -8.888   3.621 121.448  0.00  0.00    -0.251 OA
ENDBRANCH  13  14
ENDBRANCH   4  13
BRANCH   9  17
ATOM     17  C   LIG A   1      -9.287  -2.928 125.819  0.00  0.00    +0.051 C 
BRANCH  17  18
ATOM     18  C   LIG A   1      -8.914  -3.270 127.261  0.00  0.00    +0.031 C 
BRANCH  18  19
ATOM     19  C   LIG A   1      -8.140  -2.231 128.074  0.00  0.00    -0.028 C 
ATOM     20  C   LIG A   1      -7.250  -2.346 129.087  0.00  0.00    -0.076 C 
ATOM     21  C   LIG A   1      -6.826  -3.637 129.739  0.00  0.00    +0.038 C 
BRANCH  20  22
ATOM     22  C   LIG A   1      -6.600  -1.117 129.730  0.00  0.00    +0.034 C 
BRANCH  22  23
ATOM     23  C   LIG A   1      -7.494   0.116 129.902  0.00  0.00    +0.031 C 
BRANCH  23  24
ATOM     24  C   LIG A   1      -6.912   1.316 129.175  0.00  0.00    -0.027 C 
ATOM     25  C   LIG A   1      -7.449   1.885 128.084  0.00  0.00    -0.076 C 
ATOM     26  C   LIG A   1      -8.702   1.340 127.518  0.00  0.00    +0.038 C 
BRANCH  25  27
ATOM     27  C   LIG A   1      -6.777   3.038 127.320  0.00  0.00    +0.034 C 
BRANCH  27  28
ATOM     28  C   LIG A   1      -5.390   3.595 127.804  0.00  0.00    +0.031 C 
BRANCH  28  29
ATOM     29  C   LIG A   1      -4.160   3.118 127.037  0.00  0.00    -0.028 C 
ATOM     30  C   LIG A   1      -2.905   3.629 127.136  0.00  0.00    -0.080 C 
ATOM     31  C   LIG A   1      -2.496   4.822 127.994  0.00  0.00    +0.038 C 
ATOM     32  C   LIG A   1      -1.683   2.963 126.557  0.00  0.00    +0.038 C 
ENDBRANCH  28  29
ENDBRANCH  27  28
ENDBRANCH  25  27
ENDBRANCH  23  24
ENDBRANCH  22  23
ENDBRANCH  20  22
ENDBRANCH  18  19
ENDBRANCH  17  18
ENDBRANCH   9  17
TORSDOF 11
ENDMDL
MODEL 2
REMARK VINA RESULT:      -7.3      2.321      5.861
REMARK  Name = NuBBE_859
REMARK  18 active torsions:
REMARK  status: ('A' for Active; 'I' for Inactive)
REMARK    1  A    between atoms: C_1  and  C_2
REMARK    2  A    between atoms: C_4  and  O_5
REMARK    3  A    between atoms: O_5  and  C_6
REMARK    4  A    between atoms: C_6  and  C_7
REMARK    5  A    between atoms: C_13  and  C_14
REMARK    6  A    between atoms: C_13  and  C_30
REMARK    7  A    between atoms: C_14  and  C_15
REMARK    8  A    between atoms: C_15  and  C_16
REMARK    9  A    between atoms: C_17  and  C_18
REMARK   10  A    between atoms: C_17  and  C_19
REMARK   11  A    between atoms: C_19  and  C_20
REMARK   12  A    between atoms: C_20  and  C_21
REMARK   13  A    between atoms: C_22  and  C_23
REMARK   14  A    between atoms: C_22  and  C_24
REMARK   15  A    between atoms: C_24  and  C_25
REMARK   16  A    between atoms: C_25  and  C_26
REMARK   17  A    between atoms: C_27  and  C_28
REMARK   18  A    between atoms: C_27  and  C_29
REMARK                            x       y       z     vdW  Elec       q    Type
REMARK                         _______ _______ _______ _____ _____    ______ ____
ROOT
ATOM      1  C   LIG A   1      -9.608  -4.211 128.104  0.00  0.00    +0.048 C 
ATOM      2  C   LIG A   1      -8.310  -3.464 128.019  0.00  0.00    -0.005 A 
ATOM      3  C   LIG A   1      -7.560  -3.224 129.163  0.00  0.00    +0.053 A 
ATOM      4  C   LIG A   1      -6.378  -2.490 129.097  0.00  0.00    +0.132 A 
ATOM      5  C   LIG A   1      -5.871  -2.063 127.862  0.00  0.00    +0.053 A 
ATOM      6  C   LIG A   1      -6.604  -2.313 126.697  0.00  0.00    -0.002 A 
ATOM      7  C   LIG A   1      -7.848  -2.958 126.803  0.00  0.00    +0.128 A 
ATOM      8  O   LIG A   1      -8.691  -3.137 125.743  0.00  0.00    -0.485 OA
ATOM      9  C   LIG A   1      -8.435  -2.311 124.589  0.00  0.00    +0.108 C 
ATOM     10  C   LIG A   1      -9.271  -2.983 123.497  0.00  0.00    +0.056 C 
ATOM     11  C   LIG A   1      -6.953  -2.421 124.232  0.00  0.00    +0.052 C 
ATOM     12  C   LIG A   1      -6.088  -1.865 125.356  0.00  0.00    +0.043 C 
ENDROOT
BRANCH   4  13
ATOM     13  O   LIG A   1      -5.618  -2.196 130.244  0.00  0.00    -0.426 OA
BRANCH  13  14
ATOM     14  C   LIG A   1      -4.337  -2.782 130.375  0.00  0.00    +0.309 C 
ATOM     15  C   LIG A   1      -3.365  -1.698 130.723  0.00  0.00    +0.136 C 
ATOM     16  O   LIG A   1      -4.023  -3.923 130.232  0.00  0.00    -0.251 OA
ENDBRANCH  13  14
ENDBRANCH   4  13
BRANCH   9  17
ATOM     17  C   LIG A   1      -8.935  -0.882 124.917  0.00  0.00    +0.051 C 
BRANCH  17  18
ATOM     18  C   LIG A   1      -8.963   0.179 123.819  0.00  0.00    +0.031 C 
BRANCH  18  19
ATOM     19  C   LIG A   1      -7.739   1.082 123.653  0.00  0.00    -0.028 C 
ATOM     20  C   LIG A   1      -7.568   2.283 123.053  0.00  0.00    -0.076 C 
ATOM     21  C   LIG A   1      -8.626   3.044 122.295  0.00  0.00    +0.038 C 
BRANCH  20  22
ATOM     22  C   LIG A   1      -6.209   2.989 123.042  0.00  0.00    +0.034 C 
BRANCH  22  23
ATOM     23  C   LIG A   1      -5.797   3.699 124.336  0.00  0.00    +0.031 C 
BRANCH  23  24
ATOM     24  C   LIG A   1      -5.487   2.695 125.432  0.00  0.00    -0.027 C 
ATOM     25  C   LIG A   1      -6.153   2.599 126.594  0.00  0.00    -0.076 C 
ATOM     26  C   LIG A   1      -7.281   3.515 126.868  0.00  0.00    +0.038 C 
BRANCH  25  27
ATOM     27  C   LIG A   1      -5.745   1.633 127.720  0.00  0.00    +0.034 C 
BRANCH  27  28
ATOM     28  C   LIG A   1      -4.386   1.842 128.477  0.00  0.00    +0.031 C 
BRANCH  28  29
ATOM     29  C   LIG A   1      -3.912   3.284 128.642  0.00  0.00    -0.028 C 
ATOM     30  C   LIG A   1      -2.904   3.880 127.954  0.00  0.00    -0.080 C 
ATOM     31  C   LIG A   1      -2.010   3.204 126.921  0.00  0.00    +0.038 C 
ATOM     32  C   LIG A   1      -2.646   5.366 127.970  0.00  0.00    +0.038 C 
ENDBRANCH  28  29
ENDBRANCH  27  28
ENDBRANCH  25  27
ENDBRANCH  23  24
ENDBRANCH  22  23
ENDBRANCH  20  22
ENDBRANCH  18  19
ENDBRANCH  17  18
ENDBRANCH   9  17
TORSDOF 11
ENDMDL
MODEL 3
REMARK VINA RESULT:      -7.3      2.366      5.240
REMARK  Name = NuBBE_859
REMARK  18 active torsions:
REMARK  status: ('A' for Active; 'I' for Inactive)
REMARK    1  A    between atoms: C_1  and  C_2
REMARK    2  A    between atoms: C_4  and  O_5
REMARK    3  A    between atoms: O_5  and  C_6
REMARK    4  A    between atoms: C_6  and  C_7
REMARK    5  A    between atoms: C_13  and  C_14
REMARK    6  A    between atoms: C_13  and  C_30
REMARK    7  A    between atoms: C_14  and  C_15
REMARK    8  A    between atoms: C_15  and  C_16
REMARK    9  A    between atoms: C_17  and  C_18
REMARK   10  A    between atoms: C_17  and  C_19
REMARK   11  A    between atoms: C_19  and  C_20
REMARK   12  A    between atoms: C_20  and  C_21
REMARK   13  A    between atoms: C_22  and  C_23
REMARK   14  A    between atoms: C_22  and  C_24
REMARK   15  A    between atoms: C_24  and  C_25
REMARK   16  A    between atoms: C_25  and  C_26
REMARK   17  A    between atoms: C_27  and  C_28
REMARK   18  A    between atoms: C_27  and  C_29
REMARK                            x       y       z     vdW  Elec       q    Type
REMARK                         _______ _______ _______ _____ _____    ______ ____
ROOT
ATOM      1  C   LIG A   1      -8.770  -0.128 131.859  0.00  0.00    +0.048 C 
ATOM      2  C   LIG A   1      -8.350   0.453 130.541  0.00  0.00    -0.005 A 
ATOM      3  C   LIG A   1      -8.658   1.769 130.221  0.00  0.00    +0.053 A 
ATOM      4  C   LIG A   1      -8.312   2.300 128.981  0.00  0.00    +0.132 A 
ATOM      5  C   LIG A   1      -7.561   1.547 128.067  0.00  0.00    +0.053 A 
ATOM      6  C   LIG A   1      -7.225   0.225 128.381  0.00  0.00    -0.002 A 
ATOM      7  C   LIG A   1      -7.681  -0.321 129.592  0.00  0.00    +0.128 A 
ATOM      8  O   LIG A   1      -7.512  -1.634 129.931  0.00  0.00    -0.485 OA
ATOM      9  C   LIG A   1      -7.185  -2.527 128.847  0.00  0.00    +0.108 C 
ATOM     10  C   LIG A   1      -6.714  -3.788 129.575  0.00  0.00    +0.056 C 
ATOM     11  C   LIG A   1      -6.017  -1.931 128.062  0.00  0.00    +0.052 C 
ATOM     12  C   LIG A   1      -6.422  -0.609 127.420  0.00  0.00    +0.043 C 
ENDROOT
BRANCH   4  13
ATOM     13  O   LIG A   1      -8.646   3.616 128.613  0.00  0.00    -0.426 OA
BRANCH  13  14
ATOM     14  C   LIG A   1      -8.438   4.654 129.552  0.00  0.00    +0.309 C 
ATOM     15  C   LIG A   1      -6.962   4.840 129.717  0.00  0.00    +0.136 C 
ATOM     16  O   LIG A   1      -9.250   5.291 130.148  0.00  0.00    -0.251 OA
ENDBRANCH  13  14
ENDBRANCH   4  13
BRANCH   9  17
ATOM     17  C   LIG A   1      -8.480  -2.767 128.032  0.00  0.00    +0.051 C 
BRANCH  17  18
ATOM     18  C   LIG A   1      -8.445  -3.682 126.810  0.00  0.00    +0.031 C 
BRANCH  18  19
ATOM     19  C   LIG A   1      -8.561  -3.045 125.424  0.00  0.00    -0.028 C 
ATOM     20  C   LIG A   1      -7.652  -2.813 124.449  0.00  0.00    -0.076 C 
ATOM     21  C   LIG A   1      -6.176  -3.106 124.539  0.00  0.00    +0.038 C 
BRANCH  20  22
ATOM     22  C   LIG A   1      -8.046  -2.156 123.122  0.00  0.00    +0.034 C 
BRANCH  22  23
ATOM     23  C   LIG A   1      -9.272  -1.237 123.153  0.00  0.00    +0.031 C 
BRANCH  23  24
ATOM     24  C   LIG A   1      -8.862   0.211 123.356  0.00  0.00    -0.027 C 
ATOM     25  C   LIG A   1      -9.074   0.917 124.478  0.00  0.00    -0.076 C 
ATOM     26  C   LIG A   1      -9.749   0.276 125.628  0.00  0.00    +0.038 C 
BRANCH  25  27
ATOM     27  C   LIG A   1      -8.731   2.410 124.609  0.00  0.00    +0.034 C 
BRANCH  27  28
ATOM     28  C   LIG A   1      -7.345   2.943 124.099  0.00  0.00    +0.031 C 
BRANCH  28  29
ATOM     29  C   LIG A   1      -6.103   2.365 124.771  0.00  0.00    -0.028 C 
ATOM     30  C   LIG A   1      -5.286   3.014 125.641  0.00  0.00    -0.080 C 
ATOM     31  C   LIG A   1      -5.421   4.471 126.070  0.00  0.00    +0.038 C 
ATOM     32  C   LIG A   1      -4.231   2.325 126.469  0.00  0.00    +0.038 C 
ENDBRANCH  28  29
ENDBRANCH  27  28
ENDBRANCH  25  27
ENDBRANCH  23  24
ENDBRANCH  22  23
ENDBRANCH  20  22
ENDBRANCH  18  19
ENDBRANCH  17  18
ENDBRANCH   9  17
TORSDOF 11
ENDMDL
MODEL 4
REMARK VINA RESULT:      -7.2      4.127      8.046
REMARK  Name = NuBBE_859
REMARK  18 active torsions:
REMARK  status: ('A' for Active; 'I' for Inactive)
REMARK    1  A    between atoms: C_1  and  C_2
REMARK    2  A    between atoms: C_4  and  O_5
REMARK    3  A    between atoms: O_5  and  C_6
REMARK    4  A    between atoms: C_6  and  C_7
REMARK    5  A    between atoms: C_13  and  C_14
REMARK    6  A    between atoms: C_13  and  C_30
REMARK    7  A    between atoms: C_14  and  C_15
REMARK    8  A    between atoms: C_15  and  C_16
REMARK    9  A    between atoms: C_17  and  C_18
REMARK   10  A    between atoms: C_17  and  C_19
REMARK   11  A    between atoms: C_19  and  C_20
REMARK   12  A    between atoms: C_20  and  C_21
REMARK   13  A    between atoms: C_22  and  C_23
REMARK   14  A    between atoms: C_22  and  C_24
REMARK   15  A    between atoms: C_24  and  C_25
REMARK   16  A    between atoms: C_25  and  C_26
REMARK   17  A    between atoms: C_27  and  C_28
REMARK   18  A    between atoms: C_27  and  C_29
REMARK                            x       y       z     vdW  Elec       q    Type
REMARK                         _______ _______ _______ _____ _____    ______ ____
ROOT
ATOM      1  C   LIG A   1      -7.811  -1.392 131.969  0.00  0.00    +0.048 C 
ATOM      2  C   LIG A   1      -6.359  -1.041 132.101  0.00  0.00    -0.005 A 
ATOM      3  C   LIG A   1      -5.860   0.122 131.528  0.00  0.00    +0.053 A 
ATOM      4  C   LIG A   1      -4.505   0.429 131.607  0.00  0.00    +0.132 A 
ATOM      5  C   LIG A   1      -3.632  -0.378 132.350  0.00  0.00    +0.053 A 
ATOM      6  C   LIG A   1      -4.121  -1.544 132.951  0.00  0.00    -0.002 A 
ATOM      7  C   LIG A   1      -5.469  -1.889 132.763  0.00  0.00    +0.128 A 
ATOM      8  O   LIG A   1      -6.009  -3.065 133.203  0.00  0.00    -0.485 OA
ATOM      9  C   LIG A   1      -5.067  -4.105 133.534  0.00  0.00    +0.108 C 
ATOM     10  C   LIG A   1      -5.924  -5.107 134.311  0.00  0.00    +0.056 C 
ATOM     11  C   LIG A   1      -4.004  -3.520 134.464  0.00  0.00    +0.052 C 
ATOM     12  C   LIG A   1      -3.208  -2.433 133.752  0.00  0.00    +0.043 C 
ENDROOT
BRANCH   4  13
ATOM     13  O   LIG A   1      -3.964   1.579 131.003  0.00  0.00    -0.426 OA
BRANCH  13  14
ATOM     14  C   LIG A   1      -4.290   2.845 131.543  0.00  0.00    +0.309 C 
ATOM     15  C   LIG A   1      -3.190   3.248 132.474  0.00  0.00    +0.136 C 
ATOM     16  O   LIG A   1      -5.257   3.511 131.344  0.00  0.00    -0.251 OA
ENDBRANCH  13  14
ENDBRANCH   4  13
BRANCH   9  17
ATOM     17  C   LIG A   1      -4.534  -4.693 132.203  0.00  0.00    +0.051 C 
BRANCH  17  18
ATOM     18  C   LIG A   1      -5.520  -5.092 131.105  0.00  0.00    +0.031 C 
BRANCH  18  19
ATOM     19  C   LIG A   1      -5.807  -4.086 129.989  0.00  0.00    -0.028 C 
ATOM     20  C   LIG A   1      -5.009  -3.238 129.300  0.00  0.00    -0.076 C 
ATOM     21  C   LIG A   1      -3.534  -3.034 129.538  0.00  0.00    +0.038 C 
BRANCH  20  22
ATOM     22  C   LIG A   1      -5.563  -2.327 128.200  0.00  0.00    +0.034 C 
BRANCH  22  23
ATOM     23  C   LIG A   1      -6.942  -1.710 128.456  0.00  0.00    +0.031 C 
BRANCH  23  24
ATOM     24  C   LIG A   1      -7.837  -1.852 127.237  0.00  0.00    -0.027 C 
ATOM     25  C   LIG A   1      -8.698  -2.861 127.032  0.00  0.00    -0.076 C 
ATOM     26  C   LIG A   1      -8.821  -3.933 128.044  0.00  0.00    +0.038 C 
BRANCH  25  27
ATOM     27  C   LIG A   1      -9.515  -3.020 125.739  0.00  0.00    +0.034 C 
BRANCH  27  28
ATOM     28  C   LIG A   1      -8.785  -3.037 124.348  0.00  0.00    +0.031 C 
BRANCH  28  29
ATOM     29  C   LIG A   1      -7.437  -3.750 124.294  0.00  0.00    -0.028 C 
ATOM     30  C   LIG A   1      -6.226  -3.164 124.110  0.00  0.00    -0.080 C 
ATOM     31  C   LIG A   1      -5.985  -1.678 123.863  0.00  0.00    +0.038 C 
ATOM     32  C   LIG A   1      -4.913  -3.874 124.321  0.00  0.00    +0.038 C 
ENDBRANCH  28  29
ENDBRANCH  27  28
ENDBRANCH  25  27
ENDBRANCH  23  24
ENDBRANCH  22  23
ENDBRANCH  20  22
ENDBRANCH  18  19
ENDBRANCH  17  18
ENDBRANCH   9  17
TORSDOF 11
ENDMDL
MODEL 5
REMARK VINA RESULT:      -7.2      1.995      5.885
REMARK  Name = NuBBE_859
REMARK  18 active torsions:
REMARK  status: ('A' for Active; 'I' for Inactive)
REMARK    1  A    between atoms: C_1  and  C_2
REMARK    2  A    between atoms: C_4  and  O_5
REMARK    3  A    between atoms: O_5  and  C_6
REMARK    4  A    between atoms: C_6  and  C_7
REMARK    5  A    between atoms: C_13  and  C_14
REMARK    6  A    between atoms: C_13  and  C_30
REMARK    7  A    between atoms: C_14  and  C_15
REMARK    8  A    between atoms: C_15  and  C_16
REMARK    9  A    between atoms: C_17  and  C_18
REMARK   10  A    between atoms: C_17  and  C_19
REMARK   11  A    between atoms: C_19  and  C_20
REMARK   12  A    between atoms: C_20  and  C_21
REMARK   13  A    between atoms: C_22  and  C_23
REMARK   14  A    between atoms: C_22  and  C_24
REMARK   15  A    between atoms: C_24  and  C_25
REMARK   16  A    between atoms: C_25  and  C_26
REMARK   17  A    between atoms: C_27  and  C_28
REMARK   18  A    between atoms: C_27  and  C_29
REMARK                            x       y       z     vdW  Elec       q    Type
REMARK                         _______ _______ _______ _____ _____    ______ ____
ROOT
ATOM      1  C   LIG A   1      -8.637   1.888 128.654  0.00  0.00    +0.048 C 
ATOM      2  C   LIG A   1      -7.518   1.981 127.658  0.00  0.00    -0.005 A 
ATOM      3  C   LIG A   1      -7.759   1.772 126.307  0.00  0.00    +0.053 A 
ATOM      4  C   LIG A   1      -6.718   1.810 125.384  0.00  0.00    +0.132 A 
ATOM      5  C   LIG A   1      -5.420   2.157 125.786  0.00  0.00    +0.053 A 
ATOM      6  C   LIG A   1      -5.163   2.390 127.142  0.00  0.00    -0.002 A 
ATOM      7  C   LIG A   1      -6.209   2.236 128.067  0.00  0.00    +0.128 A 
ATOM      8  O   LIG A   1      -6.030   2.321 129.419  0.00  0.00    -0.485 OA
ATOM      9  C   LIG A   1      -4.670   2.198 129.883  0.00  0.00    +0.108 C 
ATOM     10  C   LIG A   1      -4.758   2.688 131.330  0.00  0.00    +0.056 C 
ATOM     11  C   LIG A   1      -3.793   3.156 129.078  0.00  0.00    +0.052 C 
ATOM     12  C   LIG A   1      -3.780   2.762 127.606  0.00  0.00    +0.043 C 
ENDROOT
BRANCH   4  13
ATOM     13  O   LIG A   1      -6.924   1.562 124.014  0.00  0.00    -0.426 OA
BRANCH  13  14
ATOM     14  C   LIG A   1      -7.517   2.576 123.225  0.00  0.00    +0.309 C 
ATOM     15  C   LIG A   1      -6.419   3.412 122.644  0.00  0.00    +0.136 C 
ATOM     16  O   LIG A   1      -8.674   2.788 123.032  0.00  0.00    -0.251 OA
ENDBRANCH  13  14
ENDBRANCH   4  13
BRANCH   9  17
ATOM     17  C   LIG A   1      -4.279   0.702 129.790  0.00  0.00    +0.051 C 
BRANCH  17  18
ATOM     18  C   LIG A   1      -4.637  -0.245 130.935  0.00  0.00    +0.031 C 
BRANCH  18  19
ATOM     19  C   LIG A   1      -5.717  -1.300 130.691  0.00  0.00    -0.028 C 
ATOM     20  C   LIG A   1      -7.045  -1.321 130.948  0.00  0.00    -0.076 C 
ATOM     21  C   LIG A   1      -7.820  -0.232 131.647  0.00  0.00    +0.038 C 
BRANCH  20  22
ATOM     22  C   LIG A   1      -7.917  -2.527 130.583  0.00  0.00    +0.034 C 
BRANCH  22  23
ATOM     23  C   LIG A   1      -7.421  -3.402 129.428  0.00  0.00    +0.031 C 
BRANCH  23  24
ATOM     24  C   LIG A   1      -8.265  -3.191 128.183  0.00  0.00    -0.027 C 
ATOM     25  C   LIG A   1      -7.935  -2.385 127.162  0.00  0.00    -0.076 C 
ATOM     26  C   LIG A   1      -6.663  -1.632 127.207  0.00  0.00    +0.038 C 
BRANCH  25  27
ATOM     27  C   LIG A   1      -8.863  -2.123 125.964  0.00  0.00    +0.034 C 
BRANCH  27  28
ATOM     28  C   LIG A   1      -8.782  -3.043 124.694  0.00  0.00    +0.031 C 
BRANCH  28  29
ATOM     29  C   LIG A   1      -7.449  -3.744 124.445  0.00  0.00    -0.028 C 
ATOM     30  C   LIG A   1      -6.351  -3.195 123.864  0.00  0.00    -0.080 C 
ATOM     31  C   LIG A   1      -6.257  -1.784 123.295  0.00  0.00    +0.038 C 
ATOM     32  C   LIG A   1      -4.989  -3.842 123.874  0.00  0.00    +0.038 C 
ENDBRANCH  28  29
ENDBRANCH  27  28
ENDBRANCH  25  27
ENDBRANCH  23  24
ENDBRANCH  22  23
ENDBRANCH  20  22
ENDBRANCH  18  19
ENDBRANCH  17  18
ENDBRANCH   9  17
TORSDOF 11
ENDMDL
MODEL 6
REMARK VINA RESULT:      -7.2      3.951      7.472
REMARK  Name = NuBBE_859
REMARK  18 active torsions:
REMARK  status: ('A' for Active; 'I' for Inactive)
REMARK    1  A    between atoms: C_1  and  C_2
REMARK    2  A    between atoms: C_4  and  O_5
REMARK    3  A    between atoms: O_5  and  C_6
REMARK    4  A    between atoms: C_6  and  C_7
REMARK    5  A    between atoms: C_13  and  C_14
REMARK    6  A    between atoms: C_13  and  C_30
REMARK    7  A    between atoms: C_14  and  C_15
REMARK    8  A    between atoms: C_15  and  C_16
REMARK    9  A    between atoms: C_17  and  C_18
REMARK   10  A    between atoms: C_17  and  C_19
REMARK   11  A    between atoms: C_19  and  C_20
REMARK   12  A    between atoms: C_20  and  C_21
REMARK   13  A    between atoms: C_22  and  C_23
REMARK   14  A    between atoms: C_22  and  C_24
REMARK   15  A    between atoms: C_24  and  C_25
REMARK   16  A    between atoms: C_25  and  C_26
REMARK   17  A    between atoms: C_27  and  C_28
REMARK   18  A    between atoms: C_27  and  C_29
REMARK                            x       y       z     vdW  Elec       q    Type
REMARK                         _______ _______ _______ _____ _____    ______ ____
ROOT
ATOM      1  C   LIG A   1      -6.185   6.382 131.980  0.00  0.00    +0.048 C 
ATOM      2  C   LIG A   1      -7.401   5.954 131.213  0.00  0.00    -0.005 A 
ATOM      3  C   LIG A   1      -8.456   6.836 131.015  0.00  0.00    +0.053 A 
ATOM      4  C   LIG A   1      -9.606   6.431 130.346  0.00  0.00    +0.132 A 
ATOM      5  C   LIG A   1      -9.685   5.154 129.771  0.00  0.00    +0.053 A 
ATOM      6  C   LIG A   1      -8.624   4.258 129.944  0.00  0.00    -0.002 A 
ATOM      7  C   LIG A   1      -7.521   4.655 130.719  0.00  0.00    +0.128 A 
ATOM      8  O   LIG A   1      -6.496   3.813 131.047  0.00  0.00    -0.485 OA
ATOM      9  C   LIG A   1      -6.763   2.405 130.892  0.00  0.00    +0.108 C 
ATOM     10  C   LIG A   1      -5.368   1.782 130.975  0.00  0.00    +0.056 C 
ATOM     11  C   LIG A   1      -7.339   2.171 129.495  0.00  0.00    +0.052 C 
ATOM     12  C   LIG A   1      -8.679   2.879 129.342  0.00  0.00    +0.043 C 
ENDROOT
BRANCH   4  13
ATOM     13  O   LIG A   1     -10.707   7.289 130.165  0.00  0.00    -0.426 OA
BRANCH  13  14
ATOM     14  C   LIG A   1     -10.857   7.944 128.920  0.00  0.00    +0.309 C 
ATOM     15  C   LIG A   1     -12.269   7.750 128.462  0.00  0.00    +0.136 C 
ATOM     16  O   LIG A   1     -10.041   8.544 128.292  0.00  0.00    -0.251 OA
ENDBRANCH  13  14
ENDBRANCH   4  13
BRANCH   9  17
ATOM     17  C   LIG A   1      -7.673   1.970 132.068  0.00  0.00    +0.051 C 
BRANCH  17  18
ATOM     18  C   LIG A   1      -7.593   0.539 132.596  0.00  0.00    +0.031 C 
BRANCH  18  19
ATOM     19  C   LIG A   1      -8.125  -0.591 131.713  0.00  0.00    -0.028 C 
ATOM     20  C   LIG A   1      -7.510  -1.608 131.066  0.00  0.00    -0.076 C 
ATOM     21  C   LIG A   1      -6.022  -1.846 131.021  0.00  0.00    +0.038 C 
BRANCH  20  22
ATOM     22  C   LIG A   1      -8.298  -2.629 130.241  0.00  0.00    +0.034 C 
BRANCH  22  23
ATOM     23  C   LIG A   1      -7.532  -3.338 129.119  0.00  0.00    +0.031 C 
BRANCH  23  24
ATOM     24  C   LIG A   1      -8.319  -3.309 127.820  0.00  0.00    -0.027 C 
ATOM     25  C   LIG A   1      -8.304  -2.296 126.938  0.00  0.00    -0.076 C 
ATOM     26  C   LIG A   1      -7.471  -1.104 127.209  0.00  0.00    +0.038 C 
BRANCH  25  27
ATOM     27  C   LIG A   1      -9.190  -2.262 125.682  0.00  0.00    +0.034 C 
BRANCH  27  28
ATOM     28  C   LIG A   1      -8.914  -3.261 124.502  0.00  0.00    +0.031 C 
BRANCH  28  29
ATOM     29  C   LIG A   1      -7.475  -3.746 124.342  0.00  0.00    -0.028 C 
ATOM     30  C   LIG A   1      -6.451  -3.049 123.785  0.00  0.00    -0.080 C 
ATOM     31  C   LIG A   1      -6.556  -1.663 123.157  0.00  0.00    +0.038 C 
ATOM     32  C   LIG A   1      -5.006  -3.466 123.883  0.00  0.00    +0.038 C 
ENDBRANCH  28  29
ENDBRANCH  27  28
ENDBRANCH  25  27
ENDBRANCH  23  24
ENDBRANCH  22  23
ENDBRANCH  20  22
ENDBRANCH  18  19
ENDBRANCH  17  18
ENDBRANCH   9  17
TORSDOF 11
ENDMDL
MODEL 7
REMARK VINA RESULT:      -7.2      2.274      5.136
REMARK  Name = NuBBE_859
REMARK  18 active torsions:
REMARK  status: ('A' for Active; 'I' for Inactive)
REMARK    1  A    between atoms: C_1  and  C_2
REMARK    2  A    between atoms: C_4  and  O_5
REMARK    3  A    between atoms: O_5  and  C_6
REMARK    4  A    between atoms: C_6  and  C_7
REMARK    5  A    between atoms: C_13  and  C_14
REMARK    6  A    between atoms: C_13  and  C_30
REMARK    7  A    between atoms: C_14  and  C_15
REMARK    8  A    between atoms: C_15  and  C_16
REMARK    9  A    between atoms: C_17  and  C_18
REMARK   10  A    between atoms: C_17  and  C_19
REMARK   11  A    between atoms: C_19  and  C_20
REMARK   12  A    between atoms: C_20  and  C_21
REMARK   13  A    between atoms: C_22  and  C_23
REMARK   14  A    between atoms: C_22  and  C_24
REMARK   15  A    between atoms: C_24  and  C_25
REMARK   16  A    between atoms: C_25  and  C_26
REMARK   17  A    between atoms: C_27  and  C_28
REMARK   18  A    between atoms: C_27  and  C_29
REMARK                            x       y       z     vdW  Elec       q    Type
REMARK                         _______ _______ _______ _____ _____    ______ ____
ROOT
ATOM      1  C   LIG A   1      -6.255   3.504 122.910  0.00  0.00    +0.048 C 
ATOM      2  C   LIG A   1      -6.289   2.906 124.285  0.00  0.00    -0.005 A 
ATOM      3  C   LIG A   1      -5.258   3.149 125.184  0.00  0.00    +0.053 A 
ATOM      4  C   LIG A   1      -5.260   2.558 126.444  0.00  0.00    +0.132 A 
ATOM      5  C   LIG A   1      -6.350   1.786 126.869  0.00  0.00    +0.053 A 
ATOM      6  C   LIG A   1      -7.407   1.547 125.984  0.00  0.00    -0.002 A 
ATOM      7  C   LIG A   1      -7.328   2.063 124.679  0.00  0.00    +0.128 A 
ATOM      8  O   LIG A   1      -8.247   1.782 123.707  0.00  0.00    -0.485 OA
ATOM      9  C   LIG A   1      -9.092   0.640 123.951  0.00  0.00    +0.108 C 
ATOM     10  C   LIG A   1     -10.203   0.810 122.912  0.00  0.00    +0.056 C 
ATOM     11  C   LIG A   1      -9.688   0.767 125.353  0.00  0.00    +0.052 C 
ATOM     12  C   LIG A   1      -8.590   0.719 126.409  0.00  0.00    +0.043 C 
ENDROOT
BRANCH   4  13
ATOM     13  O   LIG A   1      -4.210   2.753 127.361  0.00  0.00    -0.426 OA
BRANCH  13  14
ATOM     14  C   LIG A   1      -3.255   3.760 127.093  0.00  0.00    +0.309 C 
ATOM     15  C   LIG A   1      -1.995   3.093 126.636  0.00  0.00    +0.136 C 
ATOM     16  O   LIG A   1      -3.367   4.941 127.205  0.00  0.00    -0.251 OA
ENDBRANCH  13  14
ENDBRANCH   4  13
BRANCH   9  17
ATOM     17  C   LIG A   1      -8.244  -0.632 123.703  0.00  0.00    +0.051 C 
BRANCH  17  18
ATOM     18  C   LIG A   1      -8.922  -2.001 123.682  0.00  0.00    +0.031 C 
BRANCH  18  19
ATOM     19  C   LIG A   1      -9.141  -2.721 125.014  0.00  0.00    -0.028 C 
ATOM     20  C   LIG A   1      -8.309  -3.005 126.043  0.00  0.00    -0.076 C 
ATOM     21  C   LIG A   1      -6.834  -2.698 126.089  0.00  0.00    +0.038 C 
BRANCH  20  22
ATOM     22  C   LIG A   1      -8.800  -3.745 127.292  0.00  0.00    +0.034 C 
BRANCH  22  23
ATOM     23  C   LIG A   1      -7.929  -3.618 128.546  0.00  0.00    +0.031 C 
BRANCH  23  24
ATOM     24  C   LIG A   1      -8.359  -2.432 129.391  0.00  0.00    -0.027 C 
ATOM     25  C   LIG A   1      -7.567  -1.399 129.721  0.00  0.00    -0.076 C 
ATOM     26  C   LIG A   1      -6.167  -1.371 129.245  0.00  0.00    +0.038 C 
BRANCH  25  27
ATOM     27  C   LIG A   1      -8.013  -0.265 130.660  0.00  0.00    +0.034 C 
BRANCH  27  28
ATOM     28  C   LIG A   1      -7.668   1.225 130.305  0.00  0.00    +0.031 C 
BRANCH  28  29
ATOM     29  C   LIG A   1      -8.847   2.138 129.979  0.00  0.00    -0.028 C 
ATOM     30  C   LIG A   1      -9.680   2.725 130.878  0.00  0.00    -0.080 C 
ATOM     31  C   LIG A   1      -9.632   2.535 132.390  0.00  0.00    +0.038 C 
ATOM     32  C   LIG A   1     -10.660   3.813 130.522  0.00  0.00    +0.038 C 
ENDBRANCH  28  29
ENDBRANCH  27  28
ENDBRANCH  25  27
ENDBRANCH  23  24
ENDBRANCH  22  23
ENDBRANCH  20  22
ENDBRANCH  18  19
ENDBRANCH  17  18
ENDBRANCH   9  17
TORSDOF 11
ENDMDL
MODEL 8
REMARK VINA RESULT:      -7.1      1.514      2.026
REMARK  Name = NuBBE_859
REMARK  18 active torsions:
REMARK  status: ('A' for Active; 'I' for Inactive)
REMARK    1  A    between atoms: C_1  and  C_2
REMARK    2  A    between atoms: C_4  and  O_5
REMARK    3  A    between atoms: O_5  and  C_6
REMARK    4  A    between atoms: C_6  and  C_7
REMARK    5  A    between atoms: C_13  and  C_14
REMARK    6  A    between atoms: C_13  and  C_30
REMARK    7  A    between atoms: C_14  and  C_15
REMARK    8  A    between atoms: C_15  and  C_16
REMARK    9  A    between atoms: C_17  and  C_18
REMARK   10  A    between atoms: C_17  and  C_19
REMARK   11  A    between atoms: C_19  and  C_20
REMARK   12  A    between atoms: C_20  and  C_21
REMARK   13  A    between atoms: C_22  and  C_23
REMARK   14  A    between atoms: C_22  and  C_24
REMARK   15  A    between atoms: C_24  and  C_25
REMARK   16  A    between atoms: C_25  and  C_26
REMARK   17  A    between atoms: C_27  and  C_28
REMARK   18  A    between atoms: C_27  and  C_29
REMARK                            x       y       z     vdW  Elec       q    Type
REMARK                         _______ _______ _______ _____ _____    ______ ____
ROOT
ATOM      1  C   LIG A   1      -5.343   0.367 126.066  0.00  0.00    +0.048 C 
ATOM      2  C   LIG A   1      -6.597   0.793 125.362  0.00  0.00    -0.005 A 
ATOM      3  C   LIG A   1      -7.017   2.116 125.411  0.00  0.00    +0.053 A 
ATOM      4  C   LIG A   1      -8.205   2.508 124.800  0.00  0.00    +0.132 A 
ATOM      5  C   LIG A   1      -8.952   1.597 124.040  0.00  0.00    +0.053 A 
ATOM      6  C   LIG A   1      -8.533   0.263 123.964  0.00  0.00    -0.002 A 
ATOM      7  C   LIG A   1      -7.391  -0.131 124.681  0.00  0.00    +0.128 A 
ATOM      8  O   LIG A   1      -6.975  -1.429 124.770  0.00  0.00    -0.485 OA
ATOM      9  C   LIG A   1      -7.953  -2.429 124.420  0.00  0.00    +0.108 C 
ATOM     10  C   LIG A   1      -7.106  -3.695 124.267  0.00  0.00    +0.056 C 
ATOM     11  C   LIG A   1      -8.560  -2.061 123.066  0.00  0.00    +0.052 C 
ATOM     12  C   LIG A   1      -9.314  -0.740 123.159  0.00  0.00    +0.043 C 
ENDROOT
BRANCH   4  13
ATOM     13  O   LIG A   1      -8.676   3.832 124.866  0.00  0.00    -0.426 OA
BRANCH  13  14
ATOM     14  C   LIG A   1      -8.074   4.720 125.787  0.00  0.00    +0.309 C 
ATOM     15  C   LIG A   1      -6.827   5.262 125.161  0.00  0.00    +0.136 C 
ATOM     16  O   LIG A   1      -8.436   5.013 126.884  0.00  0.00    -0.251 OA
ENDBRANCH  13  14
ENDBRANCH   4  13
BRANCH   9  17
ATOM     17  C   LIG A   1      -8.958  -2.531 125.594  0.00  0.00    +0.051 C 
BRANCH  17  18
ATOM     18  C   LIG A   1      -8.636  -3.429 126.788  0.00  0.00    +0.031 C 
BRANCH  18  19
ATOM     19  C   LIG A   1      -8.196  -2.767 128.095  0.00  0.00    -0.028 C 
ATOM     20  C   LIG A   1      -6.984  -2.384 128.559  0.00  0.00    -0.076 C 
ATOM     21  C   LIG A   1      -5.669  -2.595 127.854  0.00  0.00    +0.038 C 
BRANCH  20  22
ATOM     22  C   LIG A   1      -6.822  -1.718 129.929  0.00  0.00    +0.034 C 
BRANCH  22  23
ATOM     23  C   LIG A   1      -5.739  -0.640 130.040  0.00  0.00    +0.031 C 
BRANCH  23  24
ATOM     24  C   LIG A   1      -6.245   0.696 129.524  0.00  0.00    -0.027 C 
ATOM     25  C   LIG A   1      -5.645   1.877 129.741  0.00  0.00    -0.076 C 
ATOM     26  C   LIG A   1      -4.396   1.929 130.530  0.00  0.00    +0.038 C 
BRANCH  25  27
ATOM     27  C   LIG A   1      -6.242   3.219 129.284  0.00  0.00    +0.034 C 
BRANCH  27  28
ATOM     28  C   LIG A   1      -5.400   4.182 128.374  0.00  0.00    +0.031 C 
BRANCH  28  29
ATOM     29  C   LIG A   1      -4.303   3.538 127.531  0.00  0.00    -0.028 C 
ATOM     30  C   LIG A   1      -3.019   3.966 127.422  0.00  0.00    -0.080 C 
ATOM     31  C   LIG A   1      -2.438   5.214 128.079  0.00  0.00    +0.038 C 
ATOM     32  C   LIG A   1      -1.918   3.155 126.787  0.00  0.00    +0.038 C 
ENDBRANCH  28  29
ENDBRANCH  27  28
ENDBRANCH  25  27
ENDBRANCH  23  24
ENDBRANCH  22  23
ENDBRANCH  20  22
ENDBRANCH  18  19
ENDBRANCH  17  18
ENDBRANCH   9  17
TORSDOF 11
ENDMDL
MODEL 9
REMARK VINA RESULT:      -7.1      1.870      3.188
REMARK  Name = NuBBE_859
REMARK  18 active torsions:
REMARK  status: ('A' for Active; 'I' for Inactive)
REMARK    1  A    between atoms: C_1  and  C_2
REMARK    2  A    between atoms: C_4  and  O_5
REMARK    3  A    between atoms: O_5  and  C_6
REMARK    4  A    between atoms: C_6  and  C_7
REMARK    5  A    between atoms: C_13  and  C_14
REMARK    6  A    between atoms: C_13  and  C_30
REMARK    7  A    between atoms: C_14  and  C_15
REMARK    8  A    between atoms: C_15  and  C_16
REMARK    9  A    between atoms: C_17  and  C_18
REMARK   10  A    between atoms: C_17  and  C_19
REMARK   11  A    between atoms: C_19  and  C_20
REMARK   12  A    between atoms: C_20  and  C_21
REMARK   13  A    between atoms: C_22  and  C_23
REMARK   14  A    between atoms: C_22  and  C_24
REMARK   15  A    between atoms: C_24  and  C_25
REMARK   16  A    between atoms: C_25  and  C_26
REMARK   17  A    between atoms: C_27  and  C_28
REMARK   18  A    between atoms: C_27  and  C_29
REMARK                            x       y       z     vdW  Elec       q    Type
REMARK                         _______ _______ _______ _____ _____    ______ ____
ROOT
ATOM      1  C   LIG A   1      -5.202   0.256 125.808  0.00  0.00    +0.048 C 
ATOM      2  C   LIG A   1      -6.452   0.720 125.121  0.00  0.00    -0.005 A 
ATOM      3  C   LIG A   1      -6.765   2.072 125.067  0.00  0.00    +0.053 A 
ATOM      4  C   LIG A   1      -7.947   2.505 124.471  0.00  0.00    +0.132 A 
ATOM      5  C   LIG A   1      -8.797   1.595 123.828  0.00  0.00    +0.053 A 
ATOM      6  C   LIG A   1      -8.487   0.230 123.855  0.00  0.00    -0.002 A 
ATOM      7  C   LIG A   1      -7.346  -0.192 124.559  0.00  0.00    +0.128 A 
ATOM      8  O   LIG A   1      -7.028  -1.507 124.747  0.00  0.00    -0.485 OA
ATOM      9  C   LIG A   1      -8.095  -2.451 124.528  0.00  0.00    +0.108 C 
ATOM     10  C   LIG A   1      -7.357  -3.790 124.456  0.00  0.00    +0.056 C 
ATOM     11  C   LIG A   1      -8.737  -2.153 123.173  0.00  0.00    +0.052 C 
ATOM     12  C   LIG A   1      -9.381  -0.772 123.176  0.00  0.00    +0.043 C 
ENDROOT
BRANCH   4  13
ATOM     13  O   LIG A   1      -8.311   3.864 124.437  0.00  0.00    -0.426 OA
BRANCH  13  14
ATOM     14  C   LIG A   1      -7.921   4.696 125.512  0.00  0.00    +0.309 C 
ATOM     15  C   LIG A   1      -6.560   5.240 125.206  0.00  0.00    +0.136 C 
ATOM     16  O   LIG A   1      -8.516   4.947 126.513  0.00  0.00    -0.251 OA
ENDBRANCH  13  14
ENDBRANCH   4  13
BRANCH   9  17
ATOM     17  C   LIG A   1      -9.048  -2.369 125.746  0.00  0.00    +0.051 C 
BRANCH  17  18
ATOM     18  C   LIG A   1      -8.803  -3.266 126.959  0.00  0.00    +0.031 C 
BRANCH  18  19
ATOM     19  C   LIG A   1      -8.207  -2.634 128.219  0.00  0.00    -0.028 C 
ATOM     20  C   LIG A   1      -6.938  -2.318 128.566  0.00  0.00    -0.076 C 
ATOM     21  C   LIG A   1      -5.708  -2.593 127.738  0.00  0.00    +0.038 C 
BRANCH  20  22
ATOM     22  C   LIG A   1      -6.612  -1.669 129.914  0.00  0.00    +0.034 C 
BRANCH  22  23
ATOM     23  C   LIG A   1      -7.655  -1.837 131.024  0.00  0.00    +0.031 C 
BRANCH  23  24
ATOM     24  C   LIG A   1      -8.607  -0.655 131.060  0.00  0.00    -0.027 C 
ATOM     25  C   LIG A   1      -8.505   0.386 131.903  0.00  0.00    -0.076 C 
ATOM     26  C   LIG A   1      -7.397   0.427 132.881  0.00  0.00    +0.038 C 
BRANCH  25  27
ATOM     27  C   LIG A   1      -9.545   1.516 131.973  0.00  0.00    +0.034 C 
BRANCH  27  28
ATOM     28  C   LIG A   1      -9.471   2.713 130.960  0.00  0.00    +0.031 C 
BRANCH  28  29
ATOM     29  C   LIG A   1      -8.106   2.998 130.340  0.00  0.00    -0.028 C 
ATOM     30  C   LIG A   1      -7.645   2.515 129.157  0.00  0.00    -0.080 C 
ATOM     31  C   LIG A   1      -8.385   1.543 128.244  0.00  0.00    +0.038 C 
ATOM     32  C   LIG A   1      -6.403   3.026 128.472  0.00  0.00    +0.038 C 
ENDBRANCH  28  29
ENDBRANCH  27  28
ENDBRANCH  25  27
ENDBRANCH  23  24
ENDBRANCH  22  23
ENDBRANCH  20  22
ENDBRANCH  18  19
ENDBRANCH  17  18
ENDBRANCH   9  17
TORSDOF 11
ENDMDL
