MODEL 1
REMARK VINA RESULT:      -8.1      0.000      0.000
REMARK  Name = NuBBE_420
REMARK  18 active torsions:
REMARK  status: ('A' for Active; 'I' for Inactive)
REMARK    1  A    between atoms: O_1  and  C_2
REMARK    2  A    between atoms: C_2  and  C_3
REMARK    3  A    between atoms: C_3  and  C_4
REMARK    4  A    between atoms: C_6  and  C_45
REMARK    5  A    between atoms: C_8  and  O_16
REMARK    6  A    between atoms: C_12  and  C_13
REMARK    7  A    between atoms: C_13  and  O_14
REMARK    8  A    between atoms: O_16  and  C_17
REMARK    9  A    between atoms: C_20  and  C_28
REMARK   10  A    between atoms: C_22  and  O_27
REMARK   11  A    between atoms: C_24  and  O_26
REMARK   12  A    between atoms: C_28  and  O_29
REMARK   13  A    between atoms: C_30  and  O_32
REMARK   14  A    between atoms: O_32  and  C_33
REMARK   15  A    between atoms: C_33  and  C_34
REMARK   16  A    between atoms: C_35  and  C_36
REMARK   17  A    between atoms: C_38  and  O_39
REMARK   18  A    between atoms: C_40  and  O_43
REMARK                            x       y       z     vdW  Elec       q    Type
REMARK                         _______ _______ _______ _____ _____    ______ ____
ROOT
ATOM      1  C   LIG A   1      -8.339   0.760 127.031  0.00  0.00    +0.298 C 
ATOM      2  O   LIG A   1      -8.942   1.219 125.815  0.00  0.00    -0.339 OA
ATOM      3  C   LIG A   1      -8.501   2.487 125.314  0.00  0.00    +0.178 C 
ATOM      4  C   LIG A   1      -7.122   2.882 125.843  0.00  0.00    +0.178 C 
ATOM      5  C   LIG A   1      -7.273   3.077 127.351  0.00  0.00    +0.191 C 
ATOM      6  C   LIG A   1      -7.979   1.889 128.036  0.00  0.00    +0.263 C 
ENDROOT
BRANCH   4   7
ATOM      7  O   LIG A   1      -6.660   4.104 125.267  0.00  0.00    -0.386 OA
ATOM      8  H   LIG A   1      -7.276   4.800 125.567  0.00  0.00    +0.210 HD
ENDBRANCH   4   7
BRANCH   5   9
ATOM      9  O   LIG A   1      -5.991   3.366 127.931  0.00  0.00    -0.385 OA
ATOM     10  H   LIG A   1      -5.299   3.090 127.304  0.00  0.00    +0.210 HD
ENDBRANCH   5   9
BRANCH   3  11
ATOM     11  C   LIG A   1      -8.570   2.446 123.784  0.00  0.00    +0.190 C 
BRANCH  11  12
ATOM     12  O   LIG A   1      -8.403   3.750 123.231  0.00  0.00    -0.392 OA
ATOM     13  H   LIG A   1      -8.911   4.339 123.815  0.00  0.00    +0.209 HD
ENDBRANCH  11  12
ENDBRANCH   3  11
BRANCH   6  14
ATOM     14  O   LIG A   1      -9.155   2.465 128.645  0.00  0.00    -0.450 OA
BRANCH  14  15
ATOM     15  C   LIG A   1      -8.953   3.099 129.833  0.00  0.00    +0.332 C 
ATOM     16  O   LIG A   1      -8.390   2.674 130.802  0.00  0.00    -0.246 OA
BRANCH  15  17
ATOM     17  C   LIG A   1      -9.566   4.446 129.702  0.00  0.00    +0.092 C 
ATOM     18  C   LIG A   1     -10.626   4.767 130.435  0.00  0.00    +0.015 C 
BRANCH  18  19
ATOM     19  C   LIG A   1     -11.277   6.085 130.339  0.00  0.00    -0.021 A 
ATOM     20  C   LIG A   1     -10.961   6.912 129.252  0.00  0.00    +0.057 A 
ATOM     21  C   LIG A   1     -11.570   8.157 129.143  0.00  0.00    +0.159 A 
ATOM     22  C   LIG A   1     -12.486   8.582 130.102  0.00  0.00    +0.158 A 
ATOM     23  C   LIG A   1     -12.815   7.774 131.176  0.00  0.00    +0.050 A 
ATOM     24  C   LIG A   1     -12.216   6.519 131.290  0.00  0.00    +0.012 A 
BRANCH  22  25
ATOM     25  O   LIG A   1     -13.080   9.804 129.984  0.00  0.00    -0.503 OA
ATOM     26  H   LIG A   1     -13.351   9.854 129.046  0.00  0.00    +0.292 HD
ENDBRANCH  22  25
BRANCH  21  27
ATOM     27  O   LIG A   1     -11.298   9.004 128.105  0.00  0.00    -0.503 OA
ATOM     28  H   LIG A   1     -11.866   8.758 127.354  0.00  0.00    +0.292 HD
ENDBRANCH  21  27
ENDBRANCH  18  19
ENDBRANCH  15  17
ENDBRANCH  14  15
ENDBRANCH   6  14
BRANCH   1  29
ATOM     29  O   LIG A   1      -7.162  -0.014 126.744  0.00  0.00    -0.308 OA
BRANCH  29  32
ATOM     30  C   LIG A   1      -7.899  -2.451 125.183  0.00  0.00    +0.044 C 
ATOM     31  C   LIG A   1      -8.315  -2.192 126.671  0.00  0.00    +0.088 C 
ATOM     32  C   LIG A   1      -7.225  -1.321 127.347  0.00  0.00    +0.317 C 
ATOM     33  O   LIG A   1      -5.963  -2.014 127.350  0.00  0.00    -0.470 OA
ATOM     34  C   LIG A   1      -5.579  -2.457 126.113  0.00  0.00    +0.201 C 
ATOM     35  C   LIG A   1      -6.393  -2.607 125.059  0.00  0.00    +0.074 C 
BRANCH  31  36
ATOM     36  C   LIG A   1      -8.496  -3.439 127.535  0.00  0.00    -0.025 C 
ATOM     37  C   LIG A   1      -8.597  -3.460 128.870  0.00  0.00    +0.004 C 
ENDBRANCH  31  36
BRANCH  35  38
ATOM     38  C   LIG A   1      -5.782  -2.743 123.720  0.00  0.00    +0.336 C 
ATOM     39  O   LIG A   1      -4.911  -3.535 123.412  0.00  0.00    -0.245 OA
BRANCH  38  40
ATOM     40  O   LIG A   1      -6.323  -1.931 122.795  0.00  0.00    -0.477 OA
ATOM     41  H   LIG A   1      -7.217  -1.745 123.148  0.00  0.00    +0.295 HD
ENDBRANCH  38  40
ENDBRANCH  35  38
BRANCH  30  42
ATOM     42  C   LIG A   1      -8.671  -3.630 124.531  0.00  0.00    +0.037 C 
BRANCH  42  43
ATOM     43  C   LIG A   1      -9.587  -3.209 123.385  0.00  0.00    +0.156 C 
BRANCH  43  44
ATOM     44  O   LIG A   1      -9.443  -1.814 123.159  0.00  0.00    -0.395 OA
ATOM     45  H   LIG A   1      -8.606  -1.680 122.679  0.00  0.00    +0.209 HD
ENDBRANCH  43  44
ENDBRANCH  42  43
ENDBRANCH  30  42
ENDBRANCH  29  32
ENDBRANCH   1  29
TORSDOF 18
ENDMDL
MODEL 2
REMARK VINA RESULT:      -7.8      3.561      8.677
REMARK  Name = NuBBE_420
REMARK  18 active torsions:
REMARK  status: ('A' for Active; 'I' for Inactive)
REMARK    1  A    between atoms: O_1  and  C_2
REMARK    2  A    between atoms: C_2  and  C_3
REMARK    3  A    between atoms: C_3  and  C_4
REMARK    4  A    between atoms: C_6  and  C_45
REMARK    5  A    between atoms: C_8  and  O_16
REMARK    6  A    between atoms: C_12  and  C_13
REMARK    7  A    between atoms: C_13  and  O_14
REMARK    8  A    between atoms: O_16  and  C_17
REMARK    9  A    between atoms: C_20  and  C_28
REMARK   10  A    between atoms: C_22  and  O_27
REMARK   11  A    between atoms: C_24  and  O_26
REMARK   12  A    between atoms: C_28  and  O_29
REMARK   13  A    between atoms: C_30  and  O_32
REMARK   14  A    between atoms: O_32  and  C_33
REMARK   15  A    between atoms: C_33  and  C_34
REMARK   16  A    between atoms: C_35  and  C_36
REMARK   17  A    between atoms: C_38  and  O_39
REMARK   18  A    between atoms: C_40  and  O_43
REMARK                            x       y       z     vdW  Elec       q    Type
REMARK                         _______ _______ _______ _____ _____    ______ ____
ROOT
ATOM      1  C   LIG A   1      -5.257   4.702 129.771  0.00  0.00    +0.298 C 
ATOM      2  O   LIG A   1      -4.886   4.769 131.153  0.00  0.00    -0.339 OA
ATOM      3  C   LIG A   1      -4.122   5.912 131.562  0.00  0.00    +0.178 C 
ATOM      4  C   LIG A   1      -4.283   7.098 130.611  0.00  0.00    +0.178 C 
ATOM      5  C   LIG A   1      -3.678   6.670 129.274  0.00  0.00    +0.191 C 
ATOM      6  C   LIG A   1      -4.208   5.302 128.795  0.00  0.00    +0.263 C 
ENDROOT
BRANCH   4   7
ATOM      7  O   LIG A   1      -3.586   8.254 131.078  0.00  0.00    -0.386 OA
ATOM      8  H   LIG A   1      -4.152   9.021 130.867  0.00  0.00    +0.210 HD
ENDBRANCH   4   7
BRANCH   5   9
ATOM      9  O   LIG A   1      -3.872   7.709 128.301  0.00  0.00    -0.385 OA
ATOM     10  H   LIG A   1      -4.568   7.425 127.682  0.00  0.00    +0.210 HD
ENDBRANCH   5   9
BRANCH   3  11
ATOM     11  C   LIG A   1      -4.501   6.246 133.009  0.00  0.00    +0.190 C 
BRANCH  11  12
ATOM     12  O   LIG A   1      -3.445   6.947 133.662  0.00  0.00    -0.392 OA
ATOM     13  H   LIG A   1      -3.887   7.526 134.308  0.00  0.00    +0.209 HD
ENDBRANCH  11  12
ENDBRANCH   3  11
BRANCH   6  14
ATOM     14  O   LIG A   1      -3.031   4.472 128.688  0.00  0.00    -0.450 OA
BRANCH  14  15
ATOM     15  C   LIG A   1      -2.863   3.836 127.495  0.00  0.00    +0.332 C 
ATOM     16  O   LIG A   1      -1.844   3.407 127.034  0.00  0.00    -0.246 OA
BRANCH  15  17
ATOM     17  C   LIG A   1      -4.205   3.766 126.862  0.00  0.00    +0.092 C 
ATOM     18  C   LIG A   1      -4.661   2.606 126.399  0.00  0.00    +0.015 C 
BRANCH  18  19
ATOM     19  C   LIG A   1      -5.981   2.482 125.757  0.00  0.00    -0.021 A 
ATOM     20  C   LIG A   1      -6.859   3.573 125.812  0.00  0.00    +0.057 A 
ATOM     21  C   LIG A   1      -8.107   3.475 125.206  0.00  0.00    +0.159 A 
ATOM     22  C   LIG A   1      -8.483   2.306 124.548  0.00  0.00    +0.158 A 
ATOM     23  C   LIG A   1      -7.624   1.224 124.477  0.00  0.00    +0.050 A 
ATOM     24  C   LIG A   1      -6.365   1.316 125.074  0.00  0.00    +0.012 A 
BRANCH  22  25
ATOM     25  O   LIG A   1      -9.707   2.222 123.954  0.00  0.00    -0.503 OA
ATOM     26  H   LIG A   1     -10.146   3.066 124.177  0.00  0.00    +0.292 HD
ENDBRANCH  22  25
BRANCH  21  27
ATOM     27  O   LIG A   1      -9.003   4.507 125.230  0.00  0.00    -0.503 OA
ATOM     28  H   LIG A   1      -9.329   4.607 126.141  0.00  0.00    +0.292 HD
ENDBRANCH  21  27
ENDBRANCH  18  19
ENDBRANCH  15  17
ENDBRANCH  14  15
ENDBRANCH   6  14
BRANCH   1  29
ATOM     29  O   LIG A   1      -6.524   5.345 129.561  0.00  0.00    -0.308 OA
BRANCH  29  32
ATOM     30  C   LIG A   1      -8.741   4.013 131.055  0.00  0.00    +0.044 C 
ATOM     31  C   LIG A   1      -7.940   3.353 129.882  0.00  0.00    +0.088 C 
ATOM     32  C   LIG A   1      -7.466   4.467 128.914  0.00  0.00    +0.317 C 
ATOM     33  O   LIG A   1      -8.598   5.154 128.350  0.00  0.00    -0.470 OA
ATOM     34  C   LIG A   1      -9.478   5.622 129.290  0.00  0.00    +0.201 C 
ATOM     35  C   LIG A   1      -9.547   5.202 130.561  0.00  0.00    +0.074 C 
BRANCH  31  36
ATOM     36  C   LIG A   1      -8.709   2.329 129.049  0.00  0.00    -0.025 C 
ATOM     37  C   LIG A   1      -8.185   1.250 128.452  0.00  0.00    +0.004 C 
ENDBRANCH  31  36
BRANCH  35  38
ATOM     38  C   LIG A   1     -10.284   6.038 131.532  0.00  0.00    +0.336 C 
ATOM     39  O   LIG A   1     -11.468   6.312 131.481  0.00  0.00    -0.245 OA
BRANCH  38  40
ATOM     40  O   LIG A   1      -9.533   6.449 132.568  0.00  0.00    -0.477 OA
ATOM     41  H   LIG A   1     -10.131   7.045 133.063  0.00  0.00    +0.295 HD
ENDBRANCH  38  40
ENDBRANCH  35  38
BRANCH  30  42
ATOM     42  C   LIG A   1      -9.609   2.998 131.847  0.00  0.00    +0.037 C 
BRANCH  42  43
ATOM     43  C   LIG A   1      -9.223   2.873 133.318  0.00  0.00    +0.156 C 
BRANCH  43  44
ATOM     44  O   LIG A   1      -9.918   3.856 134.071  0.00  0.00    -0.395 OA
ATOM     45  H   LIG A   1     -10.677   3.418 134.496  0.00  0.00    +0.209 HD
ENDBRANCH  43  44
ENDBRANCH  42  43
ENDBRANCH  30  42
ENDBRANCH  29  32
ENDBRANCH   1  29
TORSDOF 18
ENDMDL
MODEL 3
REMARK VINA RESULT:      -7.7      3.371      6.317
REMARK  Name = NuBBE_420
REMARK  18 active torsions:
REMARK  status: ('A' for Active; 'I' for Inactive)
REMARK    1  A    between atoms: O_1  and  C_2
REMARK    2  A    between atoms: C_2  and  C_3
REMARK    3  A    between atoms: C_3  and  C_4
REMARK    4  A    between atoms: C_6  and  C_45
REMARK    5  A    between atoms: C_8  and  O_16
REMARK    6  A    between atoms: C_12  and  C_13
REMARK    7  A    between atoms: C_13  and  O_14
REMARK    8  A    between atoms: O_16  and  C_17
REMARK    9  A    between atoms: C_20  and  C_28
REMARK   10  A    between atoms: C_22  and  O_27
REMARK   11  A    between atoms: C_24  and  O_26
REMARK   12  A    between atoms: C_28  and  O_29
REMARK   13  A    between atoms: C_30  and  O_32
REMARK   14  A    between atoms: O_32  and  C_33
REMARK   15  A    between atoms: C_33  and  C_34
REMARK   16  A    between atoms: C_35  and  C_36
REMARK   17  A    between atoms: C_38  and  O_39
REMARK   18  A    between atoms: C_40  and  O_43
REMARK                            x       y       z     vdW  Elec       q    Type
REMARK                         _______ _______ _______ _____ _____    ______ ____
ROOT
ATOM      1  C   LIG A   1      -6.188   1.054 127.254  0.00  0.00    +0.298 C 
ATOM      2  O   LIG A   1      -6.324   0.965 128.677  0.00  0.00    -0.339 OA
ATOM      3  C   LIG A   1      -7.304   1.815 129.288  0.00  0.00    +0.178 C 
ATOM      4  C   LIG A   1      -8.384   2.268 128.304  0.00  0.00    +0.178 C 
ATOM      5  C   LIG A   1      -7.686   3.144 127.264  0.00  0.00    +0.191 C 
ATOM      6  C   LIG A   1      -6.428   2.476 126.673  0.00  0.00    +0.263 C 
ENDROOT
BRANCH   4   7
ATOM      7  O   LIG A   1      -9.399   3.040 128.946  0.00  0.00    -0.386 OA
ATOM      8  H   LIG A   1      -9.098   3.184 129.864  0.00  0.00    +0.210 HD
ENDBRANCH   4   7
BRANCH   5   9
ATOM      9  O   LIG A   1      -8.628   3.537 126.253  0.00  0.00    -0.385 OA
ATOM     10  H   LIG A   1      -9.484   3.718 126.683  0.00  0.00    +0.210 HD
ENDBRANCH   5   9
BRANCH   3  11
ATOM     11  C   LIG A   1      -7.872   1.087 130.510  0.00  0.00    +0.190 C 
BRANCH  11  12
ATOM     12  O   LIG A   1      -6.915   0.180 131.053  0.00  0.00    -0.392 OA
ATOM     13  H   LIG A   1      -6.420  -0.156 130.286  0.00  0.00    +0.209 HD
ENDBRANCH  11  12
ENDBRANCH   3  11
BRANCH   6  14
ATOM     14  O   LIG A   1      -5.348   3.380 126.996  0.00  0.00    -0.450 OA
BRANCH  14  15
ATOM     15  C   LIG A   1      -4.459   3.619 125.993  0.00  0.00    +0.332 C 
ATOM     16  O   LIG A   1      -3.279   3.802 126.091  0.00  0.00    -0.246 OA
BRANCH  15  17
ATOM     17  C   LIG A   1      -5.236   3.604 124.727  0.00  0.00    +0.092 C 
ATOM     18  C   LIG A   1      -4.753   4.203 123.644  0.00  0.00    +0.015 C 
BRANCH  18  19
ATOM     19  C   LIG A   1      -5.486   4.224 122.366  0.00  0.00    -0.021 A 
ATOM     20  C   LIG A   1      -4.919   4.903 121.279  0.00  0.00    +0.057 A 
ATOM     21  C   LIG A   1      -5.595   4.928 120.064  0.00  0.00    +0.159 A 
ATOM     22  C   LIG A   1      -6.822   4.286 119.924  0.00  0.00    +0.158 A 
ATOM     23  C   LIG A   1      -7.391   3.604 120.985  0.00  0.00    +0.050 A 
ATOM     24  C   LIG A   1      -6.716   3.565 122.207  0.00  0.00    +0.012 A 
BRANCH  22  25
ATOM     25  O   LIG A   1      -7.475   4.314 118.727  0.00  0.00    -0.503 OA
ATOM     26  H   LIG A   1      -8.351   4.694 118.935  0.00  0.00    +0.292 HD
ENDBRANCH  22  25
BRANCH  21  27
ATOM     27  O   LIG A   1      -5.089   5.576 118.971  0.00  0.00    -0.503 OA
ATOM     28  H   LIG A   1      -4.697   6.416 119.267  0.00  0.00    +0.292 HD
ENDBRANCH  21  27
ENDBRANCH  18  19
ENDBRANCH  15  17
ENDBRANCH  14  15
ENDBRANCH   6  14
BRANCH   1  29
ATOM     29  O   LIG A   1      -7.072   0.123 126.608  0.00  0.00    -0.308 OA
BRANCH  29  32
ATOM     30  C   LIG A   1      -7.796  -2.374 125.137  0.00  0.00    +0.044 C 
ATOM     31  C   LIG A   1      -8.113  -2.111 126.648  0.00  0.00    +0.088 C 
ATOM     32  C   LIG A   1      -7.023  -1.175 127.231  0.00  0.00    +0.317 C 
ATOM     33  O   LIG A   1      -5.731  -1.804 127.149  0.00  0.00    -0.470 OA
ATOM     34  C   LIG A   1      -5.416  -2.248 125.893  0.00  0.00    +0.201 C 
ATOM     35  C   LIG A   1      -6.297  -2.456 124.904  0.00  0.00    +0.074 C 
BRANCH  31  36
ATOM     36  C   LIG A   1      -8.167  -3.351 127.539  0.00  0.00    -0.025 C 
ATOM     37  C   LIG A   1      -8.565  -3.382 128.818  0.00  0.00    +0.004 C 
ENDBRANCH  31  36
BRANCH  35  38
ATOM     38  C   LIG A   1      -5.779  -2.584 123.525  0.00  0.00    +0.336 C 
ATOM     39  O   LIG A   1      -4.909  -3.352 123.160  0.00  0.00    -0.245 OA
BRANCH  38  40
ATOM     40  O   LIG A   1      -6.409  -1.794 122.638  0.00  0.00    -0.477 OA
ATOM     41  H   LIG A   1      -6.560  -2.384 121.872  0.00  0.00    +0.295 HD
ENDBRANCH  38  40
ENDBRANCH  35  38
BRANCH  30  42
ATOM     42  C   LIG A   1      -8.552  -3.601 124.559  0.00  0.00    +0.037 C 
BRANCH  42  43
ATOM     43  C   LIG A   1      -9.594  -3.242 123.505  0.00  0.00    +0.156 C 
BRANCH  43  44
ATOM     44  O   LIG A   1      -9.465  -1.868 123.166  0.00  0.00    -0.395 OA
ATOM     45  H   LIG A   1      -8.533  -1.620 123.302  0.00  0.00    +0.209 HD
ENDBRANCH  43  44
ENDBRANCH  42  43
ENDBRANCH  30  42
ENDBRANCH  29  32
ENDBRANCH   1  29
TORSDOF 18
ENDMDL
MODEL 4
REMARK VINA RESULT:      -7.6      4.218      6.258
REMARK  Name = NuBBE_420
REMARK  18 active torsions:
REMARK  status: ('A' for Active; 'I' for Inactive)
REMARK    1  A    between atoms: O_1  and  C_2
REMARK    2  A    between atoms: C_2  and  C_3
REMARK    3  A    between atoms: C_3  and  C_4
REMARK    4  A    between atoms: C_6  and  C_45
REMARK    5  A    between atoms: C_8  and  O_16
REMARK    6  A    between atoms: C_12  and  C_13
REMARK    7  A    between atoms: C_13  and  O_14
REMARK    8  A    between atoms: O_16  and  C_17
REMARK    9  A    between atoms: C_20  and  C_28
REMARK   10  A    between atoms: C_22  and  O_27
REMARK   11  A    between atoms: C_24  and  O_26
REMARK   12  A    between atoms: C_28  and  O_29
REMARK   13  A    between atoms: C_30  and  O_32
REMARK   14  A    between atoms: O_32  and  C_33
REMARK   15  A    between atoms: C_33  and  C_34
REMARK   16  A    between atoms: C_35  and  C_36
REMARK   17  A    between atoms: C_38  and  O_39
REMARK   18  A    between atoms: C_40  and  O_43
REMARK                            x       y       z     vdW  Elec       q    Type
REMARK                         _______ _______ _______ _____ _____    ______ ____
ROOT
ATOM      1  C   LIG A   1      -5.208  -1.440 128.122  0.00  0.00    +0.298 C 
ATOM      2  O   LIG A   1      -4.764  -2.545 128.918  0.00  0.00    -0.339 OA
ATOM      3  C   LIG A   1      -5.546  -2.862 130.077  0.00  0.00    +0.178 C 
ATOM      4  C   LIG A   1      -6.978  -2.333 129.984  0.00  0.00    +0.178 C 
ATOM      5  C   LIG A   1      -6.879  -0.808 129.971  0.00  0.00    +0.191 C 
ATOM      6  C   LIG A   1      -5.864  -0.288 128.932  0.00  0.00    +0.263 C 
ENDROOT
BRANCH   4   7
ATOM      7  O   LIG A   1      -7.767  -2.731 131.105  0.00  0.00    -0.386 OA
ATOM      8  H   LIG A   1      -8.665  -2.905 130.763  0.00  0.00    +0.210 HD
ENDBRANCH   4   7
BRANCH   5   9
ATOM      9  O   LIG A   1      -8.187  -0.241 129.797  0.00  0.00    -0.385 OA
ATOM     10  H   LIG A   1      -8.097   0.599 129.311  0.00  0.00    +0.210 HD
ENDBRANCH   5   9
BRANCH   3  11
ATOM     11  C   LIG A   1      -5.477  -4.376 130.300  0.00  0.00    +0.190 C 
BRANCH  11  12
ATOM     12  O   LIG A   1      -5.643  -4.696 131.680  0.00  0.00    -0.392 OA
ATOM     13  H   LIG A   1      -6.497  -4.303 131.930  0.00  0.00    +0.209 HD
ENDBRANCH  11  12
ENDBRANCH   3  11
BRANCH   6  14
ATOM     14  O   LIG A   1      -4.893   0.449 129.708  0.00  0.00    -0.450 OA
BRANCH  14  15
ATOM     15  C   LIG A   1      -4.768   1.769 129.396  0.00  0.00    +0.332 C 
ATOM     16  O   LIG A   1      -4.136   2.601 129.983  0.00  0.00    -0.246 OA
BRANCH  15  17
ATOM     17  C   LIG A   1      -5.569   1.990 128.166  0.00  0.00    +0.092 C 
ATOM     18  C   LIG A   1      -5.140   2.837 127.236  0.00  0.00    +0.015 C 
BRANCH  18  19
ATOM     19  C   LIG A   1      -5.899   3.099 126.001  0.00  0.00    -0.021 A 
ATOM     20  C   LIG A   1      -7.293   2.960 126.029  0.00  0.00    +0.057 A 
ATOM     21  C   LIG A   1      -8.026   3.209 124.874  0.00  0.00    +0.159 A 
ATOM     22  C   LIG A   1      -7.384   3.593 123.699  0.00  0.00    +0.158 A 
ATOM     23  C   LIG A   1      -6.010   3.743 123.658  0.00  0.00    +0.050 A 
ATOM     24  C   LIG A   1      -5.266   3.505 124.815  0.00  0.00    +0.012 A 
BRANCH  22  25
ATOM     25  O   LIG A   1      -8.113   3.837 122.572  0.00  0.00    -0.503 OA
ATOM     26  H   LIG A   1      -8.471   4.737 122.704  0.00  0.00    +0.292 HD
ENDBRANCH  22  25
BRANCH  21  27
ATOM     27  O   LIG A   1      -9.388   3.088 124.843  0.00  0.00    -0.503 OA
ATOM     28  H   LIG A   1      -9.608   2.177 124.582  0.00  0.00    +0.292 HD
ENDBRANCH  21  27
ENDBRANCH  18  19
ENDBRANCH  15  17
ENDBRANCH  14  15
ENDBRANCH   6  14
BRANCH   1  29
ATOM     29  O   LIG A   1      -6.122  -1.887 127.108  0.00  0.00    -0.308 OA
BRANCH  29  32
ATOM     30  C   LIG A   1      -7.650  -2.409 124.595  0.00  0.00    +0.044 C 
ATOM     31  C   LIG A   1      -6.244  -3.019 124.921  0.00  0.00    +0.088 C 
ATOM     32  C   LIG A   1      -5.472  -2.030 125.831  0.00  0.00    +0.317 C 
ATOM     33  O   LIG A   1      -5.267  -0.779 125.148  0.00  0.00    -0.470 OA
ATOM     34  C   LIG A   1      -6.420  -0.233 124.648  0.00  0.00    +0.201 C 
ATOM     35  C   LIG A   1      -7.565  -0.900 124.443  0.00  0.00    +0.074 C 
BRANCH  31  36
ATOM     36  C   LIG A   1      -5.354  -3.314 123.715  0.00  0.00    -0.025 C 
ATOM     37  C   LIG A   1      -4.509  -4.347 123.598  0.00  0.00    +0.004 C 
ENDBRANCH  31  36
BRANCH  35  38
ATOM     38  C   LIG A   1      -8.802  -0.115 124.249  0.00  0.00    +0.336 C 
ATOM     39  O   LIG A   1      -9.128   0.458 123.225  0.00  0.00    -0.245 OA
BRANCH  38  40
ATOM     40  O   LIG A   1      -9.621  -0.127 125.315  0.00  0.00    -0.477 OA
ATOM     41  H   LIG A   1      -9.719  -1.079 125.519  0.00  0.00    +0.295 HD
ENDBRANCH  38  40
ENDBRANCH  35  38
BRANCH  30  42
ATOM     42  C   LIG A   1      -8.342  -3.087 123.381  0.00  0.00    +0.037 C 
BRANCH  42  43
ATOM     43  C   LIG A   1      -9.763  -3.563 123.669  0.00  0.00    +0.156 C 
BRANCH  43  44
ATOM     44  O   LIG A   1     -10.130  -3.174 124.985  0.00  0.00    -0.395 OA
ATOM     45  H   LIG A   1      -9.691  -3.785 125.604  0.00  0.00    +0.209 HD
ENDBRANCH  43  44
ENDBRANCH  42  43
ENDBRANCH  30  42
ENDBRANCH  29  32
ENDBRANCH   1  29
TORSDOF 18
ENDMDL
MODEL 5
REMARK VINA RESULT:      -7.6      3.435      6.481
REMARK  Name = NuBBE_420
REMARK  18 active torsions:
REMARK  status: ('A' for Active; 'I' for Inactive)
REMARK    1  A    between atoms: O_1  and  C_2
REMARK    2  A    between atoms: C_2  and  C_3
REMARK    3  A    between atoms: C_3  and  C_4
REMARK    4  A    between atoms: C_6  and  C_45
REMARK    5  A    between atoms: C_8  and  O_16
REMARK    6  A    between atoms: C_12  and  C_13
REMARK    7  A    between atoms: C_13  and  O_14
REMARK    8  A    between atoms: O_16  and  C_17
REMARK    9  A    between atoms: C_20  and  C_28
REMARK   10  A    between atoms: C_22  and  O_27
REMARK   11  A    between atoms: C_24  and  O_26
REMARK   12  A    between atoms: C_28  and  O_29
REMARK   13  A    between atoms: C_30  and  O_32
REMARK   14  A    between atoms: O_32  and  C_33
REMARK   15  A    between atoms: C_33  and  C_34
REMARK   16  A    between atoms: C_35  and  C_36
REMARK   17  A    between atoms: C_38  and  O_39
REMARK   18  A    between atoms: C_40  and  O_43
REMARK                            x       y       z     vdW  Elec       q    Type
REMARK                         _______ _______ _______ _____ _____    ______ ____
ROOT
ATOM      1  C   LIG A   1      -8.016   1.209 127.513  0.00  0.00    +0.298 C 
ATOM      2  O   LIG A   1      -8.543   2.379 126.875  0.00  0.00    -0.339 OA
ATOM      3  C   LIG A   1      -7.604   3.411 126.542  0.00  0.00    +0.178 C 
ATOM      4  C   LIG A   1      -6.171   2.890 126.433  0.00  0.00    +0.178 C 
ATOM      5  C   LIG A   1      -5.770   2.419 127.831  0.00  0.00    +0.191 C 
ATOM      6  C   LIG A   1      -6.818   1.480 128.464  0.00  0.00    +0.263 C 
ENDROOT
BRANCH   4   7
ATOM      7  O   LIG A   1      -5.263   3.911 126.016  0.00  0.00    -0.386 OA
ATOM      8  H   LIG A   1      -5.610   4.751 126.374  0.00  0.00    +0.210 HD
ENDBRANCH   4   7
BRANCH   5   9
ATOM      9  O   LIG A   1      -4.459   1.834 127.787  0.00  0.00    -0.385 OA
ATOM     10  H   LIG A   1      -4.553   0.865 127.806  0.00  0.00    +0.210 HD
ENDBRANCH   5   9
BRANCH   3  11
ATOM     11  C   LIG A   1      -8.091   4.105 125.266  0.00  0.00    +0.190 C 
BRANCH  11  12
ATOM     12  O   LIG A   1      -7.885   5.513 125.342  0.00  0.00    -0.392 OA
ATOM     13  H   LIG A   1      -6.937   5.641 125.164  0.00  0.00    +0.209 HD
ENDBRANCH  11  12
ENDBRANCH   3  11
BRANCH   6  14
ATOM     14  O   LIG A   1      -7.229   2.153 129.674  0.00  0.00    -0.450 OA
BRANCH  14  15
ATOM     15  C   LIG A   1      -8.012   1.425 130.518  0.00  0.00    +0.332 C 
ATOM     16  O   LIG A   1      -9.127   1.676 130.878  0.00  0.00    -0.246 OA
BRANCH  15  17
ATOM     17  C   LIG A   1      -7.215   0.236 130.912  0.00  0.00    +0.092 C 
ATOM     18  C   LIG A   1      -7.775  -0.969 130.913  0.00  0.00    +0.015 C 
BRANCH  18  19
ATOM     19  C   LIG A   1      -7.032  -2.180 131.302  0.00  0.00    -0.021 A 
ATOM     20  C   LIG A   1      -7.195  -2.678 132.602  0.00  0.00    +0.057 A 
ATOM     21  C   LIG A   1      -6.505  -3.824 132.984  0.00  0.00    +0.159 A 
ATOM     22  C   LIG A   1      -5.662  -4.473 132.087  0.00  0.00    +0.158 A 
ATOM     23  C   LIG A   1      -5.497  -3.999 130.797  0.00  0.00    +0.050 A 
ATOM     24  C   LIG A   1      -6.192  -2.855 130.401  0.00  0.00    +0.012 A 
BRANCH  22  25
ATOM     25  O   LIG A   1      -4.993  -5.598 132.471  0.00  0.00    -0.503 OA
ATOM     26  H   LIG A   1      -5.346  -5.800 133.359  0.00  0.00    +0.292 HD
ENDBRANCH  22  25
BRANCH  21  27
ATOM     27  O   LIG A   1      -6.625  -4.352 134.239  0.00  0.00    -0.503 OA
ATOM     28  H   LIG A   1      -7.529  -4.698 134.340  0.00  0.00    +0.292 HD
ENDBRANCH  21  27
ENDBRANCH  18  19
ENDBRANCH  15  17
ENDBRANCH  14  15
ENDBRANCH   6  14
BRANCH   1  29
ATOM     29  O   LIG A   1      -7.632   0.234 126.531  0.00  0.00    -0.308 OA
BRANCH  29  32
ATOM     30  C   LIG A   1      -8.064  -2.334 125.066  0.00  0.00    +0.044 C 
ATOM     31  C   LIG A   1      -8.332  -2.129 126.596  0.00  0.00    +0.088 C 
ATOM     32  C   LIG A   1      -7.360  -1.048 127.131  0.00  0.00    +0.317 C 
ATOM     33  O   LIG A   1      -5.995  -1.479 126.971  0.00  0.00    -0.470 OA
ATOM     34  C   LIG A   1      -5.690  -1.865 125.693  0.00  0.00    +0.201 C 
ATOM     35  C   LIG A   1      -6.584  -2.194 124.751  0.00  0.00    +0.074 C 
BRANCH  31  36
ATOM     36  C   LIG A   1      -8.154  -3.369 127.471  0.00  0.00    -0.025 C 
ATOM     37  C   LIG A   1      -9.088  -3.909 128.265  0.00  0.00    +0.004 C 
ENDBRANCH  31  36
BRANCH  35  38
ATOM     38  C   LIG A   1      -6.132  -2.236 123.344  0.00  0.00    +0.336 C 
ATOM     39  O   LIG A   1      -6.667  -1.673 122.407  0.00  0.00    -0.245 OA
BRANCH  38  40
ATOM     40  O   LIG A   1      -4.992  -2.926 123.165  0.00  0.00    -0.477 OA
ATOM     41  H   LIG A   1      -4.791  -2.795 122.217  0.00  0.00    +0.295 HD
ENDBRANCH  38  40
ENDBRANCH  35  38
BRANCH  30  42
ATOM     42  C   LIG A   1      -8.664  -3.655 124.513  0.00  0.00    +0.037 C 
BRANCH  42  43
ATOM     43  C   LIG A   1      -9.679  -3.449 123.392  0.00  0.00    +0.156 C 
BRANCH  43  44
ATOM     44  O   LIG A   1      -9.736  -2.069 123.059  0.00  0.00    -0.395 OA
ATOM     45  H   LIG A   1      -8.859  -1.687 123.240  0.00  0.00    +0.209 HD
ENDBRANCH  43  44
ENDBRANCH  42  43
ENDBRANCH  30  42
ENDBRANCH  29  32
ENDBRANCH   1  29
TORSDOF 18
ENDMDL
MODEL 6
REMARK VINA RESULT:      -7.5      2.919      8.613
REMARK  Name = NuBBE_420
REMARK  18 active torsions:
REMARK  status: ('A' for Active; 'I' for Inactive)
REMARK    1  A    between atoms: O_1  and  C_2
REMARK    2  A    between atoms: C_2  and  C_3
REMARK    3  A    between atoms: C_3  and  C_4
REMARK    4  A    between atoms: C_6  and  C_45
REMARK    5  A    between atoms: C_8  and  O_16
REMARK    6  A    between atoms: C_12  and  C_13
REMARK    7  A    between atoms: C_13  and  O_14
REMARK    8  A    between atoms: O_16  and  C_17
REMARK    9  A    between atoms: C_20  and  C_28
REMARK   10  A    between atoms: C_22  and  O_27
REMARK   11  A    between atoms: C_24  and  O_26
REMARK   12  A    between atoms: C_28  and  O_29
REMARK   13  A    between atoms: C_30  and  O_32
REMARK   14  A    between atoms: O_32  and  C_33
REMARK   15  A    between atoms: C_33  and  C_34
REMARK   16  A    between atoms: C_35  and  C_36
REMARK   17  A    between atoms: C_38  and  O_39
REMARK   18  A    between atoms: C_40  and  O_43
REMARK                            x       y       z     vdW  Elec       q    Type
REMARK                         _______ _______ _______ _____ _____    ______ ____
ROOT
ATOM      1  C   LIG A   1      -7.641   1.946 126.916  0.00  0.00    +0.298 C 
ATOM      2  O   LIG A   1      -6.533   2.612 126.299  0.00  0.00    -0.339 OA
ATOM      3  C   LIG A   1      -6.738   3.111 124.970  0.00  0.00    +0.178 C 
ATOM      4  C   LIG A   1      -8.217   3.324 124.643  0.00  0.00    +0.178 C 
ATOM      5  C   LIG A   1      -8.869   1.941 124.657  0.00  0.00    +0.191 C 
ATOM      6  C   LIG A   1      -8.535   1.141 125.933  0.00  0.00    +0.263 C 
ENDROOT
BRANCH   4   7
ATOM      7  O   LIG A   1      -8.399   3.902 123.351  0.00  0.00    -0.386 OA
ATOM      8  H   LIG A   1      -8.540   4.858 123.493  0.00  0.00    +0.210 HD
ENDBRANCH   4   7
BRANCH   5   9
ATOM      9  O   LIG A   1     -10.283   2.072 124.443  0.00  0.00    -0.385 OA
ATOM     10  H   LIG A   1     -10.701   2.324 125.286  0.00  0.00    +0.210 HD
ENDBRANCH   5   9
BRANCH   3  11
ATOM     11  C   LIG A   1      -5.897   4.381 124.802  0.00  0.00    +0.190 C 
BRANCH  11  12
ATOM     12  O   LIG A   1      -6.704   5.548 124.937  0.00  0.00    -0.392 OA
ATOM     13  H   LIG A   1      -7.405   5.450 124.269  0.00  0.00    +0.209 HD
ENDBRANCH  11  12
ENDBRANCH   3  11
BRANCH   6  14
ATOM     14  O   LIG A   1      -7.875  -0.051 125.454  0.00  0.00    -0.450 OA
BRANCH  14  15
ATOM     15  C   LIG A   1      -8.327  -1.226 125.973  0.00  0.00    +0.332 C 
ATOM     16  O   LIG A   1      -9.395  -1.739 125.795  0.00  0.00    -0.246 OA
BRANCH  15  17
ATOM     17  C   LIG A   1      -7.228  -1.768 126.812  0.00  0.00    +0.092 C 
ATOM     18  C   LIG A   1      -7.459  -2.093 128.079  0.00  0.00    +0.015 C 
BRANCH  18  19
ATOM     19  C   LIG A   1      -6.403  -2.628 128.957  0.00  0.00    -0.021 A 
ATOM     20  C   LIG A   1      -5.107  -2.109 128.840  0.00  0.00    +0.057 A 
ATOM     21  C   LIG A   1      -4.100  -2.599 129.665  0.00  0.00    +0.159 A 
ATOM     22  C   LIG A   1      -4.373  -3.594 130.599  0.00  0.00    +0.158 A 
ATOM     23  C   LIG A   1      -5.649  -4.111 130.733  0.00  0.00    +0.050 A 
ATOM     24  C   LIG A   1      -6.669  -3.619 129.916  0.00  0.00    +0.012 A 
BRANCH  22  25
ATOM     25  O   LIG A   1      -3.378  -4.065 131.405  0.00  0.00    -0.503 OA
ATOM     26  H   LIG A   1      -3.310  -5.014 131.180  0.00  0.00    +0.292 HD
ENDBRANCH  22  25
BRANCH  21  27
ATOM     27  O   LIG A   1      -2.817  -2.129 129.593  0.00  0.00    -0.503 OA
ATOM     28  H   LIG A   1      -2.215  -2.892 129.540  0.00  0.00    +0.292 HD
ENDBRANCH  21  27
ENDBRANCH  18  19
ENDBRANCH  15  17
ENDBRANCH  14  15
ENDBRANCH   6  14
BRANCH   1  29
ATOM     29  O   LIG A   1      -8.454   2.887 127.635  0.00  0.00    -0.308 OA
BRANCH  29  32
ATOM     30  C   LIG A   1      -7.028   3.114 130.251  0.00  0.00    +0.044 C 
ATOM     31  C   LIG A   1      -7.838   1.855 129.788  0.00  0.00    +0.088 C 
ATOM     32  C   LIG A   1      -8.981   2.316 128.849  0.00  0.00    +0.317 C 
ATOM     33  O   LIG A   1      -9.882   3.192 129.552  0.00  0.00    -0.470 OA
ATOM     34  C   LIG A   1      -9.255   4.245 130.163  0.00  0.00    +0.201 C 
ATOM     35  C   LIG A   1      -7.945   4.309 130.442  0.00  0.00    +0.074 C 
BRANCH  31  36
ATOM     36  C   LIG A   1      -8.476   1.031 130.905  0.00  0.00    -0.025 C 
ATOM     37  C   LIG A   1      -8.252  -0.268 131.148  0.00  0.00    +0.004 C 
ENDBRANCH  31  36
BRANCH  35  38
ATOM     38  C   LIG A   1      -7.365   5.629 130.765  0.00  0.00    +0.336 C 
ATOM     39  O   LIG A   1      -7.691   6.341 131.697  0.00  0.00    -0.245 OA
BRANCH  38  40
ATOM     40  O   LIG A   1      -6.354   5.987 129.954  0.00  0.00    -0.477 OA
ATOM     41  H   LIG A   1      -5.762   6.501 130.538  0.00  0.00    +0.295 HD
ENDBRANCH  38  40
ENDBRANCH  35  38
BRANCH  30  42
ATOM     42  C   LIG A   1      -6.141   2.844 131.496  0.00  0.00    +0.037 C 
BRANCH  42  43
ATOM     43  C   LIG A   1      -4.659   3.130 131.270  0.00  0.00    +0.156 C 
BRANCH  43  44
ATOM     44  O   LIG A   1      -4.472   3.622 129.951  0.00  0.00    -0.395 OA
ATOM     45  H   LIG A   1      -5.354   3.749 129.558  0.00  0.00    +0.209 HD
ENDBRANCH  43  44
ENDBRANCH  42  43
ENDBRANCH  30  42
ENDBRANCH  29  32
ENDBRANCH   1  29
TORSDOF 18
ENDMDL
MODEL 7
REMARK VINA RESULT:      -7.4      4.056      6.462
REMARK  Name = NuBBE_420
REMARK  18 active torsions:
REMARK  status: ('A' for Active; 'I' for Inactive)
REMARK    1  A    between atoms: O_1  and  C_2
REMARK    2  A    between atoms: C_2  and  C_3
REMARK    3  A    between atoms: C_3  and  C_4
REMARK    4  A    between atoms: C_6  and  C_45
REMARK    5  A    between atoms: C_8  and  O_16
REMARK    6  A    between atoms: C_12  and  C_13
REMARK    7  A    between atoms: C_13  and  O_14
REMARK    8  A    between atoms: O_16  and  C_17
REMARK    9  A    between atoms: C_20  and  C_28
REMARK   10  A    between atoms: C_22  and  O_27
REMARK   11  A    between atoms: C_24  and  O_26
REMARK   12  A    between atoms: C_28  and  O_29
REMARK   13  A    between atoms: C_30  and  O_32
REMARK   14  A    between atoms: O_32  and  C_33
REMARK   15  A    between atoms: C_33  and  C_34
REMARK   16  A    between atoms: C_35  and  C_36
REMARK   17  A    between atoms: C_38  and  O_39
REMARK   18  A    between atoms: C_40  and  O_43
REMARK                            x       y       z     vdW  Elec       q    Type
REMARK                         _______ _______ _______ _____ _____    ______ ____
ROOT
ATOM      1  C   LIG A   1      -5.637   0.247 127.652  0.00  0.00    +0.298 C 
ATOM      2  O   LIG A   1      -5.352  -0.336 128.929  0.00  0.00    -0.339 OA
ATOM      3  C   LIG A   1      -6.309  -0.108 129.972  0.00  0.00    +0.178 C 
ATOM      4  C   LIG A   1      -7.694   0.250 129.431  0.00  0.00    +0.178 C 
ATOM      5  C   LIG A   1      -7.549   1.595 128.718  0.00  0.00    +0.191 C 
ATOM      6  C   LIG A   1      -6.374   1.613 127.719  0.00  0.00    +0.263 C 
ENDROOT
BRANCH   4   7
ATOM      7  O   LIG A   1      -8.655   0.389 130.478  0.00  0.00    -0.386 OA
ATOM      8  H   LIG A   1      -8.284  -0.072 131.256  0.00  0.00    +0.210 HD
ENDBRANCH   4   7
BRANCH   5   9
ATOM      9  O   LIG A   1      -8.798   1.954 128.108  0.00  0.00    -0.385 OA
ATOM     10  H   LIG A   1      -9.294   2.517 128.728  0.00  0.00    +0.210 HD
ENDBRANCH   5   9
BRANCH   3  11
ATOM     11  C   LIG A   1      -6.320  -1.337 130.887  0.00  0.00    +0.190 C 
BRANCH  11  12
ATOM     12  O   LIG A   1      -6.728  -0.985 132.207  0.00  0.00    -0.392 OA
ATOM     13  H   LIG A   1      -7.648  -1.292 132.278  0.00  0.00    +0.209 HD
ENDBRANCH  11  12
ENDBRANCH   3  11
BRANCH   6  14
ATOM     14  O   LIG A   1      -5.510   2.670 128.191  0.00  0.00    -0.450 OA
BRANCH  14  15
ATOM     15  C   LIG A   1      -5.661   3.875 127.574  0.00  0.00    +0.332 C 
ATOM     16  O   LIG A   1      -5.576   4.963 128.067  0.00  0.00    -0.246 OA
BRANCH  15  17
ATOM     17  C   LIG A   1      -5.949   3.585 126.146  0.00  0.00    +0.092 C 
ATOM     18  C   LIG A   1      -5.643   4.479 125.212  0.00  0.00    +0.015 C 
BRANCH  18  19
ATOM     19  C   LIG A   1      -5.913   4.245 123.783  0.00  0.00    -0.021 A 
ATOM     20  C   LIG A   1      -7.174   3.762 123.409  0.00  0.00    +0.057 A 
ATOM     21  C   LIG A   1      -7.449   3.541 122.064  0.00  0.00    +0.159 A 
ATOM     22  C   LIG A   1      -6.482   3.796 121.094  0.00  0.00    +0.158 A 
ATOM     23  C   LIG A   1      -5.235   4.282 121.446  0.00  0.00    +0.050 A 
ATOM     24  C   LIG A   1      -4.954   4.516 122.793  0.00  0.00    +0.012 A 
BRANCH  22  25
ATOM     25  O   LIG A   1      -6.763   3.579 119.777  0.00  0.00    -0.503 OA
ATOM     26  H   LIG A   1      -6.234   2.792 119.542  0.00  0.00    +0.292 HD
ENDBRANCH  22  25
BRANCH  21  27
ATOM     27  O   LIG A   1      -8.661   3.069 121.643  0.00  0.00    -0.503 OA
ATOM     28  H   LIG A   1      -8.738   2.138 121.914  0.00  0.00    +0.292 HD
ENDBRANCH  21  27
ENDBRANCH  18  19
ENDBRANCH  15  17
ENDBRANCH  14  15
ENDBRANCH   6  14
BRANCH   1  29
ATOM     29  O   LIG A   1      -6.401  -0.665 126.845  0.00  0.00    -0.308 OA
BRANCH  29  32
ATOM     30  C   LIG A   1      -7.879  -1.754 124.488  0.00  0.00    +0.044 C 
ATOM     31  C   LIG A   1      -6.410  -2.143 124.871  0.00  0.00    +0.088 C 
ATOM     32  C   LIG A   1      -5.748  -0.939 125.590  0.00  0.00    +0.317 C 
ATOM     33  O   LIG A   1      -5.693   0.199 124.710  0.00  0.00    -0.470 OA
ATOM     34  C   LIG A   1      -6.905   0.524 124.160  0.00  0.00    +0.201 C 
ATOM     35  C   LIG A   1      -7.968  -0.290 124.095  0.00  0.00    +0.074 C 
BRANCH  31  36
ATOM     36  C   LIG A   1      -5.501  -2.528 123.705  0.00  0.00    -0.025 C 
ATOM     37  C   LIG A   1      -4.747  -3.633 123.630  0.00  0.00    +0.004 C 
ENDBRANCH  31  36
BRANCH  35  38
ATOM     38  C   LIG A   1      -9.288   0.309 123.809  0.00  0.00    +0.336 C 
ATOM     39  O   LIG A   1      -9.708   0.615 122.708  0.00  0.00    -0.245 OA
BRANCH  38  40
ATOM     40  O   LIG A   1     -10.064   0.447 124.898  0.00  0.00    -0.477 OA
ATOM     41  H   LIG A   1     -10.831   0.960 124.570  0.00  0.00    +0.295 HD
ENDBRANCH  38  40
ENDBRANCH  35  38
BRANCH  30  42
ATOM     42  C   LIG A   1      -8.498  -2.693 123.418  0.00  0.00    +0.037 C 
BRANCH  42  43
ATOM     43  C   LIG A   1      -9.570  -3.630 123.966  0.00  0.00    +0.156 C 
BRANCH  43  44
ATOM     44  O   LIG A   1     -10.083  -3.098 125.179  0.00  0.00    -0.395 OA
ATOM     45  H   LIG A   1      -9.535  -2.329 125.416  0.00  0.00    +0.209 HD
ENDBRANCH  43  44
ENDBRANCH  42  43
ENDBRANCH  30  42
ENDBRANCH  29  32
ENDBRANCH   1  29
TORSDOF 18
ENDMDL
MODEL 8
REMARK VINA RESULT:      -7.3      3.310      8.883
REMARK  Name = NuBBE_420
REMARK  18 active torsions:
REMARK  status: ('A' for Active; 'I' for Inactive)
REMARK    1  A    between atoms: O_1  and  C_2
REMARK    2  A    between atoms: C_2  and  C_3
REMARK    3  A    between atoms: C_3  and  C_4
REMARK    4  A    between atoms: C_6  and  C_45
REMARK    5  A    between atoms: C_8  and  O_16
REMARK    6  A    between atoms: C_12  and  C_13
REMARK    7  A    between atoms: C_13  and  O_14
REMARK    8  A    between atoms: O_16  and  C_17
REMARK    9  A    between atoms: C_20  and  C_28
REMARK   10  A    between atoms: C_22  and  O_27
REMARK   11  A    between atoms: C_24  and  O_26
REMARK   12  A    between atoms: C_28  and  O_29
REMARK   13  A    between atoms: C_30  and  O_32
REMARK   14  A    between atoms: O_32  and  C_33
REMARK   15  A    between atoms: C_33  and  C_34
REMARK   16  A    between atoms: C_35  and  C_36
REMARK   17  A    between atoms: C_38  and  O_39
REMARK   18  A    between atoms: C_40  and  O_43
REMARK                            x       y       z     vdW  Elec       q    Type
REMARK                         _______ _______ _______ _____ _____    ______ ____
ROOT
ATOM      1  C   LIG A   1      -6.648   2.581 128.550  0.00  0.00    +0.298 C 
ATOM      2  O   LIG A   1      -5.276   2.686 128.949  0.00  0.00    -0.339 OA
ATOM      3  C   LIG A   1      -4.509   3.739 128.350  0.00  0.00    +0.178 C 
ATOM      4  C   LIG A   1      -5.383   4.873 127.813  0.00  0.00    +0.178 C 
ATOM      5  C   LIG A   1      -6.212   4.281 126.672  0.00  0.00    +0.191 C 
ATOM      6  C   LIG A   1      -6.920   2.970 127.071  0.00  0.00    +0.263 C 
ENDROOT
BRANCH   4   7
ATOM      7  O   LIG A   1      -4.601   5.951 127.298  0.00  0.00    -0.386 OA
ATOM      8  H   LIG A   1      -5.223   6.549 126.840  0.00  0.00    +0.210 HD
ENDBRANCH   4   7
BRANCH   5   9
ATOM      9  O   LIG A   1      -7.124   5.272 126.174  0.00  0.00    -0.385 OA
ATOM     10  H   LIG A   1      -7.486   4.959 125.325  0.00  0.00    +0.210 HD
ENDBRANCH   5   9
BRANCH   3  11
ATOM     11  C   LIG A   1      -3.470   4.213 129.371  0.00  0.00    +0.190 C 
BRANCH  11  12
ATOM     12  O   LIG A   1      -2.459   4.998 128.743  0.00  0.00    -0.392 OA
ATOM     13  H   LIG A   1      -2.337   4.598 127.864  0.00  0.00    +0.209 HD
ENDBRANCH  11  12
ENDBRANCH   3  11
BRANCH   6  14
ATOM     14  O   LIG A   1      -6.407   1.983 126.150  0.00  0.00    -0.450 OA
BRANCH  14  15
ATOM     15  C   LIG A   1      -7.343   1.210 125.532  0.00  0.00    +0.332 C 
ATOM     16  O   LIG A   1      -7.892   0.239 125.970  0.00  0.00    -0.246 OA
BRANCH  15  17
ATOM     17  C   LIG A   1      -7.566   1.808 124.191  0.00  0.00    +0.092 C 
ATOM     18  C   LIG A   1      -6.577   2.444 123.574  0.00  0.00    +0.015 C 
BRANCH  18  19
ATOM     19  C   LIG A   1      -6.747   3.061 122.247  0.00  0.00    -0.021 A 
ATOM     20  C   LIG A   1      -8.043   3.201 121.734  0.00  0.00    +0.057 A 
ATOM     21  C   LIG A   1      -8.222   3.787 120.485  0.00  0.00    +0.159 A 
ATOM     22  C   LIG A   1      -7.126   4.231 119.749  0.00  0.00    +0.158 A 
ATOM     23  C   LIG A   1      -5.841   4.108 120.246  0.00  0.00    +0.050 A 
ATOM     24  C   LIG A   1      -5.651   3.530 121.503  0.00  0.00    +0.012 A 
BRANCH  22  25
ATOM     25  O   LIG A   1      -7.313   4.807 118.527  0.00  0.00    -0.503 OA
ATOM     26  H   LIG A   1      -7.487   5.748 118.725  0.00  0.00    +0.292 HD
ENDBRANCH  22  25
BRANCH  21  27
ATOM     27  O   LIG A   1      -9.463   3.947 119.935  0.00  0.00    -0.503 OA
ATOM     28  H   LIG A   1      -9.546   4.867 119.630  0.00  0.00    +0.292 HD
ENDBRANCH  21  27
ENDBRANCH  18  19
ENDBRANCH  15  17
ENDBRANCH  14  15
ENDBRANCH   6  14
BRANCH   1  29
ATOM     29  O   LIG A   1      -7.481   3.375 129.411  0.00  0.00    -0.308 OA
BRANCH  29  32
ATOM     30  C   LIG A   1      -8.493   3.850 132.181  0.00  0.00    +0.044 C 
ATOM     31  C   LIG A   1      -8.370   2.439 131.511  0.00  0.00    +0.088 C 
ATOM     32  C   LIG A   1      -8.552   2.597 129.980  0.00  0.00    +0.317 C 
ATOM     33  O   LIG A   1      -9.861   3.119 129.684  0.00  0.00    -0.470 OA
ATOM     34  C   LIG A   1     -10.158   4.270 130.365  0.00  0.00    +0.201 C 
ATOM     35  C   LIG A   1      -9.526   4.703 131.464  0.00  0.00    +0.074 C 
BRANCH  31  36
ATOM     36  C   LIG A   1      -9.379   1.393 131.981  0.00  0.00    -0.025 C 
ATOM     37  C   LIG A   1      -9.202   0.065 131.956  0.00  0.00    +0.004 C 
ENDBRANCH  31  36
BRANCH  35  38
ATOM     38  C   LIG A   1      -9.712   6.113 131.866  0.00  0.00    +0.336 C 
ATOM     39  O   LIG A   1     -10.432   6.507 132.765  0.00  0.00    -0.245 OA
BRANCH  38  40
ATOM     40  O   LIG A   1      -8.947   6.976 131.176  0.00  0.00    -0.477 OA
ATOM     41  H   LIG A   1      -9.549   7.727 131.000  0.00  0.00    +0.295 HD
ENDBRANCH  38  40
ENDBRANCH  35  38
BRANCH  30  42
ATOM     42  C   LIG A   1      -8.745   3.779 133.712  0.00  0.00    +0.037 C 
BRANCH  42  43
ATOM     43  C   LIG A   1      -7.731   4.562 134.540  0.00  0.00    +0.156 C 
BRANCH  43  44
ATOM     44  O   LIG A   1      -8.412   5.276 135.562  0.00  0.00    -0.395 OA
ATOM     45  H   LIG A   1      -7.939   5.114 136.397  0.00  0.00    +0.209 HD
ENDBRANCH  43  44
ENDBRANCH  42  43
ENDBRANCH  30  42
ENDBRANCH  29  32
ENDBRANCH   1  29
TORSDOF 18
ENDMDL
MODEL 9
REMARK VINA RESULT:      -7.3      3.648      8.260
REMARK  Name = NuBBE_420
REMARK  18 active torsions:
REMARK  status: ('A' for Active; 'I' for Inactive)
REMARK    1  A    between atoms: O_1  and  C_2
REMARK    2  A    between atoms: C_2  and  C_3
REMARK    3  A    between atoms: C_3  and  C_4
REMARK    4  A    between atoms: C_6  and  C_45
REMARK    5  A    between atoms: C_8  and  O_16
REMARK    6  A    between atoms: C_12  and  C_13
REMARK    7  A    between atoms: C_13  and  O_14
REMARK    8  A    between atoms: O_16  and  C_17
REMARK    9  A    between atoms: C_20  and  C_28
REMARK   10  A    between atoms: C_22  and  O_27
REMARK   11  A    between atoms: C_24  and  O_26
REMARK   12  A    between atoms: C_28  and  O_29
REMARK   13  A    between atoms: C_30  and  O_32
REMARK   14  A    between atoms: O_32  and  C_33
REMARK   15  A    between atoms: C_33  and  C_34
REMARK   16  A    between atoms: C_35  and  C_36
REMARK   17  A    between atoms: C_38  and  O_39
REMARK   18  A    between atoms: C_40  and  O_43
REMARK                            x       y       z     vdW  Elec       q    Type
REMARK                         _______ _______ _______ _____ _____    ______ ____
ROOT
ATOM      1  C   LIG A   1      -7.104   1.556 125.807  0.00  0.00    +0.298 C 
ATOM      2  O   LIG A   1      -6.199   2.086 124.831  0.00  0.00    -0.339 OA
ATOM      3  C   LIG A   1      -6.779   2.614 123.631  0.00  0.00    +0.178 C 
ATOM      4  C   LIG A   1      -8.246   3.007 123.810  0.00  0.00    +0.178 C 
ATOM      5  C   LIG A   1      -9.013   1.714 124.091  0.00  0.00    +0.191 C 
ATOM      6  C   LIG A   1      -8.365   0.872 125.209  0.00  0.00    +0.263 C 
ENDROOT
BRANCH   4   7
ATOM      7  O   LIG A   1      -8.783   3.611 122.633  0.00  0.00    -0.386 OA
ATOM      8  H   LIG A   1      -9.599   3.119 122.418  0.00  0.00    +0.210 HD
ENDBRANCH   4   7
BRANCH   5   9
ATOM      9  O   LIG A   1     -10.391   2.018 124.357  0.00  0.00    -0.385 OA
ATOM     10  H   LIG A   1     -10.722   1.391 125.024  0.00  0.00    +0.210 HD
ENDBRANCH   5   9
BRANCH   3  11
ATOM     11  C   LIG A   1      -5.901   3.772 123.146  0.00  0.00    +0.190 C 
BRANCH  11  12
ATOM     12  O   LIG A   1      -6.032   3.956 121.738  0.00  0.00    -0.392 OA
ATOM     13  H   LIG A   1      -6.240   3.073 121.386  0.00  0.00    +0.209 HD
ENDBRANCH  11  12
ENDBRANCH   3  11
BRANCH   6  14
ATOM     14  O   LIG A   1      -8.048  -0.389 124.579  0.00  0.00    -0.450 OA
BRANCH  14  15
ATOM     15  C   LIG A   1      -8.750  -1.466 125.029  0.00  0.00    +0.332 C 
ATOM     16  O   LIG A   1      -9.626  -2.055 124.462  0.00  0.00    -0.246 OA
BRANCH  15  17
ATOM     17  C   LIG A   1      -8.214  -1.787 126.376  0.00  0.00    +0.092 C 
ATOM     18  C   LIG A   1      -6.944  -2.152 126.517  0.00  0.00    +0.015 C 
BRANCH  18  19
ATOM     19  C   LIG A   1      -6.364  -2.487 127.828  0.00  0.00    -0.021 A 
ATOM     20  C   LIG A   1      -5.006  -2.224 128.048  0.00  0.00    +0.057 A 
ATOM     21  C   LIG A   1      -4.443  -2.529 129.283  0.00  0.00    +0.159 A 
ATOM     22  C   LIG A   1      -5.220  -3.091 130.294  0.00  0.00    +0.158 A 
ATOM     23  C   LIG A   1      -6.564  -3.349 130.095  0.00  0.00    +0.050 A 
ATOM     24  C   LIG A   1      -7.140  -3.038 128.863  0.00  0.00    +0.012 A 
BRANCH  22  25
ATOM     25  O   LIG A   1      -4.659  -3.384 131.502  0.00  0.00    -0.503 OA
ATOM     26  H   LIG A   1      -3.905  -2.767 131.577  0.00  0.00    +0.292 HD
ENDBRANCH  22  25
BRANCH  21  27
ATOM     27  O   LIG A   1      -3.123  -2.294 129.552  0.00  0.00    -0.503 OA
ATOM     28  H   LIG A   1      -2.977  -2.427 130.505  0.00  0.00    +0.292 HD
ENDBRANCH  21  27
ENDBRANCH  18  19
ENDBRANCH  15  17
ENDBRANCH  14  15
ENDBRANCH   6  14
BRANCH   1  29
ATOM     29  O   LIG A   1      -7.512   2.585 126.723  0.00  0.00    -0.308 OA
BRANCH  29  32
ATOM     30  C   LIG A   1      -4.842   3.036 127.983  0.00  0.00    +0.044 C 
ATOM     31  C   LIG A   1      -5.757   1.796 128.264  0.00  0.00    +0.088 C 
ATOM     32  C   LIG A   1      -7.238   2.221 128.089  0.00  0.00    +0.317 C 
ATOM     33  O   LIG A   1      -7.577   3.250 129.037  0.00  0.00    -0.470 OA
ATOM     34  C   LIG A   1      -6.723   4.320 129.012  0.00  0.00    +0.201 C 
ATOM     35  C   LIG A   1      -5.493   4.315 128.480  0.00  0.00    +0.074 C 
BRANCH  31  36
ATOM     36  C   LIG A   1      -5.626   1.177 129.655  0.00  0.00    -0.025 C 
ATOM     37  C   LIG A   1      -6.533   0.394 130.254  0.00  0.00    +0.004 C 
ENDBRANCH  31  36
BRANCH  35  38
ATOM     38  C   LIG A   1      -4.846   5.616 128.208  0.00  0.00    +0.336 C 
ATOM     39  O   LIG A   1      -4.441   5.996 127.125  0.00  0.00    -0.245 OA
BRANCH  38  40
ATOM     40  O   LIG A   1      -4.784   6.422 129.282  0.00  0.00    -0.477 OA
ATOM     41  H   LIG A   1      -3.825   6.502 129.454  0.00  0.00    +0.295 HD
ENDBRANCH  38  40
ENDBRANCH  35  38
BRANCH  30  42
ATOM     42  C   LIG A   1      -3.396   2.861 128.522  0.00  0.00    +0.037 C 
BRANCH  42  43
ATOM     43  C   LIG A   1      -2.322   2.943 127.441  0.00  0.00    +0.156 C 
BRANCH  43  44
ATOM     44  O   LIG A   1      -1.979   4.304 127.223  0.00  0.00    -0.395 OA
ATOM     45  H   LIG A   1      -1.282   4.325 126.543  0.00  0.00    +0.209 HD
ENDBRANCH  43  44
ENDBRANCH  42  43
ENDBRANCH  30  42
ENDBRANCH  29  32
ENDBRANCH   1  29
TORSDOF 18
ENDMDL
