MODEL 1
REMARK VINA RESULT:      -9.0      0.000      0.000
REMARK  Name = NuBBE_1146
REMARK  16 active torsions:
REMARK  status: ('A' for Active; 'I' for Inactive)
REMARK    1  A    between atoms: C_1  and  C_2
REMARK    2  A    between atoms: C_6  and  C_29
REMARK    3  A    between atoms: C_7  and  C_8
REMARK    4  A    between atoms: C_9  and  C_11
REMARK    5  A    between atoms: C_11  and  C_13
REMARK    6  A    between atoms: C_11  and  C_14
REMARK    7  A    between atoms: C_14  and  C_15
REMARK    8  A    between atoms: C_15  and  O_17
REMARK    9  A    between atoms: C_15  and  C_18
REMARK   10  A    between atoms: C_18  and  O_20
REMARK   11  A    between atoms: C_18  and  C_21
REMARK   12  A    between atoms: C_21  and  O_22
REMARK   13  A    between atoms: C_21  and  C_23
REMARK   14  A    between atoms: C_21  and  C_24
REMARK   15  A    between atoms: C_34  and  C_35
REMARK   16  A    between atoms: C_34  and  C_40
REMARK                            x       y       z     vdW  Elec       q    Type
REMARK                         _______ _______ _______ _____ _____    ______ ____
ROOT
ATOM      1  C   LIG A   1      -7.832  -2.582 127.949  0.00  0.00    +0.012 C 
ATOM      2  C   LIG A   1      -6.868  -2.585 129.188  0.00  0.00    -0.021 C 
ATOM      3  C   LIG A   1      -7.307  -1.360 130.078  0.00  0.00    +0.021 C 
ATOM      4  C   LIG A   1      -6.747  -0.019 129.621  0.00  0.00    -0.063 C 
ATOM      5  C   LIG A   1      -7.421   1.229 130.253  0.00  0.00    -0.005 C 
ATOM      6  C   LIG A   1      -7.933   0.979 131.745  0.00  0.00    -0.020 C 
ATOM      7  C   LIG A   1      -9.415   0.596 131.863  0.00  0.00    +0.012 C 
ATOM      8  C   LIG A   1      -7.547   2.263 132.578  0.00  0.00    -0.001 C 
ATOM      9  C   LIG A   1      -6.272   2.742 131.868  0.00  0.00    +0.005 C 
ATOM     10  C   LIG A   1      -6.465   2.452 130.385  0.00  0.00    +0.012 C 
ATOM     11  C   LIG A   1      -7.102  -0.198 132.363  0.00  0.00    +0.008 C 
ATOM     12  C   LIG A   1      -7.179  -1.519 131.599  0.00  0.00    +0.009 C 
ATOM     13  C   LIG A   1      -8.543   1.582 129.245  0.00  0.00    +0.016 C 
ATOM     14  C   LIG A   1      -5.825   0.058 128.637  0.00  0.00    -0.026 C 
ATOM     15  C   LIG A   1      -5.215  -1.116 127.931  0.00  0.00    +0.032 C 
ATOM     16  C   LIG A   1      -5.399  -2.455 128.674  0.00  0.00    +0.012 C 
ATOM     17  C   LIG A   1      -4.265  -2.758 129.718  0.00  0.00    +0.027 C 
ATOM     18  C   LIG A   1      -3.603  -1.510 130.346  0.00  0.00    +0.019 C 
ATOM     19  C   LIG A   1      -4.747  -3.643 130.875  0.00  0.00    +0.139 C 
ATOM     20  C   LIG A   1      -5.932  -4.547 130.657  0.00  0.00    +0.075 C 
ATOM     21  C   LIG A   1      -7.083  -3.965 129.852  0.00  0.00    +0.015 C 
ATOM     22  O   LIG A   1      -4.121  -3.727 131.926  0.00  0.00    -0.297 OA
ATOM     23  C   LIG A   1      -3.150  -3.562 129.013  0.00  0.00    +0.019 C 
ENDROOT
BRANCH   8  24
ATOM     24  C   LIG A   1      -8.526   3.455 132.883  0.00  0.00    -0.008 C 
ATOM     25  C   LIG A   1      -8.482   3.990 134.309  0.00  0.00    +0.008 C 
BRANCH  24  26
ATOM     26  C   LIG A   1      -8.453   4.598 131.840  0.00  0.00    +0.037 C 
BRANCH  26  27
ATOM     27  C   LIG A   1      -9.727   4.872 131.001  0.00  0.00    +0.146 C 
BRANCH  27  28
ATOM     28  O   LIG A   1     -10.580   3.738 131.230  0.00  0.00    -0.389 OA
ATOM     29  H   LIG A   1     -10.046   3.104 131.747  0.00  0.00    +0.210 HD
ENDBRANCH  27  28
BRANCH  27  30
ATOM     30  C   LIG A   1     -10.471   6.175 131.388  0.00  0.00    +0.174 C 
BRANCH  30  31
ATOM     31  C   LIG A   1     -11.482   6.712 130.329  0.00  0.00    +0.089 C 
ATOM     32  C   LIG A   1     -12.734   7.363 130.927  0.00  0.00    +0.044 C 
ATOM     33  C   LIG A   1     -10.777   7.747 129.436  0.00  0.00    +0.044 C 
BRANCH  31  34
ATOM     34  O   LIG A   1     -11.881   5.630 129.478  0.00  0.00    -0.387 OA
ATOM     35  H   LIG A   1     -12.787   5.376 129.730  0.00  0.00    +0.210 HD
ENDBRANCH  31  34
ENDBRANCH  30  31
BRANCH  30  36
ATOM     36  O   LIG A   1     -11.149   5.964 132.639  0.00  0.00    -0.386 OA
ATOM     37  H   LIG A   1     -10.487   5.621 133.266  0.00  0.00    +0.210 HD
ENDBRANCH  30  36
ENDBRANCH  27  30
ENDBRANCH  26  27
ENDBRANCH  24  26
ENDBRANCH   8  24
TORSDOF 8
ENDMDL
MODEL 2
REMARK VINA RESULT:      -9.0      4.256      6.760
REMARK  Name = NuBBE_1146
REMARK  16 active torsions:
REMARK  status: ('A' for Active; 'I' for Inactive)
REMARK    1  A    between atoms: C_1  and  C_2
REMARK    2  A    between atoms: C_6  and  C_29
REMARK    3  A    between atoms: C_7  and  C_8
REMARK    4  A    between atoms: C_9  and  C_11
REMARK    5  A    between atoms: C_11  and  C_13
REMARK    6  A    between atoms: C_11  and  C_14
REMARK    7  A    between atoms: C_14  and  C_15
REMARK    8  A    between atoms: C_15  and  O_17
REMARK    9  A    between atoms: C_15  and  C_18
REMARK   10  A    between atoms: C_18  and  O_20
REMARK   11  A    between atoms: C_18  and  C_21
REMARK   12  A    between atoms: C_21  and  O_22
REMARK   13  A    between atoms: C_21  and  C_23
REMARK   14  A    between atoms: C_21  and  C_24
REMARK   15  A    between atoms: C_34  and  C_35
REMARK   16  A    between atoms: C_34  and  C_40
REMARK                            x       y       z     vdW  Elec       q    Type
REMARK                         _______ _______ _______ _____ _____    ______ ____
ROOT
ATOM      1  C   LIG A   1      -4.586   0.743 130.536  0.00  0.00    +0.012 C 
ATOM      2  C   LIG A   1      -4.960  -0.767 130.322  0.00  0.00    -0.021 C 
ATOM      3  C   LIG A   1      -5.389  -0.895 128.810  0.00  0.00    +0.021 C 
ATOM      4  C   LIG A   1      -6.828  -0.478 128.528  0.00  0.00    -0.063 C 
ATOM      5  C   LIG A   1      -7.173  -0.267 127.030  0.00  0.00    -0.005 C 
ATOM      6  C   LIG A   1      -6.354  -1.229 126.054  0.00  0.00    -0.020 C 
ATOM      7  C   LIG A   1      -5.085  -0.610 125.452  0.00  0.00    +0.012 C 
ATOM      8  C   LIG A   1      -7.375  -1.751 124.969  0.00  0.00    -0.001 C 
ATOM      9  C   LIG A   1      -8.700  -1.764 125.746  0.00  0.00    +0.005 C 
ATOM     10  C   LIG A   1      -8.664  -0.566 126.687  0.00  0.00    +0.012 C 
ATOM     11  C   LIG A   1      -5.909  -2.495 126.865  0.00  0.00    +0.008 C 
ATOM     12  C   LIG A   1      -5.047  -2.208 128.094  0.00  0.00    +0.009 C 
ATOM     13  C   LIG A   1      -6.905   1.242 126.807  0.00  0.00    +0.016 C 
ATOM     14  C   LIG A   1      -7.684  -0.189 129.532  0.00  0.00    -0.026 C 
ATOM     15  C   LIG A   1      -7.365  -0.287 130.995  0.00  0.00    +0.032 C 
ATOM     16  C   LIG A   1      -6.115  -1.135 131.306  0.00  0.00    +0.012 C 
ATOM     17  C   LIG A   1      -6.420  -2.667 131.482  0.00  0.00    +0.027 C 
ATOM     18  C   LIG A   1      -7.636  -3.188 130.683  0.00  0.00    +0.019 C 
ATOM     19  C   LIG A   1      -5.224  -3.553 131.113  0.00  0.00    +0.139 C 
ATOM     20  C   LIG A   1      -3.836  -2.974 131.186  0.00  0.00    +0.075 C 
ATOM     21  C   LIG A   1      -3.675  -1.547 130.688  0.00  0.00    +0.015 C 
ATOM     22  O   LIG A   1      -5.357  -4.751 130.883  0.00  0.00    -0.297 OA
ATOM     23  C   LIG A   1      -6.701  -2.942 132.975  0.00  0.00    +0.019 C 
ENDROOT
BRANCH   8  24
ATOM     24  C   LIG A   1      -7.548  -1.130 123.536  0.00  0.00    -0.008 C 
ATOM     25  C   LIG A   1      -6.719  -1.780 122.435  0.00  0.00    +0.008 C 
BRANCH  24  26
ATOM     26  C   LIG A   1      -9.028  -0.956 123.110  0.00  0.00    +0.037 C 
BRANCH  26  27
ATOM     27  C   LIG A   1      -9.494   0.476 122.744  0.00  0.00    +0.146 C 
BRANCH  27  28
ATOM     28  O   LIG A   1     -10.924   0.389 122.628  0.00  0.00    -0.389 OA
ATOM     29  H   LIG A   1     -11.206  -0.264 123.298  0.00  0.00    +0.210 HD
ENDBRANCH  27  28
BRANCH  27  30
ATOM     30  C   LIG A   1      -9.116   1.552 123.792  0.00  0.00    +0.174 C 
BRANCH  30  31
ATOM     31  C   LIG A   1      -8.246   2.732 123.262  0.00  0.00    +0.089 C 
ATOM     32  C   LIG A   1      -6.746   2.425 123.187  0.00  0.00    +0.044 C 
ATOM     33  C   LIG A   1      -8.731   3.127 121.857  0.00  0.00    +0.044 C 
BRANCH  31  34
ATOM     34  O   LIG A   1      -8.446   3.872 124.108  0.00  0.00    -0.387 OA
ATOM     35  H   LIG A   1      -8.916   4.547 123.586  0.00  0.00    +0.210 HD
ENDBRANCH  31  34
ENDBRANCH  30  31
BRANCH  30  36
ATOM     36  O   LIG A   1     -10.324   2.068 124.378  0.00  0.00    -0.386 OA
ATOM     37  H   LIG A   1     -10.065   2.795 124.972  0.00  0.00    +0.210 HD
ENDBRANCH  30  36
ENDBRANCH  27  30
ENDBRANCH  26  27
ENDBRANCH  24  26
ENDBRANCH   8  24
TORSDOF 8
ENDMDL
MODEL 3
REMARK VINA RESULT:      -8.5      1.464      2.583
REMARK  Name = NuBBE_1146
REMARK  16 active torsions:
REMARK  status: ('A' for Active; 'I' for Inactive)
REMARK    1  A    between atoms: C_1  and  C_2
REMARK    2  A    between atoms: C_6  and  C_29
REMARK    3  A    between atoms: C_7  and  C_8
REMARK    4  A    between atoms: C_9  and  C_11
REMARK    5  A    between atoms: C_11  and  C_13
REMARK    6  A    between atoms: C_11  and  C_14
REMARK    7  A    between atoms: C_14  and  C_15
REMARK    8  A    between atoms: C_15  and  O_17
REMARK    9  A    between atoms: C_15  and  C_18
REMARK   10  A    between atoms: C_18  and  O_20
REMARK   11  A    between atoms: C_18  and  C_21
REMARK   12  A    between atoms: C_21  and  O_22
REMARK   13  A    between atoms: C_21  and  C_23
REMARK   14  A    between atoms: C_21  and  C_24
REMARK   15  A    between atoms: C_34  and  C_35
REMARK   16  A    between atoms: C_34  and  C_40
REMARK                            x       y       z     vdW  Elec       q    Type
REMARK                         _______ _______ _______ _____ _____    ______ ____
ROOT
ATOM      1  C   LIG A   1      -7.889  -2.781 133.337  0.00  0.00    +0.012 C 
ATOM      2  C   LIG A   1      -6.608  -2.184 132.653  0.00  0.00    -0.021 C 
ATOM      3  C   LIG A   1      -6.890  -0.642 132.480  0.00  0.00    +0.021 C 
ATOM      4  C   LIG A   1      -7.731  -0.290 131.259  0.00  0.00    -0.063 C 
ATOM      5  C   LIG A   1      -8.307   1.151 131.247  0.00  0.00    -0.005 C 
ATOM      6  C   LIG A   1      -7.359   2.214 131.969  0.00  0.00    -0.020 C 
ATOM      7  C   LIG A   1      -7.708   2.500 133.436  0.00  0.00    +0.012 C 
ATOM      8  C   LIG A   1      -7.351   3.506 131.061  0.00  0.00    -0.001 C 
ATOM      9  C   LIG A   1      -7.556   2.919 129.656  0.00  0.00    +0.005 C 
ATOM     10  C   LIG A   1      -8.499   1.732 129.814  0.00  0.00    +0.012 C 
ATOM     11  C   LIG A   1      -5.890   1.665 131.943  0.00  0.00    +0.008 C 
ATOM     12  C   LIG A   1      -5.693   0.307 132.616  0.00  0.00    +0.009 C 
ATOM     13  C   LIG A   1      -9.699   0.989 131.908  0.00  0.00    +0.016 C 
ATOM     14  C   LIG A   1      -8.049  -1.221 130.334  0.00  0.00    -0.026 C 
ATOM     15  C   LIG A   1      -7.594  -2.650 130.355  0.00  0.00    +0.032 C 
ATOM     16  C   LIG A   1      -6.393  -2.909 131.287  0.00  0.00    +0.012 C 
ATOM     17  C   LIG A   1      -4.999  -2.692 130.594  0.00  0.00    +0.027 C 
ATOM     18  C   LIG A   1      -4.992  -1.654 129.450  0.00  0.00    +0.019 C 
ATOM     19  C   LIG A   1      -3.904  -2.280 131.586  0.00  0.00    +0.139 C 
ATOM     20  C   LIG A   1      -4.056  -2.651 133.037  0.00  0.00    +0.075 C 
ATOM     21  C   LIG A   1      -5.451  -2.516 133.624  0.00  0.00    +0.015 C 
ATOM     22  O   LIG A   1      -2.855  -1.767 131.210  0.00  0.00    -0.297 OA
ATOM     23  C   LIG A   1      -4.535  -4.038 129.994  0.00  0.00    +0.019 C 
ENDROOT
BRANCH   8  24
ATOM     24  C   LIG A   1      -8.255   4.769 131.301  0.00  0.00    -0.008 C 
ATOM     25  C   LIG A   1      -7.551   5.970 131.922  0.00  0.00    +0.008 C 
BRANCH  24  26
ATOM     26  C   LIG A   1      -9.095   5.174 130.064  0.00  0.00    +0.037 C 
BRANCH  26  27
ATOM     27  C   LIG A   1     -10.636   5.184 130.228  0.00  0.00    +0.146 C 
BRANCH  27  28
ATOM     28  O   LIG A   1     -10.927   4.098 131.122  0.00  0.00    -0.389 OA
ATOM     29  H   LIG A   1     -11.900   4.072 131.202  0.00  0.00    +0.210 HD
ENDBRANCH  27  28
BRANCH  27  30
ATOM     30  C   LIG A   1     -11.202   6.506 130.805  0.00  0.00    +0.174 C 
BRANCH  30  31
ATOM     31  C   LIG A   1     -11.941   7.424 129.785  0.00  0.00    +0.089 C 
ATOM     32  C   LIG A   1     -11.011   8.189 128.836  0.00  0.00    +0.044 C 
ATOM     33  C   LIG A   1     -12.901   6.571 128.939  0.00  0.00    +0.044 C 
BRANCH  31  34
ATOM     34  O   LIG A   1     -12.745   8.366 130.507  0.00  0.00    -0.387 OA
ATOM     35  H   LIG A   1     -12.389   9.255 130.329  0.00  0.00    +0.210 HD
ENDBRANCH  31  34
ENDBRANCH  30  31
BRANCH  30  36
ATOM     36  O   LIG A   1     -12.082   6.191 131.898  0.00  0.00    -0.386 OA
ATOM     37  H   LIG A   1     -12.791   6.859 131.894  0.00  0.00    +0.210 HD
ENDBRANCH  30  36
ENDBRANCH  27  30
ENDBRANCH  26  27
ENDBRANCH  24  26
ENDBRANCH   8  24
TORSDOF 8
ENDMDL
MODEL 4
REMARK VINA RESULT:      -8.1      3.914      5.820
REMARK  Name = NuBBE_1146
REMARK  16 active torsions:
REMARK  status: ('A' for Active; 'I' for Inactive)
REMARK    1  A    between atoms: C_1  and  C_2
REMARK    2  A    between atoms: C_6  and  C_29
REMARK    3  A    between atoms: C_7  and  C_8
REMARK    4  A    between atoms: C_9  and  C_11
REMARK    5  A    between atoms: C_11  and  C_13
REMARK    6  A    between atoms: C_11  and  C_14
REMARK    7  A    between atoms: C_14  and  C_15
REMARK    8  A    between atoms: C_15  and  O_17
REMARK    9  A    between atoms: C_15  and  C_18
REMARK   10  A    between atoms: C_18  and  O_20
REMARK   11  A    between atoms: C_18  and  C_21
REMARK   12  A    between atoms: C_21  and  O_22
REMARK   13  A    between atoms: C_21  and  C_23
REMARK   14  A    between atoms: C_21  and  C_24
REMARK   15  A    between atoms: C_34  and  C_35
REMARK   16  A    between atoms: C_34  and  C_40
REMARK                            x       y       z     vdW  Elec       q    Type
REMARK                         _______ _______ _______ _____ _____    ______ ____
ROOT
ATOM      1  C   LIG A   1      -8.225  -1.009 132.197  0.00  0.00    +0.012 C 
ATOM      2  C   LIG A   1      -6.777  -1.363 131.703  0.00  0.00    -0.021 C 
ATOM      3  C   LIG A   1      -6.432  -0.307 130.585  0.00  0.00    +0.021 C 
ATOM      4  C   LIG A   1      -7.003  -0.638 129.211  0.00  0.00    -0.063 C 
ATOM      5  C   LIG A   1      -6.977   0.528 128.186  0.00  0.00    -0.005 C 
ATOM      6  C   LIG A   1      -5.734   1.510 128.383  0.00  0.00    -0.020 C 
ATOM      7  C   LIG A   1      -6.027   2.763 129.220  0.00  0.00    +0.012 C 
ATOM      8  C   LIG A   1      -5.178   1.833 126.940  0.00  0.00    -0.001 C 
ATOM      9  C   LIG A   1      -5.515   0.550 126.165  0.00  0.00    +0.005 C 
ATOM     10  C   LIG A   1      -6.850   0.053 126.707  0.00  0.00    +0.012 C 
ATOM     11  C   LIG A   1      -4.592   0.724 129.114  0.00  0.00    +0.008 C 
ATOM     12  C   LIG A   1      -4.971   0.148 130.478  0.00  0.00    +0.009 C 
ATOM     13  C   LIG A   1      -8.358   1.204 128.374  0.00  0.00    +0.016 C 
ATOM     14  C   LIG A   1      -7.604  -1.823 128.968  0.00  0.00    -0.026 C 
ATOM     15  C   LIG A   1      -7.737  -2.943 129.956  0.00  0.00    +0.032 C 
ATOM     16  C   LIG A   1      -6.782  -2.828 131.162  0.00  0.00    +0.012 C 
ATOM     17  C   LIG A   1      -5.376  -3.487 130.918  0.00  0.00    +0.027 C 
ATOM     18  C   LIG A   1      -4.906  -3.499 129.446  0.00  0.00    +0.019 C 
ATOM     19  C   LIG A   1      -4.264  -2.827 131.743  0.00  0.00    +0.139 C 
ATOM     20  C   LIG A   1      -4.627  -2.104 133.013  0.00  0.00    +0.075 C 
ATOM     21  C   LIG A   1      -5.893  -1.263 132.968  0.00  0.00    +0.015 C 
ATOM     22  O   LIG A   1      -3.079  -2.980 131.465  0.00  0.00    -0.297 OA
ATOM     23  C   LIG A   1      -5.434  -4.956 131.392  0.00  0.00    +0.019 C 
ENDROOT
BRANCH   8  24
ATOM     24  C   LIG A   1      -5.536   3.122 126.115  0.00  0.00    -0.008 C 
ATOM     25  C   LIG A   1      -4.462   4.203 126.087  0.00  0.00    +0.008 C 
BRANCH  24  26
ATOM     26  C   LIG A   1      -6.079   2.818 124.696  0.00  0.00    +0.037 C 
BRANCH  26  27
ATOM     27  C   LIG A   1      -7.593   3.042 124.455  0.00  0.00    +0.146 C 
BRANCH  27  28
ATOM     28  O   LIG A   1      -7.758   4.469 124.392  0.00  0.00    -0.389 OA
ATOM     29  H   LIG A   1      -8.118   4.656 123.504  0.00  0.00    +0.210 HD
ENDBRANCH  27  28
BRANCH  27  30
ATOM     30  C   LIG A   1      -8.130   2.393 123.154  0.00  0.00    +0.174 C 
BRANCH  30  31
ATOM     31  C   LIG A   1      -9.084   1.177 123.353  0.00  0.00    +0.089 C 
ATOM     32  C   LIG A   1      -8.380  -0.185 123.338  0.00  0.00    +0.044 C 
ATOM     33  C   LIG A   1      -9.823   1.326 124.694  0.00  0.00    +0.044 C 
BRANCH  31  34
ATOM     34  O   LIG A   1     -10.081   1.196 122.323  0.00  0.00    -0.387 OA
ATOM     35  H   LIG A   1     -10.656   1.965 122.485  0.00  0.00    +0.210 HD
ENDBRANCH  31  34
ENDBRANCH  30  31
BRANCH  30  36
ATOM     36  O   LIG A   1      -8.792   3.405 122.375  0.00  0.00    -0.386 OA
ATOM     37  H   LIG A   1      -8.166   3.689 121.686  0.00  0.00    +0.210 HD
ENDBRANCH  30  36
ENDBRANCH  27  30
ENDBRANCH  26  27
ENDBRANCH  24  26
ENDBRANCH   8  24
TORSDOF 8
ENDMDL
MODEL 5
REMARK VINA RESULT:      -8.1      4.584      7.479
REMARK  Name = NuBBE_1146
REMARK  16 active torsions:
REMARK  status: ('A' for Active; 'I' for Inactive)
REMARK    1  A    between atoms: C_1  and  C_2
REMARK    2  A    between atoms: C_6  and  C_29
REMARK    3  A    between atoms: C_7  and  C_8
REMARK    4  A    between atoms: C_9  and  C_11
REMARK    5  A    between atoms: C_11  and  C_13
REMARK    6  A    between atoms: C_11  and  C_14
REMARK    7  A    between atoms: C_14  and  C_15
REMARK    8  A    between atoms: C_15  and  O_17
REMARK    9  A    between atoms: C_15  and  C_18
REMARK   10  A    between atoms: C_18  and  O_20
REMARK   11  A    between atoms: C_18  and  C_21
REMARK   12  A    between atoms: C_21  and  O_22
REMARK   13  A    between atoms: C_21  and  C_23
REMARK   14  A    between atoms: C_21  and  C_24
REMARK   15  A    between atoms: C_34  and  C_35
REMARK   16  A    between atoms: C_34  and  C_40
REMARK                            x       y       z     vdW  Elec       q    Type
REMARK                         _______ _______ _______ _____ _____    ______ ____
ROOT
ATOM      1  C   LIG A   1      -8.071   0.933 126.853  0.00  0.00    +0.012 C 
ATOM      2  C   LIG A   1      -7.909  -0.554 126.376  0.00  0.00    -0.021 C 
ATOM      3  C   LIG A   1      -7.596  -1.392 127.674  0.00  0.00    +0.021 C 
ATOM      4  C   LIG A   1      -6.137  -1.353 128.111  0.00  0.00    -0.063 C 
ATOM      5  C   LIG A   1      -5.863  -1.872 129.549  0.00  0.00    -0.005 C 
ATOM      6  C   LIG A   1      -6.860  -3.036 129.997  0.00  0.00    -0.020 C 
ATOM      7  C   LIG A   1      -8.074  -2.568 130.812  0.00  0.00    +0.012 C 
ATOM      8  C   LIG A   1      -5.985  -4.121 130.739  0.00  0.00    -0.001 C 
ATOM      9  C   LIG A   1      -4.626  -3.982 130.036  0.00  0.00    +0.005 C 
ATOM     10  C   LIG A   1      -4.449  -2.502 129.723  0.00  0.00    +0.012 C 
ATOM     11  C   LIG A   1      -7.412  -3.739 128.710  0.00  0.00    +0.008 C 
ATOM     12  C   LIG A   1      -8.150  -2.822 127.735  0.00  0.00    +0.009 C 
ATOM     13  C   LIG A   1      -5.948  -0.591 130.416  0.00  0.00    +0.016 C 
ATOM     14  C   LIG A   1      -5.189  -0.780 127.339  0.00  0.00    -0.026 C 
ATOM     15  C   LIG A   1      -5.423  -0.179 125.985  0.00  0.00    +0.032 C 
ATOM     16  C   LIG A   1      -6.750  -0.616 125.331  0.00  0.00    +0.012 C 
ATOM     17  C   LIG A   1      -6.635  -1.942 124.494  0.00  0.00    +0.027 C 
ATOM     18  C   LIG A   1      -5.549  -2.929 124.980  0.00  0.00    +0.019 C 
ATOM     19  C   LIG A   1      -7.956  -2.718 124.433  0.00  0.00    +0.139 C 
ATOM     20  C   LIG A   1      -9.251  -1.973 124.624  0.00  0.00    +0.075 C 
ATOM     21  C   LIG A   1      -9.257  -0.902 125.702  0.00  0.00    +0.015 C 
ATOM     22  O   LIG A   1      -7.993  -3.901 124.108  0.00  0.00    -0.297 OA
ATOM     23  C   LIG A   1      -6.297  -1.572 123.033  0.00  0.00    +0.019 C 
ENDROOT
BRANCH   8  24
ATOM     24  C   LIG A   1      -5.826  -4.222 132.299  0.00  0.00    -0.008 C 
ATOM     25  C   LIG A   1      -4.822  -5.258 132.790  0.00  0.00    +0.008 C 
BRANCH  24  26
ATOM     26  C   LIG A   1      -5.617  -2.851 132.990  0.00  0.00    +0.037 C 
BRANCH  26  27
ATOM     27  C   LIG A   1      -6.518  -2.529 134.209  0.00  0.00    +0.146 C 
BRANCH  27  28
ATOM     28  O   LIG A   1      -6.966  -1.179 134.000  0.00  0.00    -0.389 OA
ATOM     29  H   LIG A   1      -7.839  -1.118 134.435  0.00  0.00    +0.210 HD
ENDBRANCH  27  28
BRANCH  27  30
ATOM     30  C   LIG A   1      -7.739  -3.471 134.359  0.00  0.00    +0.174 C 
BRANCH  30  31
ATOM     31  C   LIG A   1      -7.784  -4.310 135.672  0.00  0.00    +0.089 C 
ATOM     32  C   LIG A   1      -7.336  -5.766 135.505  0.00  0.00    +0.044 C 
ATOM     33  C   LIG A   1      -6.887  -3.645 136.730  0.00  0.00    +0.044 C 
BRANCH  31  34
ATOM     34  O   LIG A   1      -9.121  -4.291 136.189  0.00  0.00    -0.387 OA
ATOM     35  H   LIG A   1      -9.207  -3.504 136.757  0.00  0.00    +0.210 HD
ENDBRANCH  31  34
ENDBRANCH  30  31
BRANCH  30  36
ATOM     36  O   LIG A   1      -8.940  -2.688 134.244  0.00  0.00    -0.386 OA
ATOM     37  H   LIG A   1      -9.470  -2.861 135.043  0.00  0.00    +0.210 HD
ENDBRANCH  30  36
ENDBRANCH  27  30
ENDBRANCH  26  27
ENDBRANCH  24  26
ENDBRANCH   8  24
TORSDOF 8
ENDMDL
MODEL 6
REMARK VINA RESULT:      -8.0      4.978      7.686
REMARK  Name = NuBBE_1146
REMARK  16 active torsions:
REMARK  status: ('A' for Active; 'I' for Inactive)
REMARK    1  A    between atoms: C_1  and  C_2
REMARK    2  A    between atoms: C_6  and  C_29
REMARK    3  A    between atoms: C_7  and  C_8
REMARK    4  A    between atoms: C_9  and  C_11
REMARK    5  A    between atoms: C_11  and  C_13
REMARK    6  A    between atoms: C_11  and  C_14
REMARK    7  A    between atoms: C_14  and  C_15
REMARK    8  A    between atoms: C_15  and  O_17
REMARK    9  A    between atoms: C_15  and  C_18
REMARK   10  A    between atoms: C_18  and  O_20
REMARK   11  A    between atoms: C_18  and  C_21
REMARK   12  A    between atoms: C_21  and  O_22
REMARK   13  A    between atoms: C_21  and  C_23
REMARK   14  A    between atoms: C_21  and  C_24
REMARK   15  A    between atoms: C_34  and  C_35
REMARK   16  A    between atoms: C_34  and  C_40
REMARK                            x       y       z     vdW  Elec       q    Type
REMARK                         _______ _______ _______ _____ _____    ______ ____
ROOT
ATOM      1  C   LIG A   1      -8.276   0.724 126.800  0.00  0.00    +0.012 C 
ATOM      2  C   LIG A   1      -7.998  -0.768 126.401  0.00  0.00    -0.021 C 
ATOM      3  C   LIG A   1      -7.533  -1.490 127.724  0.00  0.00    +0.021 C 
ATOM      4  C   LIG A   1      -6.063  -1.287 128.067  0.00  0.00    -0.063 C 
ATOM      5  C   LIG A   1      -5.660  -1.686 129.512  0.00  0.00    -0.005 C 
ATOM      6  C   LIG A   1      -6.513  -2.907 130.088  0.00  0.00    -0.020 C 
ATOM      7  C   LIG A   1      -7.719  -2.504 130.947  0.00  0.00    +0.012 C 
ATOM      8  C   LIG A   1      -5.497  -3.857 130.835  0.00  0.00    -0.001 C 
ATOM      9  C   LIG A   1      -4.199  -3.636 130.043  0.00  0.00    +0.005 C 
ATOM     10  C   LIG A   1      -4.183  -2.169 129.635  0.00  0.00    +0.012 C 
ATOM     11  C   LIG A   1      -7.065  -3.739 128.879  0.00  0.00    +0.008 C 
ATOM     12  C   LIG A   1      -7.941  -2.958 127.900  0.00  0.00    +0.009 C 
ATOM     13  C   LIG A   1      -5.820  -0.367 130.308  0.00  0.00    +0.016 C 
ATOM     14  C   LIG A   1      -5.219  -0.677 127.206  0.00  0.00    -0.026 C 
ATOM     15  C   LIG A   1      -5.586  -0.189 125.836  0.00  0.00    +0.032 C 
ATOM     16  C   LIG A   1      -6.899  -0.788 125.291  0.00  0.00    +0.012 C 
ATOM     17  C   LIG A   1      -6.703  -2.147 124.527  0.00  0.00    +0.027 C 
ATOM     18  C   LIG A   1      -5.501  -2.996 125.001  0.00  0.00    +0.019 C 
ATOM     19  C   LIG A   1      -7.944  -3.046 124.592  0.00  0.00    +0.139 C 
ATOM     20  C   LIG A   1      -9.292  -2.414 124.819  0.00  0.00    +0.075 C 
ATOM     21  C   LIG A   1      -9.341  -1.282 125.833  0.00  0.00    +0.015 C 
ATOM     22  O   LIG A   1      -7.884  -4.245 124.339  0.00  0.00    -0.297 OA
ATOM     23  C   LIG A   1      -6.485  -1.841 123.029  0.00  0.00    +0.019 C 
ENDROOT
BRANCH   8  24
ATOM     24  C   LIG A   1      -5.241  -3.844 132.386  0.00  0.00    -0.008 C 
ATOM     25  C   LIG A   1      -6.389  -4.362 133.244  0.00  0.00    +0.008 C 
BRANCH  24  26
ATOM     26  C   LIG A   1      -3.889  -4.481 132.796  0.00  0.00    +0.037 C 
BRANCH  26  27
ATOM     27  C   LIG A   1      -3.016  -3.695 133.807  0.00  0.00    +0.146 C 
BRANCH  27  28
ATOM     28  O   LIG A   1      -1.723  -4.322 133.756  0.00  0.00    -0.389 OA
ATOM     29  H   LIG A   1      -1.874  -5.262 133.976  0.00  0.00    +0.210 HD
ENDBRANCH  27  28
BRANCH  27  30
ATOM     30  C   LIG A   1      -2.881  -2.185 133.487  0.00  0.00    +0.174 C 
BRANCH  30  31
ATOM     31  C   LIG A   1      -3.598  -1.220 134.480  0.00  0.00    +0.089 C 
ATOM     32  C   LIG A   1      -4.774  -0.449 133.870  0.00  0.00    +0.044 C 
ATOM     33  C   LIG A   1      -4.116  -2.025 135.683  0.00  0.00    +0.044 C 
BRANCH  31  34
ATOM     34  O   LIG A   1      -2.640  -0.282 134.987  0.00  0.00    -0.387 OA
ATOM     35  H   LIG A   1      -3.091   0.576 135.084  0.00  0.00    +0.210 HD
ENDBRANCH  31  34
ENDBRANCH  30  31
BRANCH  30  36
ATOM     36  O   LIG A   1      -1.483  -1.853 133.415  0.00  0.00    -0.386 OA
ATOM     37  H   LIG A   1      -1.331  -1.125 134.043  0.00  0.00    +0.210 HD
ENDBRANCH  30  36
ENDBRANCH  27  30
ENDBRANCH  26  27
ENDBRANCH  24  26
ENDBRANCH   8  24
TORSDOF 8
ENDMDL
MODEL 7
REMARK VINA RESULT:      -8.0      2.599      4.649
REMARK  Name = NuBBE_1146
REMARK  16 active torsions:
REMARK  status: ('A' for Active; 'I' for Inactive)
REMARK    1  A    between atoms: C_1  and  C_2
REMARK    2  A    between atoms: C_6  and  C_29
REMARK    3  A    between atoms: C_7  and  C_8
REMARK    4  A    between atoms: C_9  and  C_11
REMARK    5  A    between atoms: C_11  and  C_13
REMARK    6  A    between atoms: C_11  and  C_14
REMARK    7  A    between atoms: C_14  and  C_15
REMARK    8  A    between atoms: C_15  and  O_17
REMARK    9  A    between atoms: C_15  and  C_18
REMARK   10  A    between atoms: C_18  and  O_20
REMARK   11  A    between atoms: C_18  and  C_21
REMARK   12  A    between atoms: C_21  and  O_22
REMARK   13  A    between atoms: C_21  and  C_23
REMARK   14  A    between atoms: C_21  and  C_24
REMARK   15  A    between atoms: C_34  and  C_35
REMARK   16  A    between atoms: C_34  and  C_40
REMARK                            x       y       z     vdW  Elec       q    Type
REMARK                         _______ _______ _______ _____ _____    ______ ____
ROOT
ATOM      1  C   LIG A   1      -4.807   0.280 125.601  0.00  0.00    +0.012 C 
ATOM      2  C   LIG A   1      -6.377   0.320 125.641  0.00  0.00    -0.021 C 
ATOM      3  C   LIG A   1      -6.759   0.787 127.097  0.00  0.00    +0.021 C 
ATOM      4  C   LIG A   1      -6.741  -0.326 128.139  0.00  0.00    -0.063 C 
ATOM      5  C   LIG A   1      -6.775   0.151 129.615  0.00  0.00    -0.005 C 
ATOM      6  C   LIG A   1      -7.599   1.503 129.821  0.00  0.00    -0.020 C 
ATOM      7  C   LIG A   1      -6.750   2.782 129.831  0.00  0.00    +0.012 C 
ATOM      8  C   LIG A   1      -8.464   1.312 131.129  0.00  0.00    -0.001 C 
ATOM      9  C   LIG A   1      -8.724  -0.202 131.130  0.00  0.00    +0.005 C 
ATOM     10  C   LIG A   1      -7.465  -0.860 130.580  0.00  0.00    +0.012 C 
ATOM     11  C   LIG A   1      -8.626   1.641 128.646  0.00  0.00    +0.008 C 
ATOM     12  C   LIG A   1      -8.013   1.659 127.246  0.00  0.00    +0.009 C 
ATOM     13  C   LIG A   1      -5.276   0.255 129.995  0.00  0.00    +0.016 C 
ATOM     14  C   LIG A   1      -6.572  -1.617 127.782  0.00  0.00    -0.026 C 
ATOM     15  C   LIG A   1      -6.440  -2.115 126.374  0.00  0.00    +0.032 C 
ATOM     16  C   LIG A   1      -6.917  -1.107 125.308  0.00  0.00    +0.012 C 
ATOM     17  C   LIG A   1      -8.451  -1.213 124.982  0.00  0.00    +0.027 C 
ATOM     18  C   LIG A   1      -9.334  -1.719 126.145  0.00  0.00    +0.019 C 
ATOM     19  C   LIG A   1      -9.047   0.117 124.506  0.00  0.00    +0.139 C 
ATOM     20  C   LIG A   1      -8.139   1.142 123.880  0.00  0.00    +0.075 C 
ATOM     21  C   LIG A   1      -6.775   1.316 124.527  0.00  0.00    +0.015 C 
ATOM     22  O   LIG A   1     -10.258   0.317 124.508  0.00  0.00    -0.297 OA
ATOM     23  C   LIG A   1      -8.635  -2.199 123.806  0.00  0.00    +0.019 C 
ENDROOT
BRANCH   8  24
ATOM     24  C   LIG A   1      -8.052   1.834 132.553  0.00  0.00    -0.008 C 
ATOM     25  C   LIG A   1      -6.747   1.274 133.105  0.00  0.00    +0.008 C 
BRANCH  24  26
ATOM     26  C   LIG A   1      -8.116   3.376 132.690  0.00  0.00    +0.037 C 
BRANCH  26  27
ATOM     27  C   LIG A   1      -9.521   4.017 132.814  0.00  0.00    +0.146 C 
BRANCH  27  28
ATOM     28  O   LIG A   1      -9.841   3.958 134.214  0.00  0.00    -0.389 OA
ATOM     29  H   LIG A   1      -9.844   4.884 134.525  0.00  0.00    +0.210 HD
ENDBRANCH  27  28
BRANCH  27  30
ATOM     30  C   LIG A   1      -9.593   5.484 132.320  0.00  0.00    +0.174 C 
BRANCH  30  31
ATOM     31  C   LIG A   1     -10.691   5.782 131.254  0.00  0.00    +0.089 C 
ATOM     32  C   LIG A   1     -10.383   6.982 130.351  0.00  0.00    +0.044 C 
ATOM     33  C   LIG A   1     -10.883   4.543 130.364  0.00  0.00    +0.044 C 
BRANCH  31  34
ATOM     34  O   LIG A   1     -11.937   6.013 131.923  0.00  0.00    -0.387 OA
ATOM     35  H   LIG A   1     -11.965   6.952 132.180  0.00  0.00    +0.210 HD
ENDBRANCH  31  34
ENDBRANCH  30  31
BRANCH  30  36
ATOM     36  O   LIG A   1      -9.778   6.344 133.458  0.00  0.00    -0.386 OA
ATOM     37  H   LIG A   1      -9.200   7.117 133.328  0.00  0.00    +0.210 HD
ENDBRANCH  30  36
ENDBRANCH  27  30
ENDBRANCH  26  27
ENDBRANCH  24  26
ENDBRANCH   8  24
TORSDOF 8
ENDMDL
MODEL 8
REMARK VINA RESULT:      -7.8      1.556      2.498
REMARK  Name = NuBBE_1146
REMARK  16 active torsions:
REMARK  status: ('A' for Active; 'I' for Inactive)
REMARK    1  A    between atoms: C_1  and  C_2
REMARK    2  A    between atoms: C_6  and  C_29
REMARK    3  A    between atoms: C_7  and  C_8
REMARK    4  A    between atoms: C_9  and  C_11
REMARK    5  A    between atoms: C_11  and  C_13
REMARK    6  A    between atoms: C_11  and  C_14
REMARK    7  A    between atoms: C_14  and  C_15
REMARK    8  A    between atoms: C_15  and  O_17
REMARK    9  A    between atoms: C_15  and  C_18
REMARK   10  A    between atoms: C_18  and  O_20
REMARK   11  A    between atoms: C_18  and  C_21
REMARK   12  A    between atoms: C_21  and  O_22
REMARK   13  A    between atoms: C_21  and  C_23
REMARK   14  A    between atoms: C_21  and  C_24
REMARK   15  A    between atoms: C_34  and  C_35
REMARK   16  A    between atoms: C_34  and  C_40
REMARK                            x       y       z     vdW  Elec       q    Type
REMARK                         _______ _______ _______ _____ _____    ______ ____
ROOT
ATOM      1  C   LIG A   1      -5.656  -0.545 127.869  0.00  0.00    +0.012 C 
ATOM      2  C   LIG A   1      -6.301  -0.901 129.256  0.00  0.00    -0.021 C 
ATOM      3  C   LIG A   1      -7.012   0.416 129.752  0.00  0.00    +0.021 C 
ATOM      4  C   LIG A   1      -6.079   1.419 130.421  0.00  0.00    -0.063 C 
ATOM      5  C   LIG A   1      -6.667   2.844 130.607  0.00  0.00    -0.005 C 
ATOM      6  C   LIG A   1      -8.244   2.847 130.852  0.00  0.00    -0.020 C 
ATOM      7  C   LIG A   1      -9.092   3.081 129.594  0.00  0.00    +0.012 C 
ATOM      8  C   LIG A   1      -8.523   3.893 132.002  0.00  0.00    -0.001 C 
ATOM      9  C   LIG A   1      -7.233   3.817 132.833  0.00  0.00    +0.005 C 
ATOM     10  C   LIG A   1      -6.093   3.595 131.847  0.00  0.00    +0.012 C 
ATOM     11  C   LIG A   1      -8.658   1.452 131.435  0.00  0.00    +0.008 C 
ATOM     12  C   LIG A   1      -8.309   0.252 130.555  0.00  0.00    +0.009 C 
ATOM     13  C   LIG A   1      -6.220   3.589 129.325  0.00  0.00    +0.016 C 
ATOM     14  C   LIG A   1      -4.795   1.106 130.699  0.00  0.00    -0.026 C 
ATOM     15  C   LIG A   1      -4.157  -0.227 130.448  0.00  0.00    +0.032 C 
ATOM     16  C   LIG A   1      -5.168  -1.370 130.223  0.00  0.00    +0.012 C 
ATOM     17  C   LIG A   1      -5.631  -2.073 131.551  0.00  0.00    +0.027 C 
ATOM     18  C   LIG A   1      -5.615  -1.174 132.807  0.00  0.00    +0.019 C 
ATOM     19  C   LIG A   1      -7.039  -2.673 131.442  0.00  0.00    +0.139 C 
ATOM     20  C   LIG A   1      -7.572  -3.042 130.083  0.00  0.00    +0.075 C 
ATOM     21  C   LIG A   1      -7.266  -2.071 128.954  0.00  0.00    +0.015 C 
ATOM     22  O   LIG A   1      -7.689  -2.974 132.438  0.00  0.00    -0.297 OA
ATOM     23  C   LIG A   1      -4.689  -3.265 131.829  0.00  0.00    +0.019 C 
ENDROOT
BRANCH   8  24
ATOM     24  C   LIG A   1      -8.975   5.380 131.764  0.00  0.00    -0.008 C 
ATOM     25  C   LIG A   1      -8.224   6.126 130.668  0.00  0.00    +0.008 C 
BRANCH  24  26
ATOM     26  C   LIG A   1     -10.509   5.545 131.620  0.00  0.00    +0.037 C 
BRANCH  26  27
ATOM     27  C   LIG A   1     -11.028   6.226 130.328  0.00  0.00    +0.146 C 
BRANCH  27  28
ATOM     28  O   LIG A   1     -11.779   5.211 129.642  0.00  0.00    -0.389 OA
ATOM     29  H   LIG A   1     -11.375   4.360 129.901  0.00  0.00    +0.210 HD
ENDBRANCH  27  28
BRANCH  27  30
ATOM     30  C   LIG A   1     -11.927   7.463 130.583  0.00  0.00    +0.174 C 
BRANCH  30  31
ATOM     31  C   LIG A   1     -12.359   8.254 129.311  0.00  0.00    +0.089 C 
ATOM     32  C   LIG A   1     -12.933   9.646 129.600  0.00  0.00    +0.044 C 
ATOM     33  C   LIG A   1     -11.147   8.413 128.377  0.00  0.00    +0.044 C 
BRANCH  31  34
ATOM     34  O   LIG A   1     -13.337   7.487 128.597  0.00  0.00    -0.387 OA
ATOM     35  H   LIG A   1     -14.188   7.955 128.669  0.00  0.00    +0.210 HD
ENDBRANCH  31  34
ENDBRANCH  30  31
BRANCH  30  36
ATOM     36  O   LIG A   1     -13.094   7.041 131.309  0.00  0.00    -0.386 OA
ATOM     37  H   LIG A   1     -13.586   7.847 131.550  0.00  0.00    +0.210 HD
ENDBRANCH  30  36
ENDBRANCH  27  30
ENDBRANCH  26  27
ENDBRANCH  24  26
ENDBRANCH   8  24
TORSDOF 8
ENDMDL
MODEL 9
REMARK VINA RESULT:      -7.7      4.274      5.963
REMARK  Name = NuBBE_1146
REMARK  16 active torsions:
REMARK  status: ('A' for Active; 'I' for Inactive)
REMARK    1  A    between atoms: C_1  and  C_2
REMARK    2  A    between atoms: C_6  and  C_29
REMARK    3  A    between atoms: C_7  and  C_8
REMARK    4  A    between atoms: C_9  and  C_11
REMARK    5  A    between atoms: C_11  and  C_13
REMARK    6  A    between atoms: C_11  and  C_14
REMARK    7  A    between atoms: C_14  and  C_15
REMARK    8  A    between atoms: C_15  and  O_17
REMARK    9  A    between atoms: C_15  and  C_18
REMARK   10  A    between atoms: C_18  and  O_20
REMARK   11  A    between atoms: C_18  and  C_21
REMARK   12  A    between atoms: C_21  and  O_22
REMARK   13  A    between atoms: C_21  and  C_23
REMARK   14  A    between atoms: C_21  and  C_24
REMARK   15  A    between atoms: C_34  and  C_35
REMARK   16  A    between atoms: C_34  and  C_40
REMARK                            x       y       z     vdW  Elec       q    Type
REMARK                         _______ _______ _______ _____ _____    ______ ____
ROOT
ATOM      1  C   LIG A   1      -6.415  -0.395 122.596  0.00  0.00    +0.012 C 
ATOM      2  C   LIG A   1      -7.404  -0.934 123.690  0.00  0.00    -0.021 C 
ATOM      3  C   LIG A   1      -7.543   0.222 124.753  0.00  0.00    +0.021 C 
ATOM      4  C   LIG A   1      -6.413   0.275 125.774  0.00  0.00    -0.063 C 
ATOM      5  C   LIG A   1      -6.336   1.583 126.607  0.00  0.00    -0.005 C 
ATOM      6  C   LIG A   1      -7.765   2.241 126.878  0.00  0.00    -0.020 C 
ATOM      7  C   LIG A   1      -8.163   3.348 125.891  0.00  0.00    +0.012 C 
ATOM      8  C   LIG A   1      -7.771   2.710 128.385  0.00  0.00    -0.001 C 
ATOM      9  C   LIG A   1      -6.834   1.689 129.048  0.00  0.00    +0.005 C 
ATOM     10  C   LIG A   1      -5.742   1.378 128.033  0.00  0.00    +0.012 C 
ATOM     11  C   LIG A   1      -8.855   1.119 126.775  0.00  0.00    +0.008 C 
ATOM     12  C   LIG A   1      -8.908   0.386 125.435  0.00  0.00    +0.009 C 
ATOM     13  C   LIG A   1      -5.369   2.475 125.789  0.00  0.00    +0.016 C 
ATOM     14  C   LIG A   1      -5.478  -0.698 125.837  0.00  0.00    -0.026 C 
ATOM     15  C   LIG A   1      -5.458  -1.933 124.987  0.00  0.00    +0.032 C 
ATOM     16  C   LIG A   1      -6.804  -2.240 124.300  0.00  0.00    +0.012 C 
ATOM     17  C   LIG A   1      -7.776  -3.110 125.177  0.00  0.00    +0.027 C 
ATOM     18  C   LIG A   1      -7.608  -2.941 126.704  0.00  0.00    +0.019 C 
ATOM     19  C   LIG A   1      -9.253  -2.854 124.854  0.00  0.00    +0.139 C 
ATOM     20  C   LIG A   1      -9.622  -2.323 123.494  0.00  0.00    +0.075 C 
ATOM     21  C   LIG A   1      -8.708  -1.252 122.921  0.00  0.00    +0.015 C 
ATOM     22  O   LIG A   1     -10.148  -3.187 125.625  0.00  0.00    -0.297 OA
ATOM     23  C   LIG A   1      -7.528  -4.600 124.852  0.00  0.00    +0.019 C 
ENDROOT
BRANCH   8  24
ATOM     24  C   LIG A   1      -7.466   4.176 128.864  0.00  0.00    -0.008 C 
ATOM     25  C   LIG A   1      -8.681   4.994 129.286  0.00  0.00    +0.008 C 
BRANCH  24  26
ATOM     26  C   LIG A   1      -6.327   4.261 129.911  0.00  0.00    +0.037 C 
BRANCH  26  27
ATOM     27  C   LIG A   1      -5.091   5.121 129.543  0.00  0.00    +0.146 C 
BRANCH  27  28
ATOM     28  O   LIG A   1      -5.298   5.511 128.175  0.00  0.00    -0.389 OA
ATOM     29  H   LIG A   1      -6.080   5.012 127.871  0.00  0.00    +0.210 HD
ENDBRANCH  27  28
BRANCH  27  30
ATOM     30  C   LIG A   1      -4.911   6.381 130.427  0.00  0.00    +0.174 C 
BRANCH  30  31
ATOM     31  C   LIG A   1      -3.704   7.295 130.057  0.00  0.00    +0.089 C 
ATOM     32  C   LIG A   1      -3.273   8.252 131.175  0.00  0.00    +0.044 C 
ATOM     33  C   LIG A   1      -2.500   6.417 129.679  0.00  0.00    +0.044 C 
BRANCH  31  34
ATOM     34  O   LIG A   1      -4.043   8.062 128.894  0.00  0.00    -0.387 OA
ATOM     35  H   LIG A   1      -4.466   8.885 129.197  0.00  0.00    +0.210 HD
ENDBRANCH  31  34
ENDBRANCH  30  31
BRANCH  30  36
ATOM     36  O   LIG A   1      -6.128   7.147 130.390  0.00  0.00    -0.386 OA
ATOM     37  H   LIG A   1      -6.586   6.995 131.236  0.00  0.00    +0.210 HD
ENDBRANCH  30  36
ENDBRANCH  27  30
ENDBRANCH  26  27
ENDBRANCH  24  26
ENDBRANCH   8  24
TORSDOF 8
ENDMDL
