MODEL 1
REMARK VINA RESULT:      -8.3      0.000      0.000
REMARK  Name = NuBBE_2287
REMARK  4 active torsions:
REMARK  status: ('A' for Active; 'I' for Inactive)
REMARK    1  A    between atoms: C_1  and  C_2
REMARK    2  A    between atoms: C_5  and  O_24
REMARK    3  A    between atoms: C_18  and  C_19
REMARK    4  A    between atoms: C_18  and  C_20
REMARK                            x       y       z     vdW  Elec       q    Type
REMARK                         _______ _______ _______ _____ _____    ______ ____
ROOT
ATOM      1  C   LIG A   1      -7.647  -1.501 128.079  0.00  0.00    +0.016 C 
ATOM      2  C   LIG A   1      -7.784  -1.509 126.516  0.00  0.00    -0.007 C 
ATOM      3  C   LIG A   1      -7.965  -0.025 126.087  0.00  0.00    -0.058 C 
ATOM      4  C   LIG A   1      -9.121   0.502 125.619  0.00  0.00    +0.005 C 
ATOM      5  C   LIG A   1      -9.075   1.356 124.361  0.00  0.00    +0.145 C 
ATOM      6  C   LIG A   1      -7.642   1.765 123.872  0.00  0.00    +0.048 C 
ATOM      7  C   LIG A   1      -6.632   0.717 124.266  0.00  0.00    +0.022 C 
ATOM      8  C   LIG A   1      -6.677   0.765 125.786  0.00  0.00    -0.003 C 
ATOM      9  C   LIG A   1      -6.753   2.306 126.059  0.00  0.00    +0.041 C 
ATOM     10  C   LIG A   1      -7.021   2.850 124.678  0.00  0.00    -0.070 C 
ATOM     11  C   LIG A   1      -6.490   3.971 124.131  0.00  0.00    +0.008 C 
ATOM     12  C   LIG A   1      -5.449   0.157 126.446  0.00  0.00    +0.012 C 
ATOM     13  C   LIG A   1      -5.230  -1.301 126.058  0.00  0.00    +0.006 C 
ATOM     14  C   LIG A   1      -6.507  -2.136 125.781  0.00  0.00    +0.005 C 
ATOM     15  C   LIG A   1      -6.607  -2.784 124.266  0.00  0.00    -0.031 C 
ATOM     16  C   LIG A   1      -5.251  -3.514 123.941  0.00  0.00    +0.011 C 
ATOM     17  C   LIG A   1      -6.889  -2.030 122.920  0.00  0.00    +0.011 C 
ATOM     18  C   LIG A   1      -7.756  -3.807 124.298  0.00  0.00    +0.007 C 
ATOM     19  C   LIG A   1      -8.947  -3.514 125.194  0.00  0.00    +0.001 C 
ATOM     20  C   LIG A   1      -8.992  -2.442 126.274  0.00  0.00    +0.011 C 
ENDROOT
BRANCH   5  21
ATOM     21  O   LIG A   1      -9.938   2.472 124.471  0.00  0.00    -0.387 OA
ATOM     22  H   LIG A   1     -10.481   2.318 125.263  0.00  0.00    +0.210 HD
ENDBRANCH   5  21
TORSDOF 1
ENDMDL
MODEL 2
REMARK VINA RESULT:      -7.6      1.612      2.495
REMARK  Name = NuBBE_2287
REMARK  4 active torsions:
REMARK  status: ('A' for Active; 'I' for Inactive)
REMARK    1  A    between atoms: C_1  and  C_2
REMARK    2  A    between atoms: C_5  and  O_24
REMARK    3  A    between atoms: C_18  and  C_19
REMARK    4  A    between atoms: C_18  and  C_20
REMARK                            x       y       z     vdW  Elec       q    Type
REMARK                         _______ _______ _______ _____ _____    ______ ____
ROOT
ATOM      1  C   LIG A   1      -5.138  -1.864 128.493  0.00  0.00    +0.016 C 
ATOM      2  C   LIG A   1      -6.597  -1.744 127.928  0.00  0.00    -0.007 C 
ATOM      3  C   LIG A   1      -6.838  -0.231 127.662  0.00  0.00    -0.058 C 
ATOM      4  C   LIG A   1      -7.664   0.554 128.393  0.00  0.00    +0.005 C 
ATOM      5  C   LIG A   1      -8.645   1.458 127.663  0.00  0.00    +0.145 C 
ATOM      6  C   LIG A   1      -8.422   1.589 126.115  0.00  0.00    +0.048 C 
ATOM      7  C   LIG A   1      -7.802   0.330 125.564  0.00  0.00    +0.022 C 
ATOM      8  C   LIG A   1      -6.451   0.290 126.264  0.00  0.00    -0.003 C 
ATOM      9  C   LIG A   1      -6.011   1.792 126.203  0.00  0.00    +0.041 C 
ATOM     10  C   LIG A   1      -7.281   2.467 125.746  0.00  0.00    -0.070 C 
ATOM     11  C   LIG A   1      -7.383   3.485 124.857  0.00  0.00    +0.008 C 
ATOM     12  C   LIG A   1      -5.436  -0.602 125.567  0.00  0.00    +0.012 C 
ATOM     13  C   LIG A   1      -5.908  -2.045 125.437  0.00  0.00    +0.006 C 
ATOM     14  C   LIG A   1      -6.814  -2.576 126.578  0.00  0.00    +0.005 C 
ATOM     15  C   LIG A   1      -8.310  -3.092 126.105  0.00  0.00    -0.031 C 
ATOM     16  C   LIG A   1      -8.141  -4.067 124.881  0.00  0.00    +0.011 C 
ATOM     17  C   LIG A   1      -9.522  -2.211 125.641  0.00  0.00    +0.011 C 
ATOM     18  C   LIG A   1      -8.913  -3.852 127.299  0.00  0.00    +0.007 C 
ATOM     19  C   LIG A   1      -8.564  -3.374 128.698  0.00  0.00    +0.001 C 
ATOM     20  C   LIG A   1      -7.458  -2.387 129.040  0.00  0.00    +0.011 C 
ENDROOT
BRANCH   5  21
ATOM     21  O   LIG A   1      -8.743   2.721 128.294  0.00  0.00    -0.387 OA
ATOM     22  H   LIG A   1      -9.243   2.575 129.116  0.00  0.00    +0.210 HD
ENDBRANCH   5  21
TORSDOF 1
ENDMDL
MODEL 3
REMARK VINA RESULT:      -7.5      2.108      4.759
REMARK  Name = NuBBE_2287
REMARK  4 active torsions:
REMARK  status: ('A' for Active; 'I' for Inactive)
REMARK    1  A    between atoms: C_1  and  C_2
REMARK    2  A    between atoms: C_5  and  O_24
REMARK    3  A    between atoms: C_18  and  C_19
REMARK    4  A    between atoms: C_18  and  C_20
REMARK                            x       y       z     vdW  Elec       q    Type
REMARK                         _______ _______ _______ _____ _____    ______ ____
ROOT
ATOM      1  C   LIG A   1      -6.025  -2.131 123.084  0.00  0.00    +0.016 C 
ATOM      2  C   LIG A   1      -7.282  -1.607 123.865  0.00  0.00    -0.007 C 
ATOM      3  C   LIG A   1      -7.235  -2.279 125.266  0.00  0.00    -0.058 C 
ATOM      4  C   LIG A   1      -8.086  -3.247 125.681  0.00  0.00    +0.005 C 
ATOM      5  C   LIG A   1      -8.733  -3.110 127.051  0.00  0.00    +0.145 C 
ATOM      6  C   LIG A   1      -8.142  -1.983 127.969  0.00  0.00    +0.048 C 
ATOM      7  C   LIG A   1      -7.598  -0.853 127.132  0.00  0.00    +0.022 C 
ATOM      8  C   LIG A   1      -6.466  -1.522 126.366  0.00  0.00    -0.003 C 
ATOM      9  C   LIG A   1      -5.813  -2.419 127.471  0.00  0.00    +0.041 C 
ATOM     10  C   LIG A   1      -6.833  -2.333 128.580  0.00  0.00    -0.070 C 
ATOM     11  C   LIG A   1      -6.580  -2.227 129.907  0.00  0.00    +0.008 C 
ATOM     12  C   LIG A   1      -5.455  -0.536 125.799  0.00  0.00    +0.012 C 
ATOM     13  C   LIG A   1      -6.086   0.481 124.856  0.00  0.00    +0.006 C 
ATOM     14  C   LIG A   1      -7.298  -0.015 124.024  0.00  0.00    +0.005 C 
ATOM     15  C   LIG A   1      -8.702   0.821 124.262  0.00  0.00    -0.031 C 
ATOM     16  C   LIG A   1      -8.396   2.361 124.141  0.00  0.00    +0.011 C 
ATOM     17  C   LIG A   1      -9.635   0.784 125.521  0.00  0.00    +0.011 C 
ATOM     18  C   LIG A   1      -9.666   0.391 123.144  0.00  0.00    +0.007 C 
ATOM     19  C   LIG A   1      -9.586  -1.041 122.644  0.00  0.00    +0.001 C 
ATOM     20  C   LIG A   1      -8.459  -2.017 122.950  0.00  0.00    +0.011 C 
ENDROOT
BRANCH   5  21
ATOM     21  O   LIG A   1      -8.792  -4.359 127.714  0.00  0.00    -0.387 OA
ATOM     22  H   LIG A   1      -8.023  -4.868 127.403  0.00  0.00    +0.210 HD
ENDBRANCH   5  21
TORSDOF 1
ENDMDL
MODEL 4
REMARK VINA RESULT:      -7.3      1.593      2.578
REMARK  Name = NuBBE_2287
REMARK  4 active torsions:
REMARK  status: ('A' for Active; 'I' for Inactive)
REMARK    1  A    between atoms: C_1  and  C_2
REMARK    2  A    between atoms: C_5  and  O_24
REMARK    3  A    between atoms: C_18  and  C_19
REMARK    4  A    between atoms: C_18  and  C_20
REMARK                            x       y       z     vdW  Elec       q    Type
REMARK                         _______ _______ _______ _____ _____    ______ ____
ROOT
ATOM      1  C   LIG A   1      -8.163   2.178 127.331  0.00  0.00    +0.016 C 
ATOM      2  C   LIG A   1      -8.059   1.357 125.998  0.00  0.00    -0.007 C 
ATOM      3  C   LIG A   1      -7.805   2.394 124.868  0.00  0.00    -0.058 C 
ATOM      4  C   LIG A   1      -8.713   2.735 123.922  0.00  0.00    +0.005 C 
ATOM      5  C   LIG A   1      -8.269   2.775 122.468  0.00  0.00    +0.145 C 
ATOM      6  C   LIG A   1      -6.722   2.673 122.228  0.00  0.00    +0.048 C 
ATOM      7  C   LIG A   1      -6.070   1.875 123.330  0.00  0.00    +0.022 C 
ATOM      8  C   LIG A   1      -6.333   2.730 124.560  0.00  0.00    -0.003 C 
ATOM      9  C   LIG A   1      -6.071   4.174 124.013  0.00  0.00    +0.041 C 
ATOM     10  C   LIG A   1      -5.985   3.929 122.527  0.00  0.00    -0.070 C 
ATOM     11  C   LIG A   1      -5.120   4.508 121.659  0.00  0.00    +0.008 C 
ATOM     12  C   LIG A   1      -5.406   2.413 125.724  0.00  0.00    +0.012 C 
ATOM     13  C   LIG A   1      -5.493   0.959 126.171  0.00  0.00    +0.006 C 
ATOM     14  C   LIG A   1      -6.878   0.277 126.021  0.00  0.00    +0.005 C 
ATOM     15  C   LIG A   1      -6.902  -1.059 125.051  0.00  0.00    -0.031 C 
ATOM     16  C   LIG A   1      -5.732  -2.017 125.486  0.00  0.00    +0.011 C 
ATOM     17  C   LIG A   1      -6.783  -1.107 123.488  0.00  0.00    +0.011 C 
ATOM     18  C   LIG A   1      -8.256  -1.749 125.284  0.00  0.00    +0.007 C 
ATOM     19  C   LIG A   1      -9.462  -0.874 125.581  0.00  0.00    +0.001 C 
ATOM     20  C   LIG A   1      -9.407   0.603 125.943  0.00  0.00    +0.011 C 
ENDROOT
BRANCH   5  21
ATOM     21  O   LIG A   1      -8.840   3.879 121.791  0.00  0.00    -0.387 OA
ATOM     22  H   LIG A   1      -8.403   4.671 122.147  0.00  0.00    +0.210 HD
ENDBRANCH   5  21
TORSDOF 1
ENDMDL
MODEL 5
REMARK VINA RESULT:      -7.3      2.168      4.167
REMARK  Name = NuBBE_2287
REMARK  4 active torsions:
REMARK  status: ('A' for Active; 'I' for Inactive)
REMARK    1  A    between atoms: C_1  and  C_2
REMARK    2  A    between atoms: C_5  and  O_24
REMARK    3  A    between atoms: C_18  and  C_19
REMARK    4  A    between atoms: C_18  and  C_20
REMARK                            x       y       z     vdW  Elec       q    Type
REMARK                         _______ _______ _______ _____ _____    ______ ____
ROOT
ATOM      1  C   LIG A   1      -5.358   0.770 128.275  0.00  0.00    +0.016 C 
ATOM      2  C   LIG A   1      -6.590  -0.199 128.355  0.00  0.00    -0.007 C 
ATOM      3  C   LIG A   1      -7.235  -0.200 126.941  0.00  0.00    -0.058 C 
ATOM      4  C   LIG A   1      -8.425   0.374 126.640  0.00  0.00    +0.005 C 
ATOM      5  C   LIG A   1      -9.434  -0.426 125.831  0.00  0.00    +0.145 C 
ATOM      6  C   LIG A   1      -8.892  -1.751 125.191  0.00  0.00    +0.048 C 
ATOM      7  C   LIG A   1      -7.781  -2.326 126.032  0.00  0.00    +0.022 C 
ATOM      8  C   LIG A   1      -6.707  -1.251 125.946  0.00  0.00    -0.003 C 
ATOM      9  C   LIG A   1      -6.778  -0.844 124.435  0.00  0.00    +0.041 C 
ATOM     10  C   LIG A   1      -8.044  -1.534 123.989  0.00  0.00    -0.070 C 
ATOM     11  C   LIG A   1      -8.249  -2.170 122.810  0.00  0.00    +0.008 C 
ATOM     12  C   LIG A   1      -5.319  -1.755 126.308  0.00  0.00    +0.012 C 
ATOM     13  C   LIG A   1      -5.248  -2.335 127.715  0.00  0.00    +0.006 C 
ATOM     14  C   LIG A   1      -6.185  -1.691 128.771  0.00  0.00    +0.005 C 
ATOM     15  C   LIG A   1      -7.267  -2.722 129.473  0.00  0.00    -0.031 C 
ATOM     16  C   LIG A   1      -6.494  -4.003 129.962  0.00  0.00    +0.011 C 
ATOM     17  C   LIG A   1      -8.545  -3.355 128.822  0.00  0.00    +0.011 C 
ATOM     18  C   LIG A   1      -7.864  -1.980 130.680  0.00  0.00    +0.007 C 
ATOM     19  C   LIG A   1      -8.046  -0.475 130.574  0.00  0.00    +0.001 C 
ATOM     20  C   LIG A   1      -7.441   0.409 129.494  0.00  0.00    +0.011 C 
ENDROOT
BRANCH   5  21
ATOM     21  O   LIG A   1     -10.089   0.394 124.881  0.00  0.00    -0.387 OA
ATOM     22  H   LIG A   1     -10.945   0.635 125.275  0.00  0.00    +0.210 HD
ENDBRANCH   5  21
TORSDOF 1
ENDMDL
MODEL 6
REMARK VINA RESULT:      -7.1      6.913      8.893
REMARK  Name = NuBBE_2287
REMARK  4 active torsions:
REMARK  status: ('A' for Active; 'I' for Inactive)
REMARK    1  A    between atoms: C_1  and  C_2
REMARK    2  A    between atoms: C_5  and  O_24
REMARK    3  A    between atoms: C_18  and  C_19
REMARK    4  A    between atoms: C_18  and  C_20
REMARK                            x       y       z     vdW  Elec       q    Type
REMARK                         _______ _______ _______ _____ _____    ______ ____
ROOT
ATOM      1  C   LIG A   1      -7.096   6.484 131.637  0.00  0.00    +0.016 C 
ATOM      2  C   LIG A   1      -8.288   5.491 131.873  0.00  0.00    -0.007 C 
ATOM      3  C   LIG A   1      -9.557   6.190 131.311  0.00  0.00    -0.058 C 
ATOM      4  C   LIG A   1     -10.562   6.685 132.073  0.00  0.00    +0.005 C 
ATOM      5  C   LIG A   1     -11.996   6.348 131.694  0.00  0.00    +0.145 C 
ATOM      6  C   LIG A   1     -12.185   5.672 130.290  0.00  0.00    +0.048 C 
ATOM      7  C   LIG A   1     -10.962   4.870 129.923  0.00  0.00    +0.022 C 
ATOM      8  C   LIG A   1      -9.881   5.935 129.826  0.00  0.00    -0.003 C 
ATOM      9  C   LIG A   1     -10.635   7.096 129.092  0.00  0.00    +0.041 C 
ATOM     10  C   LIG A   1     -12.065   6.618 129.149  0.00  0.00    -0.070 C 
ATOM     11  C   LIG A   1     -12.993   6.717 128.166  0.00  0.00    +0.008 C 
ATOM     12  C   LIG A   1      -8.664   5.489 129.030  0.00  0.00    +0.012 C 
ATOM     13  C   LIG A   1      -8.003   4.243 129.607  0.00  0.00    +0.006 C 
ATOM     14  C   LIG A   1      -8.076   4.079 131.148  0.00  0.00    +0.005 C 
ATOM     15  C   LIG A   1      -8.834   2.709 131.673  0.00  0.00    -0.031 C 
ATOM     16  C   LIG A   1      -8.234   1.476 130.900  0.00  0.00    +0.011 C 
ATOM     17  C   LIG A   1     -10.368   2.390 131.632  0.00  0.00    +0.011 C 
ATOM     18  C   LIG A   1      -8.526   2.584 133.175  0.00  0.00    +0.007 C 
ATOM     19  C   LIG A   1      -8.390   3.862 133.985  0.00  0.00    +0.001 C 
ATOM     20  C   LIG A   1      -8.255   5.261 133.402  0.00  0.00    +0.011 C 
ENDROOT
BRANCH   5  21
ATOM     21  O   LIG A   1     -12.844   7.468 131.863  0.00  0.00    -0.387 OA
ATOM     22  H   LIG A   1     -13.223   7.389 132.755  0.00  0.00    +0.210 HD
ENDBRANCH   5  21
TORSDOF 1
ENDMDL
MODEL 7
REMARK VINA RESULT:      -6.9      2.814      5.527
REMARK  Name = NuBBE_2287
REMARK  4 active torsions:
REMARK  status: ('A' for Active; 'I' for Inactive)
REMARK    1  A    between atoms: C_1  and  C_2
REMARK    2  A    between atoms: C_5  and  O_24
REMARK    3  A    between atoms: C_18  and  C_19
REMARK    4  A    between atoms: C_18  and  C_20
REMARK                            x       y       z     vdW  Elec       q    Type
REMARK                         _______ _______ _______ _____ _____    ______ ____
ROOT
ATOM      1  C   LIG A   1      -5.386  -3.663 129.590  0.00  0.00    +0.016 C 
ATOM      2  C   LIG A   1      -5.861  -2.275 129.033  0.00  0.00    -0.007 C 
ATOM      3  C   LIG A   1      -6.263  -2.515 127.550  0.00  0.00    -0.058 C 
ATOM      4  C   LIG A   1      -5.561  -2.064 126.483  0.00  0.00    +0.005 C 
ATOM      5  C   LIG A   1      -6.312  -1.364 125.361  0.00  0.00    +0.145 C 
ATOM      6  C   LIG A   1      -7.876  -1.467 125.425  0.00  0.00    +0.048 C 
ATOM      7  C   LIG A   1      -8.337  -1.588 126.856  0.00  0.00    +0.022 C 
ATOM      8  C   LIG A   1      -7.729  -2.913 127.291  0.00  0.00    -0.003 C 
ATOM      9  C   LIG A   1      -7.971  -3.810 126.030  0.00  0.00    +0.041 C 
ATOM     10  C   LIG A   1      -8.408  -2.791 125.007  0.00  0.00    -0.070 C 
ATOM     11  C   LIG A   1      -9.387  -2.940 124.082  0.00  0.00    +0.008 C 
ATOM     12  C   LIG A   1      -8.398  -3.510 128.520  0.00  0.00    +0.012 C 
ATOM     13  C   LIG A   1      -8.350  -2.584 129.729  0.00  0.00    +0.006 C 
ATOM     14  C   LIG A   1      -7.102  -1.669 129.842  0.00  0.00    +0.005 C 
ATOM     15  C   LIG A   1      -7.419  -0.049 129.864  0.00  0.00    -0.031 C 
ATOM     16  C   LIG A   1      -8.547   0.228 130.927  0.00  0.00    +0.011 C 
ATOM     17  C   LIG A   1      -7.888   0.850 128.667  0.00  0.00    +0.011 C 
ATOM     18  C   LIG A   1      -6.117   0.650 130.290  0.00  0.00    +0.007 C 
ATOM     19  C   LIG A   1      -4.800   0.032 129.854  0.00  0.00    +0.001 C 
ATOM     20  C   LIG A   1      -4.635  -1.363 129.269  0.00  0.00    +0.011 C 
ENDROOT
BRANCH   5  21
ATOM     21  O   LIG A   1      -5.807  -1.745 124.094  0.00  0.00    -0.387 OA
ATOM     22  H   LIG A   1      -4.846  -1.847 124.206  0.00  0.00    +0.210 HD
ENDBRANCH   5  21
TORSDOF 1
ENDMDL
MODEL 8
REMARK VINA RESULT:      -6.9      2.109      4.992
REMARK  Name = NuBBE_2287
REMARK  4 active torsions:
REMARK  status: ('A' for Active; 'I' for Inactive)
REMARK    1  A    between atoms: C_1  and  C_2
REMARK    2  A    between atoms: C_5  and  O_24
REMARK    3  A    between atoms: C_18  and  C_19
REMARK    4  A    between atoms: C_18  and  C_20
REMARK                            x       y       z     vdW  Elec       q    Type
REMARK                         _______ _______ _______ _____ _____    ______ ____
ROOT
ATOM      1  C   LIG A   1      -5.058  -1.840 127.820  0.00  0.00    +0.016 C 
ATOM      2  C   LIG A   1      -5.876  -0.801 126.976  0.00  0.00    -0.007 C 
ATOM      3  C   LIG A   1      -6.431  -1.576 125.749  0.00  0.00    -0.058 C 
ATOM      4  C   LIG A   1      -5.995  -1.413 124.477  0.00  0.00    +0.005 C 
ATOM      5  C   LIG A   1      -7.025  -1.243 123.370  0.00  0.00    +0.145 C 
ATOM      6  C   LIG A   1      -8.511  -1.540 123.777  0.00  0.00    +0.048 C 
ATOM      7  C   LIG A   1      -8.727  -1.241 125.239  0.00  0.00    +0.022 C 
ATOM      8  C   LIG A   1      -7.810  -2.243 125.923  0.00  0.00    -0.003 C 
ATOM      9  C   LIG A   1      -8.046  -3.534 125.069  0.00  0.00    +0.041 C 
ATOM     10  C   LIG A   1      -8.822  -2.989 123.895  0.00  0.00    -0.070 C 
ATOM     11  C   LIG A   1      -9.875  -3.576 123.275  0.00  0.00    +0.008 C 
ATOM     12  C   LIG A   1      -8.162  -2.485 127.383  0.00  0.00    +0.012 C 
ATOM     13  C   LIG A   1      -8.125  -1.212 128.219  0.00  0.00    +0.006 C 
ATOM     14  C   LIG A   1      -7.083  -0.143 127.797  0.00  0.00    +0.005 C 
ATOM     15  C   LIG A   1      -7.712   1.328 127.390  0.00  0.00    -0.031 C 
ATOM     16  C   LIG A   1      -8.707   1.780 128.523  0.00  0.00    +0.011 C 
ATOM     17  C   LIG A   1      -8.518   1.699 126.097  0.00  0.00    +0.011 C 
ATOM     18  C   LIG A   1      -6.528   2.308 127.313  0.00  0.00    +0.007 C 
ATOM     19  C   LIG A   1      -5.191   1.774 126.829  0.00  0.00    +0.001 C 
ATOM     20  C   LIG A   1      -4.836   0.303 126.673  0.00  0.00    +0.011 C 
ENDROOT
BRANCH   5  21
ATOM     21  O   LIG A   1      -6.642  -1.947 122.204  0.00  0.00    -0.387 OA
ATOM     22  H   LIG A   1      -5.671  -2.006 122.230  0.00  0.00    +0.210 HD
ENDBRANCH   5  21
TORSDOF 1
ENDMDL
MODEL 9
REMARK VINA RESULT:      -6.9      6.540      9.257
REMARK  Name = NuBBE_2287
REMARK  4 active torsions:
REMARK  status: ('A' for Active; 'I' for Inactive)
REMARK    1  A    between atoms: C_1  and  C_2
REMARK    2  A    between atoms: C_5  and  O_24
REMARK    3  A    between atoms: C_18  and  C_19
REMARK    4  A    between atoms: C_18  and  C_20
REMARK                            x       y       z     vdW  Elec       q    Type
REMARK                         _______ _______ _______ _____ _____    ______ ____
ROOT
ATOM      1  C   LIG A   1      -4.637   8.286 130.199  0.00  0.00    +0.016 C 
ATOM      2  C   LIG A   1      -4.763   6.799 130.683  0.00  0.00    -0.007 C 
ATOM      3  C   LIG A   1      -4.459   5.911 129.444  0.00  0.00    -0.058 C 
ATOM      4  C   LIG A   1      -5.385   5.177 128.780  0.00  0.00    +0.005 C 
ATOM      5  C   LIG A   1      -5.063   3.728 128.447  0.00  0.00    +0.145 C 
ATOM      6  C   LIG A   1      -3.572   3.296 128.673  0.00  0.00    +0.048 C 
ATOM      7  C   LIG A   1      -2.951   4.106 129.784  0.00  0.00    +0.022 C 
ATOM      8  C   LIG A   1      -2.985   5.520 129.223  0.00  0.00    -0.003 C 
ATOM      9  C   LIG A   1      -2.565   5.287 127.732  0.00  0.00    +0.041 C 
ATOM     10  C   LIG A   1      -2.640   3.784 127.622  0.00  0.00    -0.070 C 
ATOM     11  C   LIG A   1      -1.777   2.976 126.961  0.00  0.00    +0.008 C 
ATOM     12  C   LIG A   1      -2.019   6.468 129.918  0.00  0.00    +0.012 C 
ATOM     13  C   LIG A   1      -2.275   6.581 131.415  0.00  0.00    +0.006 C 
ATOM     14  C   LIG A   1      -3.751   6.441 131.871  0.00  0.00    +0.005 C 
ATOM     15  C   LIG A   1      -4.047   5.203 132.923  0.00  0.00    -0.031 C 
ATOM     16  C   LIG A   1      -2.994   5.274 134.091  0.00  0.00    +0.011 C 
ATOM     17  C   LIG A   1      -4.068   3.667 132.610  0.00  0.00    +0.011 C 
ATOM     18  C   LIG A   1      -5.462   5.428 133.482  0.00  0.00    +0.007 C 
ATOM     19  C   LIG A   1      -6.501   6.052 132.565  0.00  0.00    +0.001 C 
ATOM     20  C   LIG A   1      -6.205   6.730 131.235  0.00  0.00    +0.011 C 
ENDROOT
BRANCH   5  21
ATOM     21  O   LIG A   1      -5.524   3.389 127.153  0.00  0.00    -0.387 OA
ATOM     22  H   LIG A   1      -4.730   3.287 126.601  0.00  0.00    +0.210 HD
ENDBRANCH   5  21
TORSDOF 1
ENDMDL
