MODEL 1
REMARK VINA RESULT:      -9.5      0.000      0.000
REMARK  Name = NuBBE_89
REMARK  17 active torsions:
REMARK  status: ('A' for Active; 'I' for Inactive)
REMARK    1  A    between atoms: C_4  and  C_43
REMARK    2  A    between atoms: C_9  and  C_10
REMARK    3  A    between atoms: C_11  and  C_12
REMARK    4  A    between atoms: C_12  and  C_14
REMARK    5  A    between atoms: C_12  and  C_15
REMARK    6  A    between atoms: C_15  and  C_16
REMARK    7  A    between atoms: C_21  and  C_22
REMARK    8  A    between atoms: C_22  and  C_23
REMARK    9  A    between atoms: C_23  and  C_25
REMARK   10  A    between atoms: C_23  and  C_26
REMARK   11  A    between atoms: C_26  and  O_28
REMARK   12  A    between atoms: C_26  and  C_41
REMARK   13  A    between atoms: O_28  and  C_29
REMARK   14  A    between atoms: C_29  and  C_30
REMARK   15  A    between atoms: C_30  and  O_31
REMARK   16  A    between atoms: C_30  and  C_34
REMARK   17  A    between atoms: O_31  and  C_32
REMARK                            x       y       z     vdW  Elec       q    Type
REMARK                         _______ _______ _______ _____ _____    ______ ____
ROOT
ATOM      1  O   LIG A   1      -9.822   1.401 125.529  0.00  0.00    -0.245 OA
ATOM      2  C   LIG A   1      -8.982   0.567 125.666  0.00  0.00    +0.344 C 
ATOM      3  O   LIG A   1      -8.892  -0.525 124.882  0.00  0.00    -0.442 OA
ATOM      4  C   LIG A   1      -8.074  -1.483 125.534  0.00  0.00    +0.200 C 
ATOM      5  C   LIG A   1      -7.435  -0.727 126.630  0.00  0.00    +0.031 C 
ATOM      6  C   LIG A   1      -6.723  -1.582 127.552  0.00  0.00    +0.027 C 
ATOM      7  C   LIG A   1      -5.414  -1.544 127.866  0.00  0.00    +0.204 C 
ATOM      8  O   LIG A   1      -4.828  -2.395 128.806  0.00  0.00    -0.463 OA
ATOM      9  C   LIG A   1      -5.682  -3.130 129.646  0.00  0.00    +0.128 C 
ATOM     10  C   LIG A   1      -6.983  -3.290 129.347  0.00  0.00    +0.056 C 
ATOM     11  C   LIG A   1      -7.479  -2.712 128.117  0.00  0.00    +0.011 C 
ATOM     12  C   LIG A   1      -8.583  -3.157 127.482  0.00  0.00    +0.096 C 
ATOM     13 CL   LIG A   1      -9.611  -4.404 128.107  0.00  0.00    -0.079 Cl
ATOM     14  C   LIG A   1      -7.939   0.512 126.719  0.00  0.00    +0.110 C 
ATOM     15  C   LIG A   1      -7.061  -1.981 124.515  0.00  0.00    +0.070 C 
ATOM     16  C   LIG A   1      -8.972  -2.589 126.141  0.00  0.00    +0.222 C 
ATOM     17  O   LIG A   1      -9.984  -2.983 125.559  0.00  0.00    -0.286 OA
ENDROOT
BRANCH   9  18
ATOM     18  C   LIG A   1      -5.043  -3.722 130.805  0.00  0.00    +0.042 C 
ATOM     19  C   LIG A   1      -5.599  -4.640 131.619  0.00  0.00    -0.020 C 
BRANCH  19  20
ATOM     20  C   LIG A   1      -4.866  -5.306 132.756  0.00  0.00    +0.008 C 
ATOM     21  C   LIG A   1      -3.577  -4.542 133.064  0.00  0.00    +0.012 C 
BRANCH  20  22
ATOM     22  C   LIG A   1      -5.733  -5.408 134.031  0.00  0.00    +0.004 C 
ATOM     23  C   LIG A   1      -6.797  -4.324 134.154  0.00  0.00    +0.004 C 
ENDBRANCH  20  22
ENDBRANCH  19  20
ENDBRANCH   9  18
BRANCH  14  24
ATOM     24  C   LIG A   1      -7.747   1.538 127.778  0.00  0.00    +0.177 C 
ATOM     25  O   LIG A   1      -8.090   1.276 128.931  0.00  0.00    -0.291 OA
BRANCH  24  26
ATOM     26  C   LIG A   1      -7.215   2.937 127.422  0.00  0.00    +0.098 C 
ATOM     27  C   LIG A   1      -5.858   2.783 126.709  0.00  0.00    +0.020 C 
BRANCH  26  28
ATOM     28  C   LIG A   1      -7.131   3.941 128.596  0.00  0.00    +0.184 C 
ATOM     29  C   LIG A   1      -5.732   4.531 128.796  0.00  0.00    +0.052 C 
BRANCH  28  30
ATOM     30  O   LIG A   1      -8.150   4.970 128.645  0.00  0.00    -0.459 OA
BRANCH  30  31
ATOM     31  C   LIG A   1      -9.159   4.853 129.561  0.00  0.00    +0.341 C 
ATOM     32  O   LIG A   1      -9.832   3.841 129.689  0.00  0.00    -0.247 OA
BRANCH  31  33
ATOM     33  C   LIG A   1      -9.378   6.205 130.265  0.00  0.00    +0.256 C 
BRANCH  33  34
ATOM     34  C   LIG A   1     -10.520   7.031 129.696  0.00  0.00    -0.008 A 
ATOM     35  C   LIG A   1     -11.627   7.379 130.490  0.00  0.00    +0.007 A 
ATOM     36  C   LIG A   1     -12.584   8.283 130.017  0.00  0.00    +0.000 A 
ATOM     37  C   LIG A   1     -12.438   8.861 128.756  0.00  0.00    +0.000 A 
ATOM     38  C   LIG A   1     -11.377   8.481 127.940  0.00  0.00    +0.000 A 
ATOM     39  C   LIG A   1     -10.448   7.545 128.393  0.00  0.00    +0.007 A 
ENDBRANCH  33  34
BRANCH  33  40
ATOM     40  O   LIG A   1      -8.114   6.895 130.184  0.00  0.00    -0.364 OA
ATOM     41  C   LIG A   1      -7.307   6.782 131.348  0.00  0.00    +0.195 C 
ENDBRANCH  33  40
ENDBRANCH  31  33
ENDBRANCH  30  31
ENDBRANCH  28  30
ENDBRANCH  26  28
ENDBRANCH  24  26
ENDBRANCH  14  24
TORSDOF 11
ENDMDL
MODEL 2
REMARK VINA RESULT:      -9.5      3.669      4.599
REMARK  Name = NuBBE_89
REMARK  17 active torsions:
REMARK  status: ('A' for Active; 'I' for Inactive)
REMARK    1  A    between atoms: C_4  and  C_43
REMARK    2  A    between atoms: C_9  and  C_10
REMARK    3  A    between atoms: C_11  and  C_12
REMARK    4  A    between atoms: C_12  and  C_14
REMARK    5  A    between atoms: C_12  and  C_15
REMARK    6  A    between atoms: C_15  and  C_16
REMARK    7  A    between atoms: C_21  and  C_22
REMARK    8  A    between atoms: C_22  and  C_23
REMARK    9  A    between atoms: C_23  and  C_25
REMARK   10  A    between atoms: C_23  and  C_26
REMARK   11  A    between atoms: C_26  and  O_28
REMARK   12  A    between atoms: C_26  and  C_41
REMARK   13  A    between atoms: O_28  and  C_29
REMARK   14  A    between atoms: C_29  and  C_30
REMARK   15  A    between atoms: C_30  and  O_31
REMARK   16  A    between atoms: C_30  and  C_34
REMARK   17  A    between atoms: O_31  and  C_32
REMARK                            x       y       z     vdW  Elec       q    Type
REMARK                         _______ _______ _______ _____ _____    ______ ____
ROOT
ATOM      1  O   LIG A   1     -10.761   0.524 122.401  0.00  0.00    -0.245 OA
ATOM      2  C   LIG A   1      -9.736   0.068 122.803  0.00  0.00    +0.344 C 
ATOM      3  O   LIG A   1      -9.303  -1.168 122.489  0.00  0.00    -0.442 OA
ATOM      4  C   LIG A   1      -8.297  -1.544 123.415  0.00  0.00    +0.200 C 
ATOM      5  C   LIG A   1      -7.956  -0.286 124.109  0.00  0.00    +0.031 C 
ATOM      6  C   LIG A   1      -7.096  -0.498 125.251  0.00  0.00    +0.027 C 
ATOM      7  C   LIG A   1      -5.869   0.015 125.463  0.00  0.00    +0.204 C 
ATOM      8  O   LIG A   1      -5.131  -0.221 126.626  0.00  0.00    -0.463 OA
ATOM      9  C   LIG A   1      -5.803  -0.788 127.722  0.00  0.00    +0.128 C 
ATOM     10  C   LIG A   1      -6.990  -1.401 127.571  0.00  0.00    +0.056 C 
ATOM     11  C   LIG A   1      -7.549  -1.491 126.239  0.00  0.00    +0.011 C 
ATOM     12  C   LIG A   1      -8.449  -2.428 125.875  0.00  0.00    +0.096 C 
ATOM     13 CL   LIG A   1      -9.134  -3.577 126.976  0.00  0.00    -0.079 Cl
ATOM     14  C   LIG A   1      -8.783   0.705 123.746  0.00  0.00    +0.110 C 
ATOM     15  C   LIG A   1      -7.125  -2.090 122.614  0.00  0.00    +0.070 C 
ATOM     16  C   LIG A   1      -8.894  -2.539 124.439  0.00  0.00    +0.222 C 
ATOM     17  O   LIG A   1      -9.724  -3.386 124.101  0.00  0.00    -0.286 OA
ENDROOT
BRANCH   9  18
ATOM     18  C   LIG A   1      -5.099  -0.699 128.986  0.00  0.00    +0.042 C 
ATOM     19  C   LIG A   1      -5.670  -0.463 130.183  0.00  0.00    -0.020 C 
BRANCH  19  20
ATOM     20  C   LIG A   1      -4.916  -0.474 131.489  0.00  0.00    +0.008 C 
ATOM     21  C   LIG A   1      -3.648  -1.318 131.352  0.00  0.00    +0.012 C 
BRANCH  20  22
ATOM     22  C   LIG A   1      -4.550   0.948 131.967  0.00  0.00    +0.004 C 
ATOM     23  C   LIG A   1      -3.383   1.000 132.946  0.00  0.00    +0.004 C 
ENDBRANCH  20  22
ENDBRANCH  19  20
ENDBRANCH   9  18
BRANCH  14  24
ATOM     24  C   LIG A   1      -8.944   2.065 124.325  0.00  0.00    +0.177 C 
ATOM     25  O   LIG A   1      -9.752   2.232 125.239  0.00  0.00    -0.291 OA
BRANCH  24  26
ATOM     26  C   LIG A   1      -8.181   3.261 123.732  0.00  0.00    +0.098 C 
ATOM     27  C   LIG A   1      -7.981   3.021 122.223  0.00  0.00    +0.020 C 
BRANCH  26  28
ATOM     28  C   LIG A   1      -6.850   3.623 124.433  0.00  0.00    +0.184 C 
ATOM     29  C   LIG A   1      -5.725   3.984 123.458  0.00  0.00    +0.052 C 
BRANCH  28  30
ATOM     30  O   LIG A   1      -6.928   4.571 125.526  0.00  0.00    -0.459 OA
BRANCH  30  31
ATOM     31  C   LIG A   1      -5.885   4.646 126.407  0.00  0.00    +0.341 C 
ATOM     32  O   LIG A   1      -5.184   5.639 126.530  0.00  0.00    -0.247 OA
BRANCH  31  33
ATOM     33  C   LIG A   1      -5.675   3.276 127.078  0.00  0.00    +0.256 C 
BRANCH  33  34
ATOM     34  C   LIG A   1      -6.670   2.957 128.181  0.00  0.00    -0.008 A 
ATOM     35  C   LIG A   1      -7.793   2.148 127.931  0.00  0.00    +0.007 A 
ATOM     36  C   LIG A   1      -8.605   1.715 128.985  0.00  0.00    +0.000 A 
ATOM     37  C   LIG A   1      -8.296   2.069 130.298  0.00  0.00    +0.000 A 
ATOM     38  C   LIG A   1      -7.221   2.916 130.551  0.00  0.00    +0.000 A 
ATOM     39  C   LIG A   1      -6.439   3.386 129.496  0.00  0.00    +0.007 A 
ENDBRANCH  33  34
BRANCH  33  40
ATOM     40  O   LIG A   1      -4.314   3.283 127.557  0.00  0.00    -0.364 OA
ATOM     41  C   LIG A   1      -3.361   2.781 126.630  0.00  0.00    +0.195 C 
ENDBRANCH  33  40
ENDBRANCH  31  33
ENDBRANCH  30  31
ENDBRANCH  28  30
ENDBRANCH  26  28
ENDBRANCH  24  26
ENDBRANCH  14  24
TORSDOF 11
ENDMDL
MODEL 3
REMARK VINA RESULT:      -9.4      2.025      3.701
REMARK  Name = NuBBE_89
REMARK  17 active torsions:
REMARK  status: ('A' for Active; 'I' for Inactive)
REMARK    1  A    between atoms: C_4  and  C_43
REMARK    2  A    between atoms: C_9  and  C_10
REMARK    3  A    between atoms: C_11  and  C_12
REMARK    4  A    between atoms: C_12  and  C_14
REMARK    5  A    between atoms: C_12  and  C_15
REMARK    6  A    between atoms: C_15  and  C_16
REMARK    7  A    between atoms: C_21  and  C_22
REMARK    8  A    between atoms: C_22  and  C_23
REMARK    9  A    between atoms: C_23  and  C_25
REMARK   10  A    between atoms: C_23  and  C_26
REMARK   11  A    between atoms: C_26  and  O_28
REMARK   12  A    between atoms: C_26  and  C_41
REMARK   13  A    between atoms: O_28  and  C_29
REMARK   14  A    between atoms: C_29  and  C_30
REMARK   15  A    between atoms: C_30  and  O_31
REMARK   16  A    between atoms: C_30  and  C_34
REMARK   17  A    between atoms: O_31  and  C_32
REMARK                            x       y       z     vdW  Elec       q    Type
REMARK                         _______ _______ _______ _____ _____    ______ ____
ROOT
ATOM      1  O   LIG A   1      -7.236   1.353 123.052  0.00  0.00    -0.245 OA
ATOM      2  C   LIG A   1      -6.856   0.392 123.647  0.00  0.00    +0.344 C 
ATOM      3  O   LIG A   1      -6.867  -0.851 123.127  0.00  0.00    -0.442 OA
ATOM      4  C   LIG A   1      -6.741  -1.785 124.186  0.00  0.00    +0.200 C 
ATOM      5  C   LIG A   1      -6.335  -0.964 125.345  0.00  0.00    +0.031 C 
ATOM      6  C   LIG A   1      -6.365  -1.705 126.586  0.00  0.00    +0.027 C 
ATOM      7  C   LIG A   1      -5.343  -1.932 127.433  0.00  0.00    +0.204 C 
ATOM      8  O   LIG A   1      -5.486  -2.631 128.635  0.00  0.00    -0.463 OA
ATOM      9  C   LIG A   1      -6.790  -2.868 129.102  0.00  0.00    +0.128 C 
ATOM     10  C   LIG A   1      -7.853  -2.752 128.288  0.00  0.00    +0.056 C 
ATOM     11  C   LIG A   1      -7.620  -2.407 126.902  0.00  0.00    +0.011 C 
ATOM     12  C   LIG A   1      -8.489  -2.695 125.911  0.00  0.00    +0.096 C 
ATOM     13 CL   LIG A   1     -10.040  -3.418 126.176  0.00  0.00    -0.079 Cl
ATOM     14  C   LIG A   1      -6.370   0.342 125.047  0.00  0.00    +0.110 C 
ATOM     15  C   LIG A   1      -5.664  -2.781 123.785  0.00  0.00    +0.070 C 
ATOM     16  C   LIG A   1      -8.125  -2.416 124.475  0.00  0.00    +0.222 C 
ATOM     17  O   LIG A   1      -8.917  -2.667 123.564  0.00  0.00    -0.286 OA
ENDROOT
BRANCH   9  18
ATOM     18  C   LIG A   1      -6.878  -3.283 130.488  0.00  0.00    +0.042 C 
ATOM     19  C   LIG A   1      -6.070  -2.866 131.482  0.00  0.00    -0.020 C 
BRANCH  19  20
ATOM     20  C   LIG A   1      -6.255  -3.245 132.929  0.00  0.00    +0.008 C 
ATOM     21  C   LIG A   1      -7.743  -3.254 133.279  0.00  0.00    +0.012 C 
BRANCH  20  22
ATOM     22  C   LIG A   1      -5.629  -4.618 133.260  0.00  0.00    +0.004 C 
ATOM     23  C   LIG A   1      -6.366  -5.398 134.343  0.00  0.00    +0.004 C 
ENDBRANCH  20  22
ENDBRANCH  19  20
ENDBRANCH   9  18
BRANCH  14  24
ATOM     24  C   LIG A   1      -6.241   1.522 125.943  0.00  0.00    +0.177 C 
ATOM     25  O   LIG A   1      -5.146   2.074 126.048  0.00  0.00    -0.291 OA
BRANCH  24  26
ATOM     26  C   LIG A   1      -7.433   1.987 126.797  0.00  0.00    +0.098 C 
ATOM     27  C   LIG A   1      -8.693   1.224 126.345  0.00  0.00    +0.020 C 
BRANCH  26  28
ATOM     28  C   LIG A   1      -7.675   3.515 126.834  0.00  0.00    +0.184 C 
ATOM     29  C   LIG A   1      -8.008   4.114 125.464  0.00  0.00    +0.052 C 
BRANCH  28  30
ATOM     30  O   LIG A   1      -8.575   4.006 127.859  0.00  0.00    -0.459 OA
BRANCH  30  31
ATOM     31  C   LIG A   1      -8.046   4.469 129.031  0.00  0.00    +0.341 C 
ATOM     32  O   LIG A   1      -6.961   5.026 129.101  0.00  0.00    -0.247 OA
BRANCH  31  33
ATOM     33  C   LIG A   1      -8.951   4.054 130.206  0.00  0.00    +0.256 C 
BRANCH  33  34
ATOM     34  C   LIG A   1      -8.741   2.627 130.687  0.00  0.00    -0.008 A 
ATOM     35  C   LIG A   1      -9.653   2.020 131.568  0.00  0.00    +0.007 A 
ATOM     36  C   LIG A   1      -9.551   0.656 131.866  0.00  0.00    +0.000 A 
ATOM     37  C   LIG A   1      -8.552  -0.117 131.275  0.00  0.00    +0.000 A 
ATOM     38  C   LIG A   1      -7.611   0.486 130.447  0.00  0.00    +0.000 A 
ATOM     39  C   LIG A   1      -7.683   1.854 130.187  0.00  0.00    +0.007 A 
ENDBRANCH  33  34
BRANCH  33  40
ATOM     40  O   LIG A   1     -10.302   4.284 129.757  0.00  0.00    -0.364 OA
ATOM     41  C   LIG A   1     -10.967   5.354 130.414  0.00  0.00    +0.195 C 
ENDBRANCH  33  40
ENDBRANCH  31  33
ENDBRANCH  30  31
ENDBRANCH  28  30
ENDBRANCH  26  28
ENDBRANCH  24  26
ENDBRANCH  14  24
TORSDOF 11
ENDMDL
MODEL 4
REMARK VINA RESULT:      -9.3      3.577      8.003
REMARK  Name = NuBBE_89
REMARK  17 active torsions:
REMARK  status: ('A' for Active; 'I' for Inactive)
REMARK    1  A    between atoms: C_4  and  C_43
REMARK    2  A    between atoms: C_9  and  C_10
REMARK    3  A    between atoms: C_11  and  C_12
REMARK    4  A    between atoms: C_12  and  C_14
REMARK    5  A    between atoms: C_12  and  C_15
REMARK    6  A    between atoms: C_15  and  C_16
REMARK    7  A    between atoms: C_21  and  C_22
REMARK    8  A    between atoms: C_22  and  C_23
REMARK    9  A    between atoms: C_23  and  C_25
REMARK   10  A    between atoms: C_23  and  C_26
REMARK   11  A    between atoms: C_26  and  O_28
REMARK   12  A    between atoms: C_26  and  C_41
REMARK   13  A    between atoms: O_28  and  C_29
REMARK   14  A    between atoms: C_29  and  C_30
REMARK   15  A    between atoms: C_30  and  O_31
REMARK   16  A    between atoms: C_30  and  C_34
REMARK   17  A    between atoms: O_31  and  C_32
REMARK                            x       y       z     vdW  Elec       q    Type
REMARK                         _______ _______ _______ _____ _____    ______ ____
ROOT
ATOM      1  O   LIG A   1      -7.719   5.526 130.785  0.00  0.00    -0.245 OA
ATOM      2  C   LIG A   1      -6.905   4.745 130.400  0.00  0.00    +0.344 C 
ATOM      3  O   LIG A   1      -5.621   5.075 130.160  0.00  0.00    -0.442 OA
ATOM      4  C   LIG A   1      -5.037   4.061 129.358  0.00  0.00    +0.200 C 
ATOM      5  C   LIG A   1      -6.008   2.950 129.416  0.00  0.00    +0.031 C 
ATOM      6  C   LIG A   1      -5.698   1.893 128.480  0.00  0.00    +0.027 C 
ATOM      7  C   LIG A   1      -5.447   0.599 128.755  0.00  0.00    +0.204 C 
ATOM      8  O   LIG A   1      -5.195  -0.358 127.768  0.00  0.00    -0.463 OA
ATOM      9  C   LIG A   1      -5.481  -0.014 126.436  0.00  0.00    +0.128 C 
ATOM     10  C   LIG A   1      -5.651   1.268 126.069  0.00  0.00    +0.056 C 
ATOM     11  C   LIG A   1      -5.501   2.294 127.078  0.00  0.00    +0.011 C 
ATOM     12  C   LIG A   1      -5.196   3.577 126.790  0.00  0.00    +0.096 C 
ATOM     13 CL   LIG A   1      -5.049   4.187 125.175  0.00  0.00    -0.079 Cl
ATOM     14  C   LIG A   1      -7.127   3.320 130.055  0.00  0.00    +0.110 C 
ATOM     15  C   LIG A   1      -3.706   3.691 129.994  0.00  0.00    +0.070 C 
ATOM     16  C   LIG A   1      -4.933   4.564 127.898  0.00  0.00    +0.222 C 
ATOM     17  O   LIG A   1      -4.663   5.740 127.643  0.00  0.00    -0.286 OA
ENDROOT
BRANCH   9  18
ATOM     18  C   LIG A   1      -5.527  -1.129 125.511  0.00  0.00    +0.042 C 
ATOM     19  C   LIG A   1      -6.333  -2.203 125.621  0.00  0.00    -0.020 C 
BRANCH  19  20
ATOM     20  C   LIG A   1      -6.421  -3.295 124.586  0.00  0.00    +0.008 C 
ATOM     21  C   LIG A   1      -7.797  -3.272 123.919  0.00  0.00    +0.012 C 
BRANCH  20  22
ATOM     22  C   LIG A   1      -5.315  -3.177 123.514  0.00  0.00    +0.004 C 
ATOM     23  C   LIG A   1      -4.252  -4.268 123.587  0.00  0.00    +0.004 C 
ENDBRANCH  20  22
ENDBRANCH  19  20
ENDBRANCH   9  18
BRANCH  14  24
ATOM     24  C   LIG A   1      -8.429   2.611 130.173  0.00  0.00    +0.177 C 
ATOM     25  O   LIG A   1      -9.316   2.855 129.356  0.00  0.00    -0.291 OA
BRANCH  24  26
ATOM     26  C   LIG A   1      -8.694   1.657 131.350  0.00  0.00    +0.098 C 
ATOM     27  C   LIG A   1     -10.178   1.767 131.751  0.00  0.00    +0.020 C 
BRANCH  26  28
ATOM     28  C   LIG A   1      -7.760   1.822 132.573  0.00  0.00    +0.184 C 
ATOM     29  C   LIG A   1      -8.212   2.917 133.543  0.00  0.00    +0.052 C 
BRANCH  28  30
ATOM     30  O   LIG A   1      -7.391   0.611 133.277  0.00  0.00    -0.459 OA
BRANCH  30  31
ATOM     31  C   LIG A   1      -6.359  -0.143 132.791  0.00  0.00    +0.341 C 
ATOM     32  O   LIG A   1      -5.364   0.340 132.271  0.00  0.00    -0.247 OA
BRANCH  31  33
ATOM     33  C   LIG A   1      -6.721  -1.637 132.883  0.00  0.00    +0.256 C 
BRANCH  33  34
ATOM     34  C   LIG A   1      -7.013  -2.296 131.545  0.00  0.00    -0.008 A 
ATOM     35  C   LIG A   1      -7.803  -1.650 130.577  0.00  0.00    +0.007 A 
ATOM     36  C   LIG A   1      -7.920  -2.181 129.288  0.00  0.00    +0.000 A 
ATOM     37  C   LIG A   1      -7.239  -3.349 128.947  0.00  0.00    +0.000 A 
ATOM     38  C   LIG A   1      -6.501  -4.026 129.912  0.00  0.00    +0.000 A 
ATOM     39  C   LIG A   1      -6.421  -3.523 131.211  0.00  0.00    +0.007 A 
ENDBRANCH  33  34
BRANCH  33  40
ATOM     40  O   LIG A   1      -7.848  -1.709 133.782  0.00  0.00    -0.364 OA
ATOM     41  C   LIG A   1      -8.143  -3.017 134.251  0.00  0.00    +0.195 C 
ENDBRANCH  33  40
ENDBRANCH  31  33
ENDBRANCH  30  31
ENDBRANCH  28  30
ENDBRANCH  26  28
ENDBRANCH  24  26
ENDBRANCH  14  24
TORSDOF 11
ENDMDL
MODEL 5
REMARK VINA RESULT:      -9.3      2.933      5.721
REMARK  Name = NuBBE_89
REMARK  17 active torsions:
REMARK  status: ('A' for Active; 'I' for Inactive)
REMARK    1  A    between atoms: C_4  and  C_43
REMARK    2  A    between atoms: C_9  and  C_10
REMARK    3  A    between atoms: C_11  and  C_12
REMARK    4  A    between atoms: C_12  and  C_14
REMARK    5  A    between atoms: C_12  and  C_15
REMARK    6  A    between atoms: C_15  and  C_16
REMARK    7  A    between atoms: C_21  and  C_22
REMARK    8  A    between atoms: C_22  and  C_23
REMARK    9  A    between atoms: C_23  and  C_25
REMARK   10  A    between atoms: C_23  and  C_26
REMARK   11  A    between atoms: C_26  and  O_28
REMARK   12  A    between atoms: C_26  and  C_41
REMARK   13  A    between atoms: O_28  and  C_29
REMARK   14  A    between atoms: C_29  and  C_30
REMARK   15  A    between atoms: C_30  and  O_31
REMARK   16  A    between atoms: C_30  and  C_34
REMARK   17  A    between atoms: O_31  and  C_32
REMARK                            x       y       z     vdW  Elec       q    Type
REMARK                         _______ _______ _______ _____ _____    ______ ____
ROOT
ATOM      1  O   LIG A   1      -5.973   1.543 134.199  0.00  0.00    -0.245 OA
ATOM      2  C   LIG A   1      -6.393   0.653 133.528  0.00  0.00    +0.344 C 
ATOM      3  O   LIG A   1      -6.352  -0.640 133.905  0.00  0.00    -0.442 OA
ATOM      4  C   LIG A   1      -6.550  -1.452 132.760  0.00  0.00    +0.200 C 
ATOM      5  C   LIG A   1      -7.029  -0.510 131.727  0.00  0.00    +0.031 C 
ATOM      6  C   LIG A   1      -7.083  -1.108 130.413  0.00  0.00    +0.027 C 
ATOM      7  C   LIG A   1      -8.160  -1.245 129.616  0.00  0.00    +0.204 C 
ATOM      8  O   LIG A   1      -8.099  -1.806 128.337  0.00  0.00    -0.463 OA
ATOM      9  C   LIG A   1      -6.829  -1.984 127.761  0.00  0.00    +0.128 C 
ATOM     10  C   LIG A   1      -5.714  -1.955 128.511  0.00  0.00    +0.056 C 
ATOM     11  C   LIG A   1      -5.854  -1.765 129.939  0.00  0.00    +0.011 C 
ATOM     12  C   LIG A   1      -4.923  -2.158 130.833  0.00  0.00    +0.096 C 
ATOM     13 CL   LIG A   1      -3.395  -2.841 130.388  0.00  0.00    -0.079 Cl
ATOM     14  C   LIG A   1      -6.971   0.756 132.165  0.00  0.00    +0.110 C 
ATOM     15  C   LIG A   1      -7.602  -2.490 133.118  0.00  0.00    +0.070 C 
ATOM     16  C   LIG A   1      -5.191  -2.041 132.312  0.00  0.00    +0.222 C 
ATOM     17  O   LIG A   1      -4.341  -2.388 133.135  0.00  0.00    -0.286 OA
ENDROOT
BRANCH   9  18
ATOM     18  C   LIG A   1      -6.834  -2.243 126.335  0.00  0.00    +0.042 C 
ATOM     19  C   LIG A   1      -5.747  -2.519 125.588  0.00  0.00    -0.020 C 
BRANCH  19  20
ATOM     20  C   LIG A   1      -5.805  -2.880 124.125  0.00  0.00    +0.008 C 
ATOM     21  C   LIG A   1      -6.265  -1.672 123.308  0.00  0.00    +0.012 C 
BRANCH  20  22
ATOM     22  C   LIG A   1      -4.446  -3.387 123.593  0.00  0.00    +0.004 C 
ATOM     23  C   LIG A   1      -4.327  -4.906 123.524  0.00  0.00    +0.004 C 
ENDBRANCH  20  22
ENDBRANCH  19  20
ENDBRANCH   9  18
BRANCH  14  24
ATOM     24  C   LIG A   1      -7.155   2.027 131.415  0.00  0.00    +0.177 C 
ATOM     25  O   LIG A   1      -6.166   2.590 130.945  0.00  0.00    -0.291 OA
BRANCH  24  26
ATOM     26  C   LIG A   1      -8.546   2.676 131.308  0.00  0.00    +0.098 C 
ATOM     27  C   LIG A   1      -9.600   1.672 131.813  0.00  0.00    +0.020 C 
BRANCH  26  28
ATOM     28  C   LIG A   1      -8.917   3.240 129.916  0.00  0.00    +0.184 C 
ATOM     29  C   LIG A   1      -8.847   2.198 128.796  0.00  0.00    +0.052 C 
BRANCH  28  30
ATOM     30  O   LIG A   1     -10.134   4.022 129.836  0.00  0.00    -0.459 OA
BRANCH  30  31
ATOM     31  C   LIG A   1     -10.037   5.384 129.761  0.00  0.00    +0.341 C 
ATOM     32  O   LIG A   1      -9.126   5.959 129.183  0.00  0.00    -0.247 OA
BRANCH  31  33
ATOM     33  C   LIG A   1     -11.144   6.029 130.614  0.00  0.00    +0.256 C 
BRANCH  33  34
ATOM     34  C   LIG A   1     -12.088   6.934 129.839  0.00  0.00    -0.008 A 
ATOM     35  C   LIG A   1     -12.111   8.321 130.068  0.00  0.00    +0.007 A 
ATOM     36  C   LIG A   1     -12.850   9.166 129.232  0.00  0.00    +0.000 A 
ATOM     37  C   LIG A   1     -13.559   8.638 128.153  0.00  0.00    +0.000 A 
ATOM     38  C   LIG A   1     -13.589   7.262 127.953  0.00  0.00    +0.000 A 
ATOM     39  C   LIG A   1     -12.890   6.415 128.813  0.00  0.00    +0.007 A 
ENDBRANCH  33  34
BRANCH  33  40
ATOM     40  O   LIG A   1     -10.460   6.734 131.671  0.00  0.00    -0.364 OA
ATOM     41  C   LIG A   1      -9.850   5.893 132.640  0.00  0.00    +0.195 C 
ENDBRANCH  33  40
ENDBRANCH  31  33
ENDBRANCH  30  31
ENDBRANCH  28  30
ENDBRANCH  26  28
ENDBRANCH  24  26
ENDBRANCH  14  24
TORSDOF 11
ENDMDL
MODEL 6
REMARK VINA RESULT:      -9.3      4.192      9.106
REMARK  Name = NuBBE_89
REMARK  17 active torsions:
REMARK  status: ('A' for Active; 'I' for Inactive)
REMARK    1  A    between atoms: C_4  and  C_43
REMARK    2  A    between atoms: C_9  and  C_10
REMARK    3  A    between atoms: C_11  and  C_12
REMARK    4  A    between atoms: C_12  and  C_14
REMARK    5  A    between atoms: C_12  and  C_15
REMARK    6  A    between atoms: C_15  and  C_16
REMARK    7  A    between atoms: C_21  and  C_22
REMARK    8  A    between atoms: C_22  and  C_23
REMARK    9  A    between atoms: C_23  and  C_25
REMARK   10  A    between atoms: C_23  and  C_26
REMARK   11  A    between atoms: C_26  and  O_28
REMARK   12  A    between atoms: C_26  and  C_41
REMARK   13  A    between atoms: O_28  and  C_29
REMARK   14  A    between atoms: C_29  and  C_30
REMARK   15  A    between atoms: C_30  and  O_31
REMARK   16  A    between atoms: C_30  and  C_34
REMARK   17  A    between atoms: O_31  and  C_32
REMARK                            x       y       z     vdW  Elec       q    Type
REMARK                         _______ _______ _______ _____ _____    ______ ____
ROOT
ATOM      1  O   LIG A   1      -4.057   1.544 130.657  0.00  0.00    -0.245 OA
ATOM      2  C   LIG A   1      -4.748   2.368 131.171  0.00  0.00    +0.344 C 
ATOM      3  O   LIG A   1      -5.218   2.258 132.428  0.00  0.00    -0.442 OA
ATOM      4  C   LIG A   1      -6.295   3.166 132.589  0.00  0.00    +0.200 C 
ATOM      5  C   LIG A   1      -6.207   4.045 131.405  0.00  0.00    +0.031 C 
ATOM      6  C   LIG A   1      -7.357   4.910 131.269  0.00  0.00    +0.027 C 
ATOM      7  C   LIG A   1      -7.375   6.256 131.246  0.00  0.00    +0.204 C 
ATOM      8  O   LIG A   1      -8.543   7.003 131.069  0.00  0.00    -0.463 OA
ATOM      9  C   LIG A   1      -9.694   6.323 130.633  0.00  0.00    +0.128 C 
ATOM     10  C   LIG A   1      -9.785   4.985 130.714  0.00  0.00    +0.056 C 
ATOM     11  C   LIG A   1      -8.676   4.257 131.294  0.00  0.00    +0.011 C 
ATOM     12  C   LIG A   1      -8.801   3.031 131.843  0.00  0.00    +0.096 C 
ATOM     13 CL   LIG A   1     -10.276   2.122 131.831  0.00  0.00    -0.079 Cl
ATOM     14  C   LIG A   1      -5.273   3.608 130.549  0.00  0.00    +0.110 C 
ATOM     15  C   LIG A   1      -6.057   3.927 133.884  0.00  0.00    +0.070 C 
ATOM     16  C   LIG A   1      -7.630   2.385 132.539  0.00  0.00    +0.222 C 
ATOM     17  O   LIG A   1      -7.734   1.261 133.034  0.00  0.00    -0.286 OA
ENDROOT
BRANCH   9  18
ATOM     18  C   LIG A   1     -10.761   7.175 130.146  0.00  0.00    +0.042 C 
ATOM     19  C   LIG A   1     -11.910   6.746 129.588  0.00  0.00    -0.020 C 
BRANCH  19  20
ATOM     20  C   LIG A   1     -13.039   7.660 129.184  0.00  0.00    +0.008 C 
ATOM     21  C   LIG A   1     -12.781   9.071 129.712  0.00  0.00    +0.012 C 
BRANCH  20  22
ATOM     22  C   LIG A   1     -13.240   7.700 127.653  0.00  0.00    +0.004 C 
ATOM     23  C   LIG A   1     -12.152   6.986 126.859  0.00  0.00    +0.004 C 
ENDBRANCH  20  22
ENDBRANCH  19  20
ENDBRANCH   9  18
BRANCH  14  24
ATOM     24  C   LIG A   1      -4.981   4.050 129.159  0.00  0.00    +0.177 C 
ATOM     25  O   LIG A   1      -4.587   5.200 128.969  0.00  0.00    -0.291 OA
BRANCH  24  26
ATOM     26  C   LIG A   1      -5.256   3.114 127.969  0.00  0.00    +0.098 C 
ATOM     27  C   LIG A   1      -4.146   3.311 126.919  0.00  0.00    +0.020 C 
BRANCH  26  28
ATOM     28  C   LIG A   1      -6.665   3.227 127.338  0.00  0.00    +0.184 C 
ATOM     29  C   LIG A   1      -7.790   2.782 128.276  0.00  0.00    +0.052 C 
BRANCH  28  30
ATOM     30  O   LIG A   1      -6.985   4.480 126.684  0.00  0.00    -0.459 OA
BRANCH  30  31
ATOM     31  C   LIG A   1      -7.878   4.472 125.649  0.00  0.00    +0.341 C 
ATOM     32  O   LIG A   1      -8.836   5.229 125.586  0.00  0.00    -0.247 OA
BRANCH  31  33
ATOM     33  C   LIG A   1      -7.560   3.301 124.701  0.00  0.00    +0.256 C 
BRANCH  33  34
ATOM     34  C   LIG A   1      -6.860   3.707 123.415  0.00  0.00    -0.008 A 
ATOM     35  C   LIG A   1      -5.578   4.286 123.440  0.00  0.00    +0.007 A 
ATOM     36  C   LIG A   1      -4.869   4.493 122.252  0.00  0.00    +0.000 A 
ATOM     37  C   LIG A   1      -5.423   4.111 121.031  0.00  0.00    +0.000 A 
ATOM     38  C   LIG A   1      -6.713   3.591 120.989  0.00  0.00    +0.000 A 
ATOM     39  C   LIG A   1      -7.439   3.427 122.168  0.00  0.00    +0.007 A 
ENDBRANCH  33  34
BRANCH  33  40
ATOM     40  O   LIG A   1      -8.823   2.650 124.450  0.00  0.00    -0.364 OA
ATOM     41  C   LIG A   1      -8.885   1.298 124.885  0.00  0.00    +0.195 C 
ENDBRANCH  33  40
ENDBRANCH  31  33
ENDBRANCH  30  31
ENDBRANCH  28  30
ENDBRANCH  26  28
ENDBRANCH  24  26
ENDBRANCH  14  24
TORSDOF 11
ENDMDL
MODEL 7
REMARK VINA RESULT:      -9.1      3.909      9.642
REMARK  Name = NuBBE_89
REMARK  17 active torsions:
REMARK  status: ('A' for Active; 'I' for Inactive)
REMARK    1  A    between atoms: C_4  and  C_43
REMARK    2  A    between atoms: C_9  and  C_10
REMARK    3  A    between atoms: C_11  and  C_12
REMARK    4  A    between atoms: C_12  and  C_14
REMARK    5  A    between atoms: C_12  and  C_15
REMARK    6  A    between atoms: C_15  and  C_16
REMARK    7  A    between atoms: C_21  and  C_22
REMARK    8  A    between atoms: C_22  and  C_23
REMARK    9  A    between atoms: C_23  and  C_25
REMARK   10  A    between atoms: C_23  and  C_26
REMARK   11  A    between atoms: C_26  and  O_28
REMARK   12  A    between atoms: C_26  and  C_41
REMARK   13  A    between atoms: O_28  and  C_29
REMARK   14  A    between atoms: C_29  and  C_30
REMARK   15  A    between atoms: C_30  and  O_31
REMARK   16  A    between atoms: C_30  and  C_34
REMARK   17  A    between atoms: O_31  and  C_32
REMARK                            x       y       z     vdW  Elec       q    Type
REMARK                         _______ _______ _______ _____ _____    ______ ____
ROOT
ATOM      1  O   LIG A   1      -1.947   3.424 132.902  0.00  0.00    -0.245 OA
ATOM      2  C   LIG A   1      -2.648   4.385 132.831  0.00  0.00    +0.344 C 
ATOM      3  O   LIG A   1      -2.781   5.279 133.830  0.00  0.00    -0.442 OA
ATOM      4  C   LIG A   1      -3.949   6.048 133.597  0.00  0.00    +0.200 C 
ATOM      5  C   LIG A   1      -4.316   5.734 132.201  0.00  0.00    +0.031 C 
ATOM      6  C   LIG A   1      -5.614   6.255 131.838  0.00  0.00    +0.027 C 
ATOM      7  C   LIG A   1      -5.904   7.125 130.852  0.00  0.00    +0.204 C 
ATOM      8  O   LIG A   1      -7.206   7.538 130.555  0.00  0.00    -0.463 OA
ATOM      9  C   LIG A   1      -8.268   6.816 131.127  0.00  0.00    +0.128 C 
ATOM     10  C   LIG A   1      -8.069   6.000 132.176  0.00  0.00    +0.056 C 
ATOM     11  C   LIG A   1      -6.734   5.904 132.726  0.00  0.00    +0.011 C 
ATOM     12  C   LIG A   1      -6.482   5.514 133.993  0.00  0.00    +0.096 C 
ATOM     13 CL   LIG A   1      -7.707   4.975 135.092  0.00  0.00    -0.079 Cl
ATOM     14  C   LIG A   1      -3.539   4.759 131.706  0.00  0.00    +0.110 C 
ATOM     15  C   LIG A   1      -3.571   7.510 133.773  0.00  0.00    +0.070 C 
ATOM     16  C   LIG A   1      -5.076   5.557 134.537  0.00  0.00    +0.222 C 
ATOM     17  O   LIG A   1      -4.836   5.193 135.690  0.00  0.00    -0.286 OA
ENDROOT
BRANCH   9  18
ATOM     18  C   LIG A   1      -9.567   7.062 130.532  0.00  0.00    +0.042 C 
ATOM     19  C   LIG A   1     -10.721   6.479 130.909  0.00  0.00    -0.020 C 
BRANCH  19  20
ATOM     20  C   LIG A   1     -12.068   6.833 130.330  0.00  0.00    +0.008 C 
ATOM     21  C   LIG A   1     -12.927   7.521 131.392  0.00  0.00    +0.012 C 
BRANCH  20  22
ATOM     22  C   LIG A   1     -11.950   7.737 129.084  0.00  0.00    +0.004 C 
ATOM     23  C   LIG A   1     -12.608   9.104 129.237  0.00  0.00    +0.004 C 
ENDBRANCH  20  22
ENDBRANCH  19  20
ENDBRANCH   9  18
BRANCH  14  24
ATOM     24  C   LIG A   1      -3.674   3.993 130.439  0.00  0.00    +0.177 C 
ATOM     25  O   LIG A   1      -2.847   4.170 129.544  0.00  0.00    -0.291 OA
BRANCH  24  26
ATOM     26  C   LIG A   1      -4.878   3.063 130.213  0.00  0.00    +0.098 C 
ATOM     27  C   LIG A   1      -5.171   2.307 131.524  0.00  0.00    +0.020 C 
BRANCH  26  28
ATOM     28  C   LIG A   1      -4.763   2.095 129.011  0.00  0.00    +0.184 C 
ATOM     29  C   LIG A   1      -4.705   0.620 129.418  0.00  0.00    +0.052 C 
BRANCH  28  30
ATOM     30  O   LIG A   1      -5.689   2.306 127.916  0.00  0.00    -0.459 OA
BRANCH  30  31
ATOM     31  C   LIG A   1      -6.695   3.218 128.073  0.00  0.00    +0.341 C 
ATOM     32  O   LIG A   1      -6.496   4.412 128.239  0.00  0.00    -0.247 OA
BRANCH  31  33
ATOM     33  C   LIG A   1      -8.049   2.488 128.145  0.00  0.00    +0.256 C 
BRANCH  33  34
ATOM     34  C   LIG A   1      -8.537   2.207 129.556  0.00  0.00    -0.008 A 
ATOM     35  C   LIG A   1      -9.342   3.134 130.241  0.00  0.00    +0.007 A 
ATOM     36  C   LIG A   1      -9.932   2.795 131.464  0.00  0.00    +0.000 A 
ATOM     37  C   LIG A   1      -9.739   1.525 132.006  0.00  0.00    +0.000 A 
ATOM     38  C   LIG A   1      -8.898   0.620 131.365  0.00  0.00    +0.000 A 
ATOM     39  C   LIG A   1      -8.273   0.974 130.170  0.00  0.00    +0.007 A 
ENDBRANCH  33  34
BRANCH  33  40
ATOM     40  O   LIG A   1      -7.879   1.278 127.377  0.00  0.00    -0.364 OA
ATOM     41  C   LIG A   1      -8.377   1.350 126.048  0.00  0.00    +0.195 C 
ENDBRANCH  33  40
ENDBRANCH  31  33
ENDBRANCH  30  31
ENDBRANCH  28  30
ENDBRANCH  26  28
ENDBRANCH  24  26
ENDBRANCH  14  24
TORSDOF 11
ENDMDL
MODEL 8
REMARK VINA RESULT:      -8.9      2.913      7.402
REMARK  Name = NuBBE_89
REMARK  17 active torsions:
REMARK  status: ('A' for Active; 'I' for Inactive)
REMARK    1  A    between atoms: C_4  and  C_43
REMARK    2  A    between atoms: C_9  and  C_10
REMARK    3  A    between atoms: C_11  and  C_12
REMARK    4  A    between atoms: C_12  and  C_14
REMARK    5  A    between atoms: C_12  and  C_15
REMARK    6  A    between atoms: C_15  and  C_16
REMARK    7  A    between atoms: C_21  and  C_22
REMARK    8  A    between atoms: C_22  and  C_23
REMARK    9  A    between atoms: C_23  and  C_25
REMARK   10  A    between atoms: C_23  and  C_26
REMARK   11  A    between atoms: C_26  and  O_28
REMARK   12  A    between atoms: C_26  and  C_41
REMARK   13  A    between atoms: O_28  and  C_29
REMARK   14  A    between atoms: C_29  and  C_30
REMARK   15  A    between atoms: C_30  and  O_31
REMARK   16  A    between atoms: C_30  and  C_34
REMARK   17  A    between atoms: O_31  and  C_32
REMARK                            x       y       z     vdW  Elec       q    Type
REMARK                         _______ _______ _______ _____ _____    ______ ____
ROOT
ATOM      1  O   LIG A   1      -6.004   7.674 130.355  0.00  0.00    -0.245 OA
ATOM      2  C   LIG A   1      -5.294   6.754 130.616  0.00  0.00    +0.344 C 
ATOM      3  O   LIG A   1      -3.953   6.796 130.488  0.00  0.00    -0.442 OA
ATOM      4  C   LIG A   1      -3.457   5.468 130.487  0.00  0.00    +0.200 C 
ATOM      5  C   LIG A   1      -4.601   4.654 130.947  0.00  0.00    +0.031 C 
ATOM      6  C   LIG A   1      -4.364   3.235 130.806  0.00  0.00    +0.027 C 
ATOM      7  C   LIG A   1      -4.368   2.302 131.777  0.00  0.00    +0.204 C 
ATOM      8  O   LIG A   1      -4.165   0.941 131.529  0.00  0.00    -0.463 OA
ATOM      9  C   LIG A   1      -4.230   0.502 130.196  0.00  0.00    +0.128 C 
ATOM     10  C   LIG A   1      -4.137   1.368 129.173  0.00  0.00    +0.056 C 
ATOM     11  C   LIG A   1      -3.938   2.769 129.477  0.00  0.00    +0.011 C 
ATOM     12  C   LIG A   1      -3.389   3.644 128.609  0.00  0.00    +0.096 C 
ATOM     13 CL   LIG A   1      -2.951   3.236 126.984  0.00  0.00    -0.079 Cl
ATOM     14  C   LIG A   1      -5.709   5.400 131.058  0.00  0.00    +0.110 C 
ATOM     15  C   LIG A   1      -2.292   5.419 131.464  0.00  0.00    +0.070 C 
ATOM     16  C   LIG A   1      -3.098   5.060 129.038  0.00  0.00    +0.222 C 
ATOM     17  O   LIG A   1      -2.606   5.868 128.248  0.00  0.00    -0.286 OA
ENDROOT
BRANCH   9  18
ATOM     18  C   LIG A   1      -4.352  -0.933 130.028  0.00  0.00    +0.042 C 
ATOM     19  C   LIG A   1      -5.433  -1.573 129.542  0.00  0.00    -0.020 C 
BRANCH  19  20
ATOM     20  C   LIG A   1      -5.486  -3.059 129.290  0.00  0.00    +0.008 C 
ATOM     21  C   LIG A   1      -4.067  -3.625 129.217  0.00  0.00    +0.012 C 
BRANCH  20  22
ATOM     22  C   LIG A   1      -6.296  -3.807 130.372  0.00  0.00    +0.004 C 
ATOM     23  C   LIG A   1      -5.454  -4.692 131.285  0.00  0.00    +0.004 C 
ENDBRANCH  20  22
ENDBRANCH  19  20
ENDBRANCH   9  18
BRANCH  14  24
ATOM     24  C   LIG A   1      -7.116   4.977 131.286  0.00  0.00    +0.177 C 
ATOM     25  O   LIG A   1      -7.457   4.623 132.415  0.00  0.00    -0.291 OA
BRANCH  24  26
ATOM     26  C   LIG A   1      -8.107   4.895 130.112  0.00  0.00    +0.098 C 
ATOM     27  C   LIG A   1      -9.117   6.053 130.235  0.00  0.00    +0.020 C 
BRANCH  26  28
ATOM     28  C   LIG A   1      -8.821   3.534 129.930  0.00  0.00    +0.184 C 
ATOM     29  C   LIG A   1     -10.229   3.498 130.530  0.00  0.00    +0.052 C 
BRANCH  28  30
ATOM     30  O   LIG A   1      -8.798   2.961 128.599  0.00  0.00    -0.459 OA
BRANCH  30  31
ATOM     31  C   LIG A   1      -8.384   1.667 128.447  0.00  0.00    +0.341 C 
ATOM     32  O   LIG A   1      -7.829   1.034 129.333  0.00  0.00    -0.247 OA
BRANCH  31  33
ATOM     33  C   LIG A   1      -8.601   1.222 126.989  0.00  0.00    +0.256 C 
BRANCH  33  34
ATOM     34  C   LIG A   1      -7.571   0.231 126.474  0.00  0.00    -0.008 A 
ATOM     35  C   LIG A   1      -6.238   0.620 126.256  0.00  0.00    +0.007 A 
ATOM     36  C   LIG A   1      -5.260  -0.334 125.954  0.00  0.00    +0.000 A 
ATOM     37  C   LIG A   1      -5.598  -1.685 125.883  0.00  0.00    +0.000 A 
ATOM     38  C   LIG A   1      -6.925  -2.075 126.041  0.00  0.00    +0.000 A 
ATOM     39  C   LIG A   1      -7.908  -1.119 126.296  0.00  0.00    +0.007 A 
ENDBRANCH  33  34
BRANCH  33  40
ATOM     40  O   LIG A   1      -8.623   2.437 126.211  0.00  0.00    -0.364 OA
ATOM     41  C   LIG A   1      -9.099   2.277 124.882  0.00  0.00    +0.195 C 
ENDBRANCH  33  40
ENDBRANCH  31  33
ENDBRANCH  30  31
ENDBRANCH  28  30
ENDBRANCH  26  28
ENDBRANCH  24  26
ENDBRANCH  14  24
TORSDOF 11
ENDMDL
MODEL 9
REMARK VINA RESULT:      -8.8      3.223      6.070
REMARK  Name = NuBBE_89
REMARK  17 active torsions:
REMARK  status: ('A' for Active; 'I' for Inactive)
REMARK    1  A    between atoms: C_4  and  C_43
REMARK    2  A    between atoms: C_9  and  C_10
REMARK    3  A    between atoms: C_11  and  C_12
REMARK    4  A    between atoms: C_12  and  C_14
REMARK    5  A    between atoms: C_12  and  C_15
REMARK    6  A    between atoms: C_15  and  C_16
REMARK    7  A    between atoms: C_21  and  C_22
REMARK    8  A    between atoms: C_22  and  C_23
REMARK    9  A    between atoms: C_23  and  C_25
REMARK   10  A    between atoms: C_23  and  C_26
REMARK   11  A    between atoms: C_26  and  O_28
REMARK   12  A    between atoms: C_26  and  C_41
REMARK   13  A    between atoms: O_28  and  C_29
REMARK   14  A    between atoms: C_29  and  C_30
REMARK   15  A    between atoms: C_30  and  O_31
REMARK   16  A    between atoms: C_30  and  C_34
REMARK   17  A    between atoms: O_31  and  C_32
REMARK                            x       y       z     vdW  Elec       q    Type
REMARK                         _______ _______ _______ _____ _____    ______ ____
ROOT
ATOM      1  O   LIG A   1      -7.078   2.128 133.723  0.00  0.00    -0.245 OA
ATOM      2  C   LIG A   1      -7.196   1.151 133.050  0.00  0.00    +0.344 C 
ATOM      3  O   LIG A   1      -6.996  -0.096 133.518  0.00  0.00    -0.442 OA
ATOM      4  C   LIG A   1      -6.821  -0.971 132.416  0.00  0.00    +0.200 C 
ATOM      5  C   LIG A   1      -7.254  -0.173 131.250  0.00  0.00    +0.031 C 
ATOM      6  C   LIG A   1      -6.946  -0.816 129.993  0.00  0.00    +0.027 C 
ATOM      7  C   LIG A   1      -7.807  -1.182 129.024  0.00  0.00    +0.204 C 
ATOM      8  O   LIG A   1      -7.401  -1.765 127.821  0.00  0.00    -0.463 OA
ATOM      9  C   LIG A   1      -6.033  -1.720 127.500  0.00  0.00    +0.128 C 
ATOM     10  C   LIG A   1      -5.107  -1.454 128.437  0.00  0.00    +0.056 C 
ATOM     11  C   LIG A   1      -5.551  -1.245 129.799  0.00  0.00    +0.011 C 
ATOM     12  C   LIG A   1      -4.754  -1.423 130.873  0.00  0.00    +0.096 C 
ATOM     13 CL   LIG A   1      -3.071  -1.818 130.763  0.00  0.00    -0.079 Cl
ATOM     14  C   LIG A   1      -7.509   1.095 131.602  0.00  0.00    +0.110 C 
ATOM     15  C   LIG A   1      -7.718  -2.177 132.648  0.00  0.00    +0.070 C 
ATOM     16  C   LIG A   1      -5.318  -1.307 132.267  0.00  0.00    +0.222 C 
ATOM     17  O   LIG A   1      -4.594  -1.458 133.253  0.00  0.00    -0.286 OA
ENDROOT
BRANCH   9  18
ATOM     18  C   LIG A   1      -5.717  -2.025 126.119  0.00  0.00    +0.042 C 
ATOM     19  C   LIG A   1      -6.531  -2.658 125.252  0.00  0.00    -0.020 C 
BRANCH  19  20
ATOM     20  C   LIG A   1      -6.204  -2.869 123.796  0.00  0.00    +0.008 C 
ATOM     21  C   LIG A   1      -6.595  -1.631 122.989  0.00  0.00    +0.012 C 
BRANCH  20  22
ATOM     22  C   LIG A   1      -4.710  -3.193 123.571  0.00  0.00    +0.004 C 
ATOM     23  C   LIG A   1      -4.382  -4.682 123.584  0.00  0.00    +0.004 C 
ENDBRANCH  20  22
ENDBRANCH  19  20
ENDBRANCH   9  18
BRANCH  14  24
ATOM     24  C   LIG A   1      -7.771   2.281 130.744  0.00  0.00    +0.177 C 
ATOM     25  O   LIG A   1      -8.935   2.631 130.549  0.00  0.00    -0.291 OA
BRANCH  24  26
ATOM     26  C   LIG A   1      -6.611   3.004 130.037  0.00  0.00    +0.098 C 
ATOM     27  C   LIG A   1      -6.478   2.444 128.607  0.00  0.00    +0.020 C 
BRANCH  26  28
ATOM     28  C   LIG A   1      -5.256   2.989 130.784  0.00  0.00    +0.184 C 
ATOM     29  C   LIG A   1      -4.214   2.072 130.138  0.00  0.00    +0.052 C 
BRANCH  28  30
ATOM     30  O   LIG A   1      -4.688   4.278 131.125  0.00  0.00    -0.459 OA
BRANCH  30  31
ATOM     31  C   LIG A   1      -4.643   4.649 132.440  0.00  0.00    +0.341 C 
ATOM     32  O   LIG A   1      -4.317   3.888 133.339  0.00  0.00    -0.247 OA
BRANCH  31  33
ATOM     33  C   LIG A   1      -5.188   6.081 132.592  0.00  0.00    +0.256 C 
BRANCH  33  34
ATOM     34  C   LIG A   1      -6.671   6.224 132.293  0.00  0.00    -0.008 A 
ATOM     35  C   LIG A   1      -7.115   6.903 131.144  0.00  0.00    +0.007 A 
ATOM     36  C   LIG A   1      -8.466   6.878 130.783  0.00  0.00    +0.000 A 
ATOM     37  C   LIG A   1      -9.384   6.164 131.554  0.00  0.00    +0.000 A 
ATOM     38  C   LIG A   1      -8.965   5.537 132.723  0.00  0.00    +0.000 A 
ATOM     39  C   LIG A   1      -7.626   5.600 133.108  0.00  0.00    +0.007 A 
ENDBRANCH  33  34
BRANCH  33  40
ATOM     40  O   LIG A   1      -4.376   6.900 131.725  0.00  0.00    -0.364 OA
ATOM     41  C   LIG A   1      -3.146   7.323 132.298  0.00  0.00    +0.195 C 
ENDBRANCH  33  40
ENDBRANCH  31  33
ENDBRANCH  30  31
ENDBRANCH  28  30
ENDBRANCH  26  28
ENDBRANCH  24  26
ENDBRANCH  14  24
TORSDOF 11
ENDMDL
