MODEL 1
REMARK VINA RESULT:      -7.2      0.000      0.000
REMARK  Name = NuBBE_48
REMARK  22 active torsions:
REMARK  status: ('A' for Active; 'I' for Inactive)
REMARK    1  A    between atoms: C_1  and  C_2
REMARK    2  A    between atoms: C_4  and  O_6
REMARK    3  A    between atoms: O_6  and  C_7
REMARK    4  A    between atoms: C_7  and  C_8
REMARK    5  A    between atoms: C_8  and  C_9
REMARK    6  A    between atoms: C_9  and  C_10
REMARK    7  A    between atoms: C_12  and  O_14
REMARK    8  A    between atoms: O_14  and  C_15
REMARK    9  A    between atoms: C_15  and  C_16
REMARK   10  A    between atoms: C_20  and  O_22
REMARK   11  A    between atoms: O_22  and  C_23
REMARK   12  A    between atoms: C_23  and  C_24
REMARK   13  A    between atoms: C_27  and  O_29
REMARK   14  A    between atoms: O_29  and  C_30
REMARK   15  A    between atoms: C_30  and  C_31
REMARK   16  A    between atoms: C_34  and  O_36
REMARK   17  A    between atoms: O_36  and  C_37
REMARK   18  A    between atoms: C_41  and  C_42
REMARK   19  A    between atoms: C_41  and  C_43
REMARK   20  A    between atoms: C_43  and  C_44
REMARK   21  A    between atoms: C_45  and  C_46
REMARK   22  A    between atoms: C_45  and  C_48
REMARK                            x       y       z     vdW  Elec       q    Type
REMARK                         _______ _______ _______ _____ _____    ______ ____
ROOT
ATOM      1  C   LIG A   1      -5.401   1.018 127.288  0.00  0.00    +0.012 C 
ATOM      2  C   LIG A   1      -6.640   1.272 128.167  0.00  0.00    +0.037 C 
ATOM      3  C   LIG A   1      -7.602   2.259 127.485  0.00  0.00    +0.221 C 
ATOM      4  C   LIG A   1      -7.655   3.689 128.026  0.00  0.00    +0.234 C 
ATOM      5  C   LIG A   1      -7.733   3.846 129.579  0.00  0.00    +0.104 C 
ATOM      6  C   LIG A   1      -9.213   3.848 129.982  0.00  0.00    +0.013 C 
ATOM      7  C   LIG A   1      -9.787   5.232 129.747  0.00  0.00    +0.343 C 
ATOM      8  O   LIG A   1      -8.623   6.018 129.407  0.00  0.00    -0.297 OA
ATOM      9  C   LIG A   1      -7.496   5.342 130.003  0.00  0.00    +0.328 C 
ATOM     10  C   LIG A   1      -9.808   2.941 130.775  0.00  0.00    +0.010 C 
ATOM     11  C   LIG A   1      -9.050   2.045 131.686  0.00  0.00    +0.141 C 
ATOM     12  C   LIG A   1      -7.592   2.523 131.790  0.00  0.00    +0.041 C 
ATOM     13  C   LIG A   1      -6.910   2.789 130.409  0.00  0.00    +0.018 C 
ATOM     14  C   LIG A   1      -6.359   1.439 129.716  0.00  0.00    -0.018 C 
ATOM     15  C   LIG A   1      -6.985   0.126 130.323  0.00  0.00    +0.012 C 
ENDROOT
BRANCH  11  16
ATOM     16  O   LIG A   1      -9.711   2.184 132.951  0.00  0.00    -0.376 OA
ATOM     17  C   LIG A   1      -9.335   3.348 133.667  0.00  0.00    +0.194 C 
ENDBRANCH  11  16
BRANCH   3  18
ATOM     18  O   LIG A   1      -8.932   1.659 127.348  0.00  0.00    -0.457 OA
BRANCH  18  19
ATOM     19  C   LIG A   1      -9.125   1.120 126.113  0.00  0.00    +0.307 C 
ATOM     20  O   LIG A   1      -9.953   0.240 125.853  0.00  0.00    -0.251 OA
BRANCH  19  21
ATOM     21  C   LIG A   1      -8.239   1.727 125.038  0.00  0.00    +0.120 C 
BRANCH  21  22
ATOM     22  C   LIG A   1      -9.134   2.207 123.876  0.00  0.00    +0.008 C 
ATOM     23  C   LIG A   1      -8.398   3.016 122.830  0.00  0.00    +0.004 C 
ENDBRANCH  21  22
ENDBRANCH  19  21
ENDBRANCH  18  19
ENDBRANCH   3  18
BRANCH   4  24
ATOM     24  O   LIG A   1      -6.561   4.420 127.395  0.00  0.00    -0.457 OA
BRANCH  24  25
ATOM     25  C   LIG A   1      -6.821   4.779 126.092  0.00  0.00    +0.304 C 
ATOM     26  C   LIG A   1      -5.691   4.446 125.171  0.00  0.00    +0.136 C 
ATOM     27  O   LIG A   1      -7.864   5.288 125.697  0.00  0.00    -0.251 OA
ENDBRANCH  24  25
ENDBRANCH   4  24
BRANCH   7  28
ATOM     28  O   LIG A   1     -10.330   5.806 130.944  0.00  0.00    -0.431 OA
BRANCH  28  29
ATOM     29  C   LIG A   1     -11.629   6.188 130.916  0.00  0.00    +0.306 C 
ATOM     30  C   LIG A   1     -12.138   6.230 129.504  0.00  0.00    +0.136 C 
ATOM     31  O   LIG A   1     -12.316   6.466 131.890  0.00  0.00    -0.251 OA
ENDBRANCH  28  29
ENDBRANCH   7  28
BRANCH   9  32
ATOM     32  O   LIG A   1      -6.264   5.939 129.571  0.00  0.00    -0.434 OA
BRANCH  32  33
ATOM     33  C   LIG A   1      -5.693   6.743 130.518  0.00  0.00    +0.306 C 
ATOM     34  C   LIG A   1      -6.015   6.294 131.916  0.00  0.00    +0.136 C 
ATOM     35  O   LIG A   1      -5.018   7.742 130.298  0.00  0.00    -0.251 OA
ENDBRANCH  32  33
ENDBRANCH   9  32
BRANCH  14  36
ATOM     36  C   LIG A   1      -4.827   1.270 130.117  0.00  0.00    +0.034 C 
BRANCH  36  37
ATOM     37  C   LIG A   1      -4.132   2.413 130.818  0.00  0.00    -0.023 C 
ATOM     38  C   LIG A   1      -3.555   3.501 130.273  0.00  0.00    -0.055 C 
ATOM     39  C   LIG A   1      -2.848   4.500 131.154  0.00  0.00    +0.043 C 
BRANCH  38  40
ATOM     40  C   LIG A   1      -3.530   3.830 128.862  0.00  0.00    -0.005 C 
ATOM     41  C   LIG A   1      -3.026   4.959 128.350  0.00  0.00    +0.008 C 
ENDBRANCH  38  40
ENDBRANCH  36  37
ENDBRANCH  14  36
TORSDOF 14
ENDMDL
MODEL 2
REMARK VINA RESULT:      -6.8      2.119      6.753
REMARK  Name = NuBBE_48
REMARK  22 active torsions:
REMARK  status: ('A' for Active; 'I' for Inactive)
REMARK    1  A    between atoms: C_1  and  C_2
REMARK    2  A    between atoms: C_4  and  O_6
REMARK    3  A    between atoms: O_6  and  C_7
REMARK    4  A    between atoms: C_7  and  C_8
REMARK    5  A    between atoms: C_8  and  C_9
REMARK    6  A    between atoms: C_9  and  C_10
REMARK    7  A    between atoms: C_12  and  O_14
REMARK    8  A    between atoms: O_14  and  C_15
REMARK    9  A    between atoms: C_15  and  C_16
REMARK   10  A    between atoms: C_20  and  O_22
REMARK   11  A    between atoms: O_22  and  C_23
REMARK   12  A    between atoms: C_23  and  C_24
REMARK   13  A    between atoms: C_27  and  O_29
REMARK   14  A    between atoms: O_29  and  C_30
REMARK   15  A    between atoms: C_30  and  C_31
REMARK   16  A    between atoms: C_34  and  O_36
REMARK   17  A    between atoms: O_36  and  C_37
REMARK   18  A    between atoms: C_41  and  C_42
REMARK   19  A    between atoms: C_41  and  C_43
REMARK   20  A    between atoms: C_43  and  C_44
REMARK   21  A    between atoms: C_45  and  C_46
REMARK   22  A    between atoms: C_45  and  C_48
REMARK                            x       y       z     vdW  Elec       q    Type
REMARK                         _______ _______ _______ _____ _____    ______ ____
ROOT
ATOM      1  C   LIG A   1      -5.332   7.329 131.052  0.00  0.00    +0.012 C 
ATOM      2  C   LIG A   1      -5.783   5.861 131.156  0.00  0.00    +0.037 C 
ATOM      3  C   LIG A   1      -4.791   4.931 130.440  0.00  0.00    +0.221 C 
ATOM      4  C   LIG A   1      -5.211   4.349 129.089  0.00  0.00    +0.234 C 
ATOM      5  C   LIG A   1      -6.658   3.765 128.999  0.00  0.00    +0.104 C 
ATOM      6  C   LIG A   1      -6.599   2.285 129.397  0.00  0.00    +0.013 C 
ATOM      7  C   LIG A   1      -6.127   1.472 128.207  0.00  0.00    +0.343 C 
ATOM      8  O   LIG A   1      -6.107   2.439 127.134  0.00  0.00    -0.297 OA
ATOM      9  C   LIG A   1      -7.050   3.467 127.504  0.00  0.00    +0.328 C 
ATOM     10  C   LIG A   1      -7.226   1.733 130.449  0.00  0.00    +0.010 C 
ATOM     11  C   LIG A   1      -8.371   2.383 131.138  0.00  0.00    +0.141 C 
ATOM     12  C   LIG A   1      -8.880   3.565 130.296  0.00  0.00    +0.041 C 
ATOM     13  C   LIG A   1      -7.754   4.541 129.823  0.00  0.00    +0.018 C 
ATOM     14  C   LIG A   1      -7.333   5.605 130.963  0.00  0.00    -0.018 C 
ATOM     15  C   LIG A   1      -7.797   5.187 132.409  0.00  0.00    +0.012 C 
ENDROOT
BRANCH  11  16
ATOM     16  O   LIG A   1      -9.370   1.358 131.211  0.00  0.00    -0.376 OA
ATOM     17  C   LIG A   1      -8.858   0.085 131.570  0.00  0.00    +0.194 C 
ENDBRANCH  11  16
BRANCH   3  18
ATOM     18  O   LIG A   1      -4.296   3.907 131.364  0.00  0.00    -0.457 OA
BRANCH  18  19
ATOM     19  C   LIG A   1      -3.309   4.383 132.173  0.00  0.00    +0.307 C 
ATOM     20  O   LIG A   1      -3.243   4.183 133.390  0.00  0.00    -0.251 OA
BRANCH  19  21
ATOM     21  C   LIG A   1      -2.245   5.177 131.433  0.00  0.00    +0.120 C 
BRANCH  21  22
ATOM     22  C   LIG A   1      -1.104   5.508 132.418  0.00  0.00    +0.008 C 
ATOM     23  C   LIG A   1      -0.639   6.946 132.357  0.00  0.00    +0.004 C 
ENDBRANCH  21  22
ENDBRANCH  19  21
ENDBRANCH  18  19
ENDBRANCH   3  18
BRANCH   4  24
ATOM     24  O   LIG A   1      -4.897   5.354 128.079  0.00  0.00    -0.457 OA
BRANCH  24  25
ATOM     25  C   LIG A   1      -3.565   5.385 127.731  0.00  0.00    +0.304 C 
ATOM     26  C   LIG A   1      -2.925   6.700 128.041  0.00  0.00    +0.136 C 
ATOM     27  O   LIG A   1      -2.942   4.446 127.250  0.00  0.00    -0.251 OA
ENDBRANCH  24  25
ENDBRANCH   4  24
BRANCH   7  28
ATOM     28  O   LIG A   1      -7.072   0.463 127.828  0.00  0.00    -0.431 OA
BRANCH  28  29
ATOM     29  C   LIG A   1      -6.579  -0.680 127.292  0.00  0.00    +0.306 C 
ATOM     30  C   LIG A   1      -5.535  -1.278 128.189  0.00  0.00    +0.136 C 
ATOM     31  O   LIG A   1      -6.920  -1.178 126.226  0.00  0.00    -0.251 OA
ENDBRANCH  28  29
ENDBRANCH   7  28
BRANCH   9  32
ATOM     32  O   LIG A   1      -6.974   4.574 126.593  0.00  0.00    -0.434 OA
BRANCH  32  33
ATOM     33  C   LIG A   1      -8.116   4.750 125.863  0.00  0.00    +0.306 C 
ATOM     34  C   LIG A   1      -8.311   3.668 124.838  0.00  0.00    +0.136 C 
ATOM     35  O   LIG A   1      -8.902   5.683 125.976  0.00  0.00    -0.251 OA
ENDBRANCH  32  33
ENDBRANCH   9  32
BRANCH  14  36
ATOM     36  C   LIG A   1      -8.183   6.933 130.733  0.00  0.00    +0.034 C 
BRANCH  36  37
ATOM     37  C   LIG A   1      -9.665   6.904 131.027  0.00  0.00    -0.023 C 
ATOM     38  C   LIG A   1     -10.690   7.063 130.170  0.00  0.00    -0.055 C 
ATOM     39  C   LIG A   1     -12.108   7.069 130.684  0.00  0.00    +0.043 C 
BRANCH  38  40
ATOM     40  C   LIG A   1     -10.577   7.247 128.737  0.00  0.00    -0.005 C 
ATOM     41  C   LIG A   1     -10.549   8.434 128.119  0.00  0.00    +0.008 C 
ENDBRANCH  38  40
ENDBRANCH  36  37
ENDBRANCH  14  36
TORSDOF 14
ENDMDL
MODEL 3
REMARK VINA RESULT:      -6.7      1.901      2.991
REMARK  Name = NuBBE_48
REMARK  22 active torsions:
REMARK  status: ('A' for Active; 'I' for Inactive)
REMARK    1  A    between atoms: C_1  and  C_2
REMARK    2  A    between atoms: C_4  and  O_6
REMARK    3  A    between atoms: O_6  and  C_7
REMARK    4  A    between atoms: C_7  and  C_8
REMARK    5  A    between atoms: C_8  and  C_9
REMARK    6  A    between atoms: C_9  and  C_10
REMARK    7  A    between atoms: C_12  and  O_14
REMARK    8  A    between atoms: O_14  and  C_15
REMARK    9  A    between atoms: C_15  and  C_16
REMARK   10  A    between atoms: C_20  and  O_22
REMARK   11  A    between atoms: O_22  and  C_23
REMARK   12  A    between atoms: C_23  and  C_24
REMARK   13  A    between atoms: C_27  and  O_29
REMARK   14  A    between atoms: O_29  and  C_30
REMARK   15  A    between atoms: C_30  and  C_31
REMARK   16  A    between atoms: C_34  and  O_36
REMARK   17  A    between atoms: O_36  and  C_37
REMARK   18  A    between atoms: C_41  and  C_42
REMARK   19  A    between atoms: C_41  and  C_43
REMARK   20  A    between atoms: C_43  and  C_44
REMARK   21  A    between atoms: C_45  and  C_46
REMARK   22  A    between atoms: C_45  and  C_48
REMARK                            x       y       z     vdW  Elec       q    Type
REMARK                         _______ _______ _______ _____ _____    ______ ____
ROOT
ATOM      1  C   LIG A   1      -6.044  -0.419 127.009  0.00  0.00    +0.012 C 
ATOM      2  C   LIG A   1      -7.139   0.230 127.875  0.00  0.00    +0.037 C 
ATOM      3  C   LIG A   1      -7.651   1.528 127.228  0.00  0.00    +0.221 C 
ATOM      4  C   LIG A   1      -7.202   2.854 127.843  0.00  0.00    +0.234 C 
ATOM      5  C   LIG A   1      -7.277   2.963 129.400  0.00  0.00    +0.104 C 
ATOM      6  C   LIG A   1      -8.670   3.486 129.773  0.00  0.00    +0.013 C 
ATOM      7  C   LIG A   1      -8.694   4.993 129.602  0.00  0.00    +0.343 C 
ATOM      8  O   LIG A   1      -7.313   5.315 129.327  0.00  0.00    -0.297 OA
ATOM      9  C   LIG A   1      -6.530   4.251 129.908  0.00  0.00    +0.328 C 
ATOM     10  C   LIG A   1      -9.582   2.825 130.505  0.00  0.00    +0.010 C 
ATOM     11  C   LIG A   1      -9.236   1.677 131.382  0.00  0.00    +0.141 C 
ATOM     12  C   LIG A   1      -7.709   1.587 131.540  0.00  0.00    +0.041 C 
ATOM     13  C   LIG A   1      -6.925   1.645 130.189  0.00  0.00    +0.018 C 
ATOM     14  C   LIG A   1      -6.876   0.218 129.436  0.00  0.00    -0.018 C 
ATOM     15  C   LIG A   1      -7.957  -0.801 129.960  0.00  0.00    +0.012 C 
ENDROOT
BRANCH  11  16
ATOM     16  O   LIG A   1      -9.849   1.993 132.639  0.00  0.00    -0.376 OA
ATOM     17  C   LIG A   1      -9.209   3.047 133.338  0.00  0.00    +0.194 C 
ENDBRANCH  11  16
BRANCH   3  18
ATOM     18  O   LIG A   1      -9.102   1.460 127.033  0.00  0.00    -0.457 OA
BRANCH  18  19
ATOM     19  C   LIG A   1      -9.430   1.044 125.779  0.00  0.00    +0.307 C 
ATOM     20  O   LIG A   1     -10.099   0.035 125.527  0.00  0.00    -0.251 OA
BRANCH  19  21
ATOM     21  C   LIG A   1      -8.923   1.963 124.679  0.00  0.00    +0.120 C 
BRANCH  21  22
ATOM     22  C   LIG A   1      -8.523   1.101 123.463  0.00  0.00    +0.008 C 
ATOM     23  C   LIG A   1      -7.140   0.497 123.568  0.00  0.00    +0.004 C 
ENDBRANCH  21  22
ENDBRANCH  19  21
ENDBRANCH  18  19
ENDBRANCH   3  18
BRANCH   4  24
ATOM     24  O   LIG A   1      -5.895   3.164 127.274  0.00  0.00    -0.457 OA
BRANCH  24  25
ATOM     25  C   LIG A   1      -5.955   4.007 126.188  0.00  0.00    +0.304 C 
ATOM     26  C   LIG A   1      -5.256   3.447 124.990  0.00  0.00    +0.136 C 
ATOM     27  O   LIG A   1      -6.535   5.087 126.166  0.00  0.00    -0.251 OA
ENDBRANCH  24  25
ENDBRANCH   4  24
BRANCH   7  28
ATOM     28  O   LIG A   1      -9.036   5.674 130.816  0.00  0.00    -0.431 OA
BRANCH  28  29
ATOM     29  C   LIG A   1     -10.006   6.618 130.747  0.00  0.00    +0.306 C 
ATOM     30  C   LIG A   1     -11.047   6.386 131.803  0.00  0.00    +0.136 C 
ATOM     31  O   LIG A   1     -10.052   7.542 129.945  0.00  0.00    -0.251 OA
ENDBRANCH  28  29
ENDBRANCH   7  28
BRANCH   9  32
ATOM     32  O   LIG A   1      -5.150   4.377 129.533  0.00  0.00    -0.434 OA
BRANCH  32  33
ATOM     33  C   LIG A   1      -4.325   4.639 130.591  0.00  0.00    +0.306 C 
ATOM     34  C   LIG A   1      -3.822   3.383 131.247  0.00  0.00    +0.136 C 
ATOM     35  O   LIG A   1      -4.030   5.751 131.011  0.00  0.00    -0.251 OA
ENDBRANCH  32  33
ENDBRANCH   9  32
BRANCH  14  36
ATOM     36  C   LIG A   1      -5.525  -0.514 129.857  0.00  0.00    +0.034 C 
BRANCH  36  37
ATOM     37  C   LIG A   1      -5.612  -1.867 130.522  0.00  0.00    -0.023 C 
ATOM     38  C   LIG A   1      -5.058  -3.029 130.127  0.00  0.00    -0.055 C 
ATOM     39  C   LIG A   1      -5.326  -4.294 130.903  0.00  0.00    +0.043 C 
BRANCH  38  40
ATOM     40  C   LIG A   1      -4.196  -3.209 128.976  0.00  0.00    -0.005 C 
ATOM     41  C   LIG A   1      -2.971  -3.747 129.016  0.00  0.00    +0.008 C 
ENDBRANCH  38  40
ENDBRANCH  36  37
ENDBRANCH  14  36
TORSDOF 14
ENDMDL
MODEL 4
REMARK VINA RESULT:      -6.7      2.535      4.828
REMARK  Name = NuBBE_48
REMARK  22 active torsions:
REMARK  status: ('A' for Active; 'I' for Inactive)
REMARK    1  A    between atoms: C_1  and  C_2
REMARK    2  A    between atoms: C_4  and  O_6
REMARK    3  A    between atoms: O_6  and  C_7
REMARK    4  A    between atoms: C_7  and  C_8
REMARK    5  A    between atoms: C_8  and  C_9
REMARK    6  A    between atoms: C_9  and  C_10
REMARK    7  A    between atoms: C_12  and  O_14
REMARK    8  A    between atoms: O_14  and  C_15
REMARK    9  A    between atoms: C_15  and  C_16
REMARK   10  A    between atoms: C_20  and  O_22
REMARK   11  A    between atoms: O_22  and  C_23
REMARK   12  A    between atoms: C_23  and  C_24
REMARK   13  A    between atoms: C_27  and  O_29
REMARK   14  A    between atoms: O_29  and  C_30
REMARK   15  A    between atoms: C_30  and  C_31
REMARK   16  A    between atoms: C_34  and  O_36
REMARK   17  A    between atoms: O_36  and  C_37
REMARK   18  A    between atoms: C_41  and  C_42
REMARK   19  A    between atoms: C_41  and  C_43
REMARK   20  A    between atoms: C_43  and  C_44
REMARK   21  A    between atoms: C_45  and  C_46
REMARK   22  A    between atoms: C_45  and  C_48
REMARK                            x       y       z     vdW  Elec       q    Type
REMARK                         _______ _______ _______ _____ _____    ______ ____
ROOT
ATOM      1  C   LIG A   1      -5.338   0.153 125.520  0.00  0.00    +0.012 C 
ATOM      2  C   LIG A   1      -6.295   1.094 126.275  0.00  0.00    +0.037 C 
ATOM      3  C   LIG A   1      -5.700   2.508 126.381  0.00  0.00    +0.221 C 
ATOM      4  C   LIG A   1      -5.144   2.945 127.738  0.00  0.00    +0.234 C 
ATOM      5  C   LIG A   1      -6.030   2.636 128.988  0.00  0.00    +0.104 C 
ATOM      6  C   LIG A   1      -6.969   3.829 129.210  0.00  0.00    +0.013 C 
ATOM      7  C   LIG A   1      -6.213   4.926 129.934  0.00  0.00    +0.343 C 
ATOM      8  O   LIG A   1      -4.958   4.294 130.271  0.00  0.00    -0.297 OA
ATOM      9  C   LIG A   1      -5.224   2.876 130.318  0.00  0.00    +0.328 C 
ATOM     10  C   LIG A   1      -8.311   3.787 129.157  0.00  0.00    +0.010 C 
ATOM     11  C   LIG A   1      -9.084   2.522 129.269  0.00  0.00    +0.141 C 
ATOM     12  C   LIG A   1      -8.158   1.389 129.744  0.00  0.00    +0.041 C 
ATOM     13  C   LIG A   1      -6.825   1.277 128.937  0.00  0.00    +0.018 C 
ATOM     14  C   LIG A   1      -7.003   0.475 127.547  0.00  0.00    -0.018 C 
ATOM     15  C   LIG A   1      -8.504   0.358 127.083  0.00  0.00    +0.012 C 
ENDROOT
BRANCH  11  16
ATOM     16  O   LIG A   1     -10.079   2.802 130.263  0.00  0.00    -0.376 OA
ATOM     17  C   LIG A   1      -9.621   2.634 131.594  0.00  0.00    +0.194 C 
ENDBRANCH  11  16
BRANCH   3  18
ATOM     18  O   LIG A   1      -6.622   3.492 125.808  0.00  0.00    -0.457 OA
BRANCH  18  19
ATOM     19  C   LIG A   1      -5.963   4.537 125.237  0.00  0.00    +0.307 C 
ATOM     20  O   LIG A   1      -6.008   5.703 125.646  0.00  0.00    -0.251 OA
BRANCH  19  21
ATOM     21  C   LIG A   1      -5.114   4.142 124.040  0.00  0.00    +0.120 C 
BRANCH  21  22
ATOM     22  C   LIG A   1      -6.052   3.815 122.858  0.00  0.00    +0.008 C 
ATOM     23  C   LIG A   1      -5.427   4.043 121.499  0.00  0.00    +0.004 C 
ENDBRANCH  21  22
ENDBRANCH  19  21
ENDBRANCH  18  19
ENDBRANCH   3  18
BRANCH   4  24
ATOM     24  O   LIG A   1      -3.779   2.435 127.820  0.00  0.00    -0.457 OA
BRANCH  24  25
ATOM     25  C   LIG A   1      -2.859   3.224 127.166  0.00  0.00    +0.304 C 
ATOM     26  C   LIG A   1      -2.928   4.655 127.593  0.00  0.00    +0.136 C 
ATOM     27  O   LIG A   1      -2.043   2.820 126.345  0.00  0.00    -0.251 OA
ENDBRANCH  24  25
ENDBRANCH   4  24
BRANCH   7  28
ATOM     28  O   LIG A   1      -6.833   5.286 131.176  0.00  0.00    -0.431 OA
BRANCH  28  29
ATOM     29  C   LIG A   1      -7.532   6.446 131.208  0.00  0.00    +0.306 C 
ATOM     30  C   LIG A   1      -8.797   6.280 132.000  0.00  0.00    +0.136 C 
ATOM     31  O   LIG A   1      -7.202   7.497 130.674  0.00  0.00    -0.251 OA
ENDBRANCH  28  29
ENDBRANCH   7  28
BRANCH   9  32
ATOM     32  O   LIG A   1      -4.002   2.138 130.464  0.00  0.00    -0.434 OA
BRANCH  32  33
ATOM     33  C   LIG A   1      -4.103   1.095 131.342  0.00  0.00    +0.306 C 
ATOM     34  C   LIG A   1      -4.111  -0.238 130.647  0.00  0.00    +0.136 C 
ATOM     35  O   LIG A   1      -4.209   1.191 132.559  0.00  0.00    -0.251 OA
ENDBRANCH  32  33
ENDBRANCH   9  32
BRANCH  14  36
ATOM     36  C   LIG A   1      -6.637  -1.053 127.812  0.00  0.00    +0.034 C 
BRANCH  36  37
ATOM     37  C   LIG A   1      -7.719  -2.095 127.655  0.00  0.00    -0.023 C 
ATOM     38  C   LIG A   1      -8.041  -3.097 128.494  0.00  0.00    -0.055 C 
ATOM     39  C   LIG A   1      -9.121  -4.080 128.115  0.00  0.00    +0.043 C 
BRANCH  38  40
ATOM     40  C   LIG A   1      -7.428  -3.355 129.782  0.00  0.00    -0.005 C 
ATOM     41  C   LIG A   1      -7.589  -2.593 130.870  0.00  0.00    +0.008 C 
ENDBRANCH  38  40
ENDBRANCH  36  37
ENDBRANCH  14  36
TORSDOF 14
ENDMDL
MODEL 5
REMARK VINA RESULT:      -6.5      2.375      6.640
REMARK  Name = NuBBE_48
REMARK  22 active torsions:
REMARK  status: ('A' for Active; 'I' for Inactive)
REMARK    1  A    between atoms: C_1  and  C_2
REMARK    2  A    between atoms: C_4  and  O_6
REMARK    3  A    between atoms: O_6  and  C_7
REMARK    4  A    between atoms: C_7  and  C_8
REMARK    5  A    between atoms: C_8  and  C_9
REMARK    6  A    between atoms: C_9  and  C_10
REMARK    7  A    between atoms: C_12  and  O_14
REMARK    8  A    between atoms: O_14  and  C_15
REMARK    9  A    between atoms: C_15  and  C_16
REMARK   10  A    between atoms: C_20  and  O_22
REMARK   11  A    between atoms: O_22  and  C_23
REMARK   12  A    between atoms: C_23  and  C_24
REMARK   13  A    between atoms: C_27  and  O_29
REMARK   14  A    between atoms: O_29  and  C_30
REMARK   15  A    between atoms: C_30  and  C_31
REMARK   16  A    between atoms: C_34  and  O_36
REMARK   17  A    between atoms: O_36  and  C_37
REMARK   18  A    between atoms: C_41  and  C_42
REMARK   19  A    between atoms: C_41  and  C_43
REMARK   20  A    between atoms: C_43  and  C_44
REMARK   21  A    between atoms: C_45  and  C_46
REMARK   22  A    between atoms: C_45  and  C_48
REMARK                            x       y       z     vdW  Elec       q    Type
REMARK                         _______ _______ _______ _____ _____    ______ ____
ROOT
ATOM      1  C   LIG A   1      -8.861   3.779 133.942  0.00  0.00    +0.012 C 
ATOM      2  C   LIG A   1      -8.444   3.323 132.531  0.00  0.00    +0.037 C 
ATOM      3  C   LIG A   1      -6.967   2.898 132.508  0.00  0.00    +0.221 C 
ATOM      4  C   LIG A   1      -5.964   3.851 131.854  0.00  0.00    +0.234 C 
ATOM      5  C   LIG A   1      -6.373   4.457 130.473  0.00  0.00    +0.104 C 
ATOM      6  C   LIG A   1      -5.886   3.504 129.374  0.00  0.00    +0.013 C 
ATOM      7  C   LIG A   1      -4.412   3.754 129.121  0.00  0.00    +0.343 C 
ATOM      8  O   LIG A   1      -4.136   4.930 129.914  0.00  0.00    -0.297 OA
ATOM      9  C   LIG A   1      -5.396   5.619 130.060  0.00  0.00    +0.328 C 
ATOM     10  C   LIG A   1      -6.672   2.854 128.499  0.00  0.00    +0.010 C 
ATOM     11  C   LIG A   1      -8.072   3.262 128.213  0.00  0.00    +0.141 C 
ATOM     12  C   LIG A   1      -8.340   4.652 128.814  0.00  0.00    +0.041 C 
ATOM     13  C   LIG A   1      -7.904   4.795 130.308  0.00  0.00    +0.018 C 
ATOM     14  C   LIG A   1      -8.998   4.200 131.336  0.00  0.00    -0.018 C 
ATOM     15  C   LIG A   1     -10.036   3.234 130.651  0.00  0.00    +0.012 C 
ENDROOT
BRANCH  11  16
ATOM     16  O   LIG A   1      -8.140   3.317 126.782  0.00  0.00    -0.376 OA
ATOM     17  C   LIG A   1      -7.681   2.138 126.142  0.00  0.00    +0.194 C 
ENDBRANCH  11  16
BRANCH   3  18
ATOM     18  O   LIG A   1      -6.841   1.524 132.013  0.00  0.00    -0.457 OA
BRANCH  18  19
ATOM     19  C   LIG A   1      -7.081   0.606 132.991  0.00  0.00    +0.307 C 
ATOM     20  O   LIG A   1      -6.731   0.729 134.170  0.00  0.00    -0.251 OA
BRANCH  19  21
ATOM     21  C   LIG A   1      -7.866  -0.604 132.511  0.00  0.00    +0.120 C 
BRANCH  21  22
ATOM     22  C   LIG A   1      -8.474  -0.280 131.130  0.00  0.00    +0.008 C 
ATOM     23  C   LIG A   1      -7.864  -1.067 129.992  0.00  0.00    +0.004 C 
ENDBRANCH  21  22
ENDBRANCH  19  21
ENDBRANCH  18  19
ENDBRANCH   3  18
BRANCH   4  24
ATOM     24  O   LIG A   1      -5.596   4.836 132.866  0.00  0.00    -0.457 OA
BRANCH  24  25
ATOM     25  C   LIG A   1      -4.696   4.361 133.793  0.00  0.00    +0.304 C 
ATOM     26  C   LIG A   1      -3.367   4.041 133.188  0.00  0.00    +0.136 C 
ATOM     27  O   LIG A   1      -4.922   4.233 134.991  0.00  0.00    -0.251 OA
ENDBRANCH  24  25
ENDBRANCH   4  24
BRANCH   7  28
ATOM     28  O   LIG A   1      -4.147   4.112 127.757  0.00  0.00    -0.431 OA
BRANCH  28  29
ATOM     29  C   LIG A   1      -3.203   3.396 127.099  0.00  0.00    +0.306 C 
ATOM     30  C   LIG A   1      -3.835   2.287 126.310  0.00  0.00    +0.136 C 
ATOM     31  O   LIG A   1      -1.997   3.603 127.128  0.00  0.00    -0.251 OA
ENDBRANCH  28  29
ENDBRANCH   7  28
BRANCH   9  32
ATOM     32  O   LIG A   1      -5.272   6.707 130.988  0.00  0.00    -0.434 OA
BRANCH  32  33
ATOM     33  C   LIG A   1      -4.340   7.633 130.611  0.00  0.00    +0.306 C 
ATOM     34  C   LIG A   1      -3.274   7.827 131.653  0.00  0.00    +0.136 C 
ATOM     35  O   LIG A   1      -4.351   8.277 129.568  0.00  0.00    -0.251 OA
ENDBRANCH  32  33
ENDBRANCH   9  32
BRANCH  14  36
ATOM     36  C   LIG A   1      -9.941   5.399 131.796  0.00  0.00    +0.034 C 
BRANCH  36  37
ATOM     37  C   LIG A   1     -11.192   5.682 131.000  0.00  0.00    -0.023 C 
ATOM     38  C   LIG A   1     -11.395   6.638 130.074  0.00  0.00    -0.055 C 
ATOM     39  C   LIG A   1     -12.754   6.797 129.439  0.00  0.00    +0.043 C 
BRANCH  38  40
ATOM     40  C   LIG A   1     -10.404   7.584 129.601  0.00  0.00    -0.005 C 
ATOM     41  C   LIG A   1     -10.472   8.245 128.439  0.00  0.00    +0.008 C 
ENDBRANCH  38  40
ENDBRANCH  36  37
ENDBRANCH  14  36
TORSDOF 14
ENDMDL
MODEL 6
REMARK VINA RESULT:      -6.5      2.304      5.417
REMARK  Name = NuBBE_48
REMARK  22 active torsions:
REMARK  status: ('A' for Active; 'I' for Inactive)
REMARK    1  A    between atoms: C_1  and  C_2
REMARK    2  A    between atoms: C_4  and  O_6
REMARK    3  A    between atoms: O_6  and  C_7
REMARK    4  A    between atoms: C_7  and  C_8
REMARK    5  A    between atoms: C_8  and  C_9
REMARK    6  A    between atoms: C_9  and  C_10
REMARK    7  A    between atoms: C_12  and  O_14
REMARK    8  A    between atoms: O_14  and  C_15
REMARK    9  A    between atoms: C_15  and  C_16
REMARK   10  A    between atoms: C_20  and  O_22
REMARK   11  A    between atoms: O_22  and  C_23
REMARK   12  A    between atoms: C_23  and  C_24
REMARK   13  A    between atoms: C_27  and  O_29
REMARK   14  A    between atoms: O_29  and  C_30
REMARK   15  A    between atoms: C_30  and  C_31
REMARK   16  A    between atoms: C_34  and  O_36
REMARK   17  A    between atoms: O_36  and  C_37
REMARK   18  A    between atoms: C_41  and  C_42
REMARK   19  A    between atoms: C_41  and  C_43
REMARK   20  A    between atoms: C_43  and  C_44
REMARK   21  A    between atoms: C_45  and  C_46
REMARK   22  A    between atoms: C_45  and  C_48
REMARK                            x       y       z     vdW  Elec       q    Type
REMARK                         _______ _______ _______ _____ _____    ______ ____
ROOT
ATOM      1  C   LIG A   1      -5.893   2.507 134.808  0.00  0.00    +0.012 C 
ATOM      2  C   LIG A   1      -6.993   2.496 133.731  0.00  0.00    +0.037 C 
ATOM      3  C   LIG A   1      -6.775   1.342 132.738  0.00  0.00    +0.221 C 
ATOM      4  C   LIG A   1      -6.240   1.692 131.348  0.00  0.00    +0.234 C 
ATOM      5  C   LIG A   1      -6.911   2.906 130.627  0.00  0.00    +0.104 C 
ATOM      6  C   LIG A   1      -8.104   2.378 129.819  0.00  0.00    +0.013 C 
ATOM      7  C   LIG A   1      -7.598   1.797 128.513  0.00  0.00    +0.343 C 
ATOM      8  O   LIG A   1      -6.199   2.159 128.511  0.00  0.00    -0.297 OA
ATOM      9  C   LIG A   1      -6.087   3.325 129.354  0.00  0.00    +0.328 C 
ATOM     10  C   LIG A   1      -9.389   2.718 130.012  0.00  0.00    +0.010 C 
ATOM     11  C   LIG A   1      -9.799   3.937 130.757  0.00  0.00    +0.141 C 
ATOM     12  C   LIG A   1      -8.577   4.844 130.979  0.00  0.00    +0.041 C 
ATOM     13  C   LIG A   1      -7.331   4.103 131.562  0.00  0.00    +0.018 C 
ATOM     14  C   LIG A   1      -7.411   3.913 133.163  0.00  0.00    -0.018 C 
ATOM     15  C   LIG A   1      -8.865   4.101 133.741  0.00  0.00    +0.012 C 
ENDROOT
BRANCH  11  16
ATOM     16  O   LIG A   1     -10.746   4.579 129.894  0.00  0.00    -0.376 OA
ATOM     17  C   LIG A   1     -11.576   5.519 130.554  0.00  0.00    +0.194 C 
ENDBRANCH  11  16
BRANCH   3  18
ATOM     18  O   LIG A   1      -7.964   0.487 132.684  0.00  0.00    -0.457 OA
BRANCH  18  19
ATOM     19  C   LIG A   1      -7.666  -0.777 132.274  0.00  0.00    +0.307 C 
ATOM     20  O   LIG A   1      -7.045  -1.606 132.949  0.00  0.00    -0.251 OA
BRANCH  19  21
ATOM     21  C   LIG A   1      -8.199  -1.110 130.890  0.00  0.00    +0.120 C 
BRANCH  21  22
ATOM     22  C   LIG A   1      -7.455  -2.356 130.363  0.00  0.00    +0.008 C 
ATOM     23  C   LIG A   1      -8.163  -3.056 129.224  0.00  0.00    +0.004 C 
ENDBRANCH  21  22
ENDBRANCH  19  21
ENDBRANCH  18  19
ENDBRANCH   3  18
BRANCH   4  24
ATOM     24  O   LIG A   1      -4.788   1.780 131.464  0.00  0.00    -0.457 OA
BRANCH  24  25
ATOM     25  C   LIG A   1      -4.169   0.553 131.546  0.00  0.00    +0.304 C 
ATOM     26  C   LIG A   1      -4.329  -0.252 130.296  0.00  0.00    +0.136 C 
ATOM     27  O   LIG A   1      -3.527   0.152 132.510  0.00  0.00    -0.251 OA
ENDBRANCH  24  25
ENDBRANCH   4  24
BRANCH   7  28
ATOM     28  O   LIG A   1      -8.185   2.433 127.370  0.00  0.00    -0.431 OA
BRANCH  28  29
ATOM     29  C   LIG A   1      -8.711   1.631 126.414  0.00  0.00    +0.306 C 
ATOM     30  C   LIG A   1      -8.398   0.191 126.700  0.00  0.00    +0.136 C 
ATOM     31  O   LIG A   1      -9.355   2.002 125.441  0.00  0.00    -0.251 OA
ENDBRANCH  28  29
ENDBRANCH   7  28
BRANCH   9  32
ATOM     32  O   LIG A   1      -4.707   3.660 129.570  0.00  0.00    -0.434 OA
BRANCH  32  33
ATOM     33  C   LIG A   1      -4.380   4.910 129.123  0.00  0.00    +0.306 C 
ATOM     34  C   LIG A   1      -2.897   5.084 128.950  0.00  0.00    +0.136 C 
ATOM     35  O   LIG A   1      -5.169   5.823 128.907  0.00  0.00    -0.251 OA
ENDBRANCH  32  33
ENDBRANCH   9  32
BRANCH  14  36
ATOM     36  C   LIG A   1      -6.644   5.133 133.841  0.00  0.00    +0.034 C 
BRANCH  36  37
ATOM     37  C   LIG A   1      -5.804   6.035 132.968  0.00  0.00    -0.023 C 
ATOM     38  C   LIG A   1      -4.465   6.055 132.831  0.00  0.00    -0.055 C 
ATOM     39  C   LIG A   1      -3.813   7.092 131.951  0.00  0.00    +0.043 C 
BRANCH  38  40
ATOM     40  C   LIG A   1      -3.533   5.151 133.474  0.00  0.00    -0.005 C 
ATOM     41  C   LIG A   1      -2.800   4.230 132.837  0.00  0.00    +0.008 C 
ENDBRANCH  38  40
ENDBRANCH  36  37
ENDBRANCH  14  36
TORSDOF 14
ENDMDL
MODEL 7
REMARK VINA RESULT:      -6.4      2.119      5.209
REMARK  Name = NuBBE_48
REMARK  22 active torsions:
REMARK  status: ('A' for Active; 'I' for Inactive)
REMARK    1  A    between atoms: C_1  and  C_2
REMARK    2  A    between atoms: C_4  and  O_6
REMARK    3  A    between atoms: O_6  and  C_7
REMARK    4  A    between atoms: C_7  and  C_8
REMARK    5  A    between atoms: C_8  and  C_9
REMARK    6  A    between atoms: C_9  and  C_10
REMARK    7  A    between atoms: C_12  and  O_14
REMARK    8  A    between atoms: O_14  and  C_15
REMARK    9  A    between atoms: C_15  and  C_16
REMARK   10  A    between atoms: C_20  and  O_22
REMARK   11  A    between atoms: O_22  and  C_23
REMARK   12  A    between atoms: C_23  and  C_24
REMARK   13  A    between atoms: C_27  and  O_29
REMARK   14  A    between atoms: O_29  and  C_30
REMARK   15  A    between atoms: C_30  and  C_31
REMARK   16  A    between atoms: C_34  and  O_36
REMARK   17  A    between atoms: O_36  and  C_37
REMARK   18  A    between atoms: C_41  and  C_42
REMARK   19  A    between atoms: C_41  and  C_43
REMARK   20  A    between atoms: C_43  and  C_44
REMARK   21  A    between atoms: C_45  and  C_46
REMARK   22  A    between atoms: C_45  and  C_48
REMARK                            x       y       z     vdW  Elec       q    Type
REMARK                         _______ _______ _______ _____ _____    ______ ____
ROOT
ATOM      1  C   LIG A   1      -4.988   3.286 134.140  0.00  0.00    +0.012 C 
ATOM      2  C   LIG A   1      -6.196   3.720 133.290  0.00  0.00    +0.037 C 
ATOM      3  C   LIG A   1      -6.499   2.680 132.199  0.00  0.00    +0.221 C 
ATOM      4  C   LIG A   1      -6.112   3.027 130.760  0.00  0.00    +0.234 C 
ATOM      5  C   LIG A   1      -6.488   4.459 130.260  0.00  0.00    +0.104 C 
ATOM      6  C   LIG A   1      -7.897   4.396 129.658  0.00  0.00    +0.013 C 
ATOM      7  C   LIG A   1      -7.806   3.855 128.244  0.00  0.00    +0.343 C 
ATOM      8  O   LIG A   1      -6.383   3.799 128.003  0.00  0.00    -0.297 OA
ATOM      9  C   LIG A   1      -5.789   4.775 128.887  0.00  0.00    +0.328 C 
ATOM     10  C   LIG A   1      -8.972   5.064 130.110  0.00  0.00    +0.010 C 
ATOM     11  C   LIG A   1      -8.869   6.250 131.000  0.00  0.00    +0.141 C 
ATOM     12  C   LIG A   1      -7.410   6.736 131.049  0.00  0.00    +0.041 C 
ATOM     13  C   LIG A   1      -6.371   5.605 131.336  0.00  0.00    +0.018 C 
ATOM     14  C   LIG A   1      -6.250   5.255 132.908  0.00  0.00    -0.018 C 
ATOM     15  C   LIG A   1      -7.467   5.780 133.759  0.00  0.00    +0.012 C 
ENDROOT
BRANCH  11  16
ATOM     16  O   LIG A   1      -9.701   7.235 130.374  0.00  0.00    -0.376 OA
ATOM     17  C   LIG A   1     -11.087   6.948 130.455  0.00  0.00    +0.194 C 
ENDBRANCH  11  16
BRANCH   3  18
ATOM     18  O   LIG A   1      -7.884   2.214 132.311  0.00  0.00    -0.457 OA
BRANCH  18  19
ATOM     19  C   LIG A   1      -7.957   0.863 132.465  0.00  0.00    +0.307 C 
ATOM     20  O   LIG A   1      -7.351   0.222 133.330  0.00  0.00    -0.251 OA
BRANCH  19  21
ATOM     21  C   LIG A   1      -8.896   0.187 131.480  0.00  0.00    +0.120 C 
BRANCH  21  22
ATOM     22  C   LIG A   1      -8.073  -0.290 130.264  0.00  0.00    +0.008 C 
ATOM     23  C   LIG A   1      -7.898  -1.791 130.194  0.00  0.00    +0.004 C 
ENDBRANCH  21  22
ENDBRANCH  19  21
ENDBRANCH  18  19
ENDBRANCH   3  18
BRANCH   4  24
ATOM     24  O   LIG A   1      -4.702   2.681 130.607  0.00  0.00    -0.457 OA
BRANCH  24  25
ATOM     25  C   LIG A   1      -4.483   1.331 130.445  0.00  0.00    +0.304 C 
ATOM     26  C   LIG A   1      -4.859   0.851 129.080  0.00  0.00    +0.136 C 
ATOM     27  O   LIG A   1      -4.006   0.589 131.296  0.00  0.00    -0.251 OA
ENDBRANCH  24  25
ENDBRANCH   4  24
BRANCH   7  28
ATOM     28  O   LIG A   1      -8.347   4.766 127.277  0.00  0.00    -0.431 OA
BRANCH  28  29
ATOM     29  C   LIG A   1      -7.860   4.692 126.014  0.00  0.00    +0.306 C 
ATOM     30  C   LIG A   1      -8.347   3.448 125.331  0.00  0.00    +0.136 C 
ATOM     31  O   LIG A   1      -7.123   5.512 125.481  0.00  0.00    -0.251 OA
ENDBRANCH  28  29
ENDBRANCH   7  28
BRANCH   9  32
ATOM     32  O   LIG A   1      -4.358   4.672 128.862  0.00  0.00    -0.434 OA
BRANCH  32  33
ATOM     33  C   LIG A   1      -3.764   5.608 128.062  0.00  0.00    +0.306 C 
ATOM     34  C   LIG A   1      -2.275   5.668 128.261  0.00  0.00    +0.136 C 
ATOM     35  O   LIG A   1      -4.343   6.355 127.282  0.00  0.00    -0.251 OA
ENDBRANCH  32  33
ENDBRANCH   9  32
BRANCH  14  36
ATOM     36  C   LIG A   1      -5.051   6.113 133.510  0.00  0.00    +0.034 C 
BRANCH  36  37
ATOM     37  C   LIG A   1      -3.652   5.861 133.001  0.00  0.00    -0.023 C 
ATOM     38  C   LIG A   1      -2.898   6.643 132.206  0.00  0.00    -0.055 C 
ATOM     39  C   LIG A   1      -1.540   6.171 131.752  0.00  0.00    +0.043 C 
BRANCH  38  40
ATOM     40  C   LIG A   1      -3.270   7.952 131.706  0.00  0.00    -0.005 C 
ATOM     41  C   LIG A   1      -3.894   8.176 130.543  0.00  0.00    +0.008 C 
ENDBRANCH  38  40
ENDBRANCH  36  37
ENDBRANCH  14  36
TORSDOF 14
ENDMDL
MODEL 8
REMARK VINA RESULT:      -6.4      2.617      6.661
REMARK  Name = NuBBE_48
REMARK  22 active torsions:
REMARK  status: ('A' for Active; 'I' for Inactive)
REMARK    1  A    between atoms: C_1  and  C_2
REMARK    2  A    between atoms: C_4  and  O_6
REMARK    3  A    between atoms: O_6  and  C_7
REMARK    4  A    between atoms: C_7  and  C_8
REMARK    5  A    between atoms: C_8  and  C_9
REMARK    6  A    between atoms: C_9  and  C_10
REMARK    7  A    between atoms: C_12  and  O_14
REMARK    8  A    between atoms: O_14  and  C_15
REMARK    9  A    between atoms: C_15  and  C_16
REMARK   10  A    between atoms: C_20  and  O_22
REMARK   11  A    between atoms: O_22  and  C_23
REMARK   12  A    between atoms: C_23  and  C_24
REMARK   13  A    between atoms: C_27  and  O_29
REMARK   14  A    between atoms: O_29  and  C_30
REMARK   15  A    between atoms: C_30  and  C_31
REMARK   16  A    between atoms: C_34  and  O_36
REMARK   17  A    between atoms: O_36  and  C_37
REMARK   18  A    between atoms: C_41  and  C_42
REMARK   19  A    between atoms: C_41  and  C_43
REMARK   20  A    between atoms: C_43  and  C_44
REMARK   21  A    between atoms: C_45  and  C_46
REMARK   22  A    between atoms: C_45  and  C_48
REMARK                            x       y       z     vdW  Elec       q    Type
REMARK                         _______ _______ _______ _____ _____    ______ ____
ROOT
ATOM      1  C   LIG A   1      -7.882  -1.098 130.077  0.00  0.00    +0.012 C 
ATOM      2  C   LIG A   1      -6.733  -0.174 129.634  0.00  0.00    +0.037 C 
ATOM      3  C   LIG A   1      -6.428   0.877 130.714  0.00  0.00    +0.221 C 
ATOM      4  C   LIG A   1      -6.892   2.313 130.460  0.00  0.00    +0.234 C 
ATOM      5  C   LIG A   1      -6.606   2.899 129.040  0.00  0.00    +0.104 C 
ATOM      6  C   LIG A   1      -5.222   3.561 129.071  0.00  0.00    +0.013 C 
ATOM      7  C   LIG A   1      -5.348   4.941 129.687  0.00  0.00    +0.343 C 
ATOM      8  O   LIG A   1      -6.776   5.114 129.820  0.00  0.00    -0.297 OA
ATOM      9  C   LIG A   1      -7.377   4.254 128.828  0.00  0.00    +0.328 C 
ATOM     10  C   LIG A   1      -4.163   3.191 128.332  0.00  0.00    +0.010 C 
ATOM     11  C   LIG A   1      -4.284   2.358 127.108  0.00  0.00    +0.141 C 
ATOM     12  C   LIG A   1      -5.760   2.268 126.686  0.00  0.00    +0.041 C 
ATOM     13  C   LIG A   1      -6.731   1.878 127.847  0.00  0.00    +0.018 C 
ATOM     14  C   LIG A   1      -6.769   0.287 128.120  0.00  0.00    -0.018 C 
ATOM     15  C   LIG A   1      -5.543  -0.482 127.496  0.00  0.00    +0.012 C 
ENDROOT
BRANCH  11  16
ATOM     16  O   LIG A   1      -3.526   3.068 126.119  0.00  0.00    -0.376 OA
ATOM     17  C   LIG A   1      -2.275   3.542 126.588  0.00  0.00    +0.194 C 
ENDBRANCH  11  16
BRANCH   3  18
ATOM     18  O   LIG A   1      -5.018   0.804 131.111  0.00  0.00    -0.457 OA
BRANCH  18  19
ATOM     19  C   LIG A   1      -4.695  -0.416 131.622  0.00  0.00    +0.307 C 
ATOM     20  O   LIG A   1      -5.166  -0.888 132.662  0.00  0.00    -0.251 OA
BRANCH  19  21
ATOM     21  C   LIG A   1      -3.703  -1.190 130.769  0.00  0.00    +0.120 C 
BRANCH  21  22
ATOM     22  C   LIG A   1      -4.010  -2.697 130.903  0.00  0.00    +0.008 C 
ATOM     23  C   LIG A   1      -4.648  -3.303 129.672  0.00  0.00    +0.004 C 
ENDBRANCH  21  22
ENDBRANCH  19  21
ENDBRANCH  18  19
ENDBRANCH   3  18
BRANCH   4  24
ATOM     24  O   LIG A   1      -8.289   2.385 130.877  0.00  0.00    -0.457 OA
BRANCH  24  25
ATOM     25  C   LIG A   1      -8.448   2.570 132.232  0.00  0.00    +0.304 C 
ATOM     26  C   LIG A   1      -7.601   3.683 132.760  0.00  0.00    +0.136 C 
ATOM     27  O   LIG A   1      -9.213   1.929 132.945  0.00  0.00    -0.251 OA
ENDBRANCH  24  25
ENDBRANCH   4  24
BRANCH   7  28
ATOM     28  O   LIG A   1      -4.893   5.975 128.804  0.00  0.00    -0.431 OA
BRANCH  28  29
ATOM     29  C   LIG A   1      -3.849   6.732 129.220  0.00  0.00    +0.306 C 
ATOM     30  C   LIG A   1      -4.326   7.869 130.076  0.00  0.00    +0.136 C 
ATOM     31  O   LIG A   1      -2.670   6.538 128.948  0.00  0.00    -0.251 OA
ENDBRANCH  28  29
ENDBRANCH   7  28
BRANCH   9  32
ATOM     32  O   LIG A   1      -8.802   4.209 128.996  0.00  0.00    -0.434 OA
BRANCH  32  33
ATOM     33  C   LIG A   1      -9.380   5.447 129.027  0.00  0.00    +0.306 C 
ATOM     34  C   LIG A   1      -9.994   5.756 130.364  0.00  0.00    +0.136 C 
ATOM     35  O   LIG A   1      -9.442   6.233 128.089  0.00  0.00    -0.251 OA
ENDBRANCH  32  33
ENDBRANCH   9  32
BRANCH  14  36
ATOM     36  C   LIG A   1      -7.980  -0.326 127.287  0.00  0.00    +0.034 C 
BRANCH  36  37
ATOM     37  C   LIG A   1      -7.673  -1.292 126.168  0.00  0.00    -0.023 C 
ATOM     38  C   LIG A   1      -8.133  -2.546 125.997  0.00  0.00    -0.055 C 
ATOM     39  C   LIG A   1      -7.645  -3.377 124.836  0.00  0.00    +0.043 C 
BRANCH  38  40
ATOM     40  C   LIG A   1      -9.087  -3.223 126.853  0.00  0.00    -0.005 C 
ATOM     41  C   LIG A   1      -8.765  -3.939 127.937  0.00  0.00    +0.008 C 
ENDBRANCH  38  40
ENDBRANCH  36  37
ENDBRANCH  14  36
TORSDOF 14
ENDMDL
MODEL 9
REMARK VINA RESULT:      -6.3      2.257      6.897
REMARK  Name = NuBBE_48
REMARK  22 active torsions:
REMARK  status: ('A' for Active; 'I' for Inactive)
REMARK    1  A    between atoms: C_1  and  C_2
REMARK    2  A    between atoms: C_4  and  O_6
REMARK    3  A    between atoms: O_6  and  C_7
REMARK    4  A    between atoms: C_7  and  C_8
REMARK    5  A    between atoms: C_8  and  C_9
REMARK    6  A    between atoms: C_9  and  C_10
REMARK    7  A    between atoms: C_12  and  O_14
REMARK    8  A    between atoms: O_14  and  C_15
REMARK    9  A    between atoms: C_15  and  C_16
REMARK   10  A    between atoms: C_20  and  O_22
REMARK   11  A    between atoms: O_22  and  C_23
REMARK   12  A    between atoms: C_23  and  C_24
REMARK   13  A    between atoms: C_27  and  O_29
REMARK   14  A    between atoms: O_29  and  C_30
REMARK   15  A    between atoms: C_30  and  C_31
REMARK   16  A    between atoms: C_34  and  O_36
REMARK   17  A    between atoms: O_36  and  C_37
REMARK   18  A    between atoms: C_41  and  C_42
REMARK   19  A    between atoms: C_41  and  C_43
REMARK   20  A    between atoms: C_43  and  C_44
REMARK   21  A    between atoms: C_45  and  C_46
REMARK   22  A    between atoms: C_45  and  C_48
REMARK                            x       y       z     vdW  Elec       q    Type
REMARK                         _______ _______ _______ _____ _____    ______ ____
ROOT
ATOM      1  C   LIG A   1      -5.341   7.744 130.614  0.00  0.00    +0.012 C 
ATOM      2  C   LIG A   1      -5.602   6.362 131.241  0.00  0.00    +0.037 C 
ATOM      3  C   LIG A   1      -4.465   5.384 130.903  0.00  0.00    +0.221 C 
ATOM      4  C   LIG A   1      -4.742   4.306 129.854  0.00  0.00    +0.234 C 
ATOM      5  C   LIG A   1      -6.095   3.535 129.985  0.00  0.00    +0.104 C 
ATOM      6  C   LIG A   1      -5.862   2.318 130.889  0.00  0.00    +0.013 C 
ATOM      7  C   LIG A   1      -5.233   1.208 130.069  0.00  0.00    +0.343 C 
ATOM      8  O   LIG A   1      -5.290   1.721 128.720  0.00  0.00    -0.297 OA
ATOM      9  C   LIG A   1      -6.375   2.672 128.699  0.00  0.00    +0.328 C 
ATOM     10  C   LIG A   1      -6.460   2.097 132.071  0.00  0.00    +0.010 C 
ATOM     11  C   LIG A   1      -7.711   2.785 132.484  0.00  0.00    +0.141 C 
ATOM     12  C   LIG A   1      -8.330   3.506 131.275  0.00  0.00    +0.041 C 
ATOM     13  C   LIG A   1      -7.320   4.395 130.479  0.00  0.00    +0.018 C 
ATOM     14  C   LIG A   1      -7.095   5.842 131.158  0.00  0.00    -0.018 C 
ATOM     15  C   LIG A   1      -7.567   5.907 132.659  0.00  0.00    +0.012 C 
ENDROOT
BRANCH  11  16
ATOM     16  O   LIG A   1      -8.570   1.725 132.925  0.00  0.00    -0.376 OA
ATOM     17  C   LIG A   1      -9.469   1.267 131.930  0.00  0.00    +0.194 C 
ENDBRANCH  11  16
BRANCH   3  18
ATOM     18  O   LIG A   1      -3.884   4.836 132.132  0.00  0.00    -0.457 OA
BRANCH  18  19
ATOM     19  C   LIG A   1      -2.526   4.757 132.064  0.00  0.00    +0.307 C 
ATOM     20  O   LIG A   1      -1.807   5.552 131.449  0.00  0.00    -0.251 OA
BRANCH  19  21
ATOM     21  C   LIG A   1      -1.943   3.597 132.854  0.00  0.00    +0.120 C 
BRANCH  21  22
ATOM     22  C   LIG A   1      -3.104   2.792 133.476  0.00  0.00    +0.008 C 
ATOM     23  C   LIG A   1      -3.014   1.301 133.235  0.00  0.00    +0.004 C 
ENDBRANCH  21  22
ENDBRANCH  19  21
ENDBRANCH  18  19
ENDBRANCH   3  18
BRANCH   4  24
ATOM     24  O   LIG A   1      -4.516   4.918 128.549  0.00  0.00    -0.457 OA
BRANCH  24  25
ATOM     25  C   LIG A   1      -3.191   4.935 128.173  0.00  0.00    +0.304 C 
ATOM     26  C   LIG A   1      -2.652   6.324 128.041  0.00  0.00    +0.136 C 
ATOM     27  O   LIG A   1      -2.498   3.940 127.991  0.00  0.00    -0.251 OA
ENDBRANCH  24  25
ENDBRANCH   4  24
BRANCH   7  28
ATOM     28  O   LIG A   1      -6.020   0.009 130.082  0.00  0.00    -0.431 OA
BRANCH  28  29
ATOM     29  C   LIG A   1      -5.387  -1.153 129.791  0.00  0.00    +0.306 C 
ATOM     30  C   LIG A   1      -4.207  -1.354 130.696  0.00  0.00    +0.136 C 
ATOM     31  O   LIG A   1      -5.711  -1.947 128.916  0.00  0.00    -0.251 OA
ENDBRANCH  28  29
ENDBRANCH   7  28
BRANCH   9  32
ATOM     32  O   LIG A   1      -6.402   3.380 127.451  0.00  0.00    -0.434 OA
BRANCH  32  33
ATOM     33  C   LIG A   1      -7.647   3.437 126.890  0.00  0.00    +0.306 C 
ATOM     34  C   LIG A   1      -7.774   4.555 125.893  0.00  0.00    +0.136 C 
ATOM     35  O   LIG A   1      -8.590   2.702 127.162  0.00  0.00    -0.251 OA
ENDBRANCH  32  33
ENDBRANCH   9  32
BRANCH  14  36
ATOM     36  C   LIG A   1      -8.099   6.869 130.469  0.00  0.00    +0.034 C 
BRANCH  36  37
ATOM     37  C   LIG A   1      -9.546   6.868 130.902  0.00  0.00    -0.023 C 
ATOM     38  C   LIG A   1     -10.644   7.055 130.146  0.00  0.00    -0.055 C 
ATOM     39  C   LIG A   1     -12.008   7.085 130.791  0.00  0.00    +0.043 C 
BRANCH  38  40
ATOM     40  C   LIG A   1     -10.662   7.250 128.710  0.00  0.00    -0.005 C 
ATOM     41  C   LIG A   1     -10.592   8.439 128.099  0.00  0.00    +0.008 C 
ENDBRANCH  38  40
ENDBRANCH  36  37
ENDBRANCH  14  36
TORSDOF 14
ENDMDL
