MODEL 1
REMARK VINA RESULT:      -9.5      0.000      0.000
REMARK  Name = NuBBE_1485
REMARK  6 active torsions:
REMARK  status: ('A' for Active; 'I' for Inactive)
REMARK    1  A    between atoms: C_1  and  C_2
REMARK    2  A    between atoms: C_2  and  C_4
REMARK    3  A    between atoms: C_9  and  C_10
REMARK    4  A    between atoms: C_16  and  O_17
REMARK    5  A    between atoms: N_20  and  C_21
REMARK    6  A    between atoms: C_23  and  O_24
REMARK                            x       y       z     vdW  Elec       q    Type
REMARK                         _______ _______ _______ _____ _____    ______ ____
ROOT
ATOM      1  C   LIG A   1      -9.003  -0.654 123.621  0.00  0.00    +0.060 C 
ATOM      2  C   LIG A   1      -7.470  -0.647 123.582  0.00  0.00    +0.123 C 
ATOM      3  O   LIG A   1      -7.046   0.664 123.171  0.00  0.00    -0.481 OA
ATOM      4  C   LIG A   1      -6.980  -1.602 122.486  0.00  0.00    +0.060 C 
ATOM      5  C   LIG A   1      -6.913  -1.084 124.910  0.00  0.00    +0.020 C 
ATOM      6  C   LIG A   1      -6.375  -0.224 125.780  0.00  0.00    +0.013 C 
ATOM      7  C   LIG A   1      -6.356   1.201 125.443  0.00  0.00    +0.042 A 
ATOM      8  C   LIG A   1      -6.675   1.581 124.126  0.00  0.00    +0.142 A 
ATOM      9  C   LIG A   1      -6.576   2.926 123.697  0.00  0.00    +0.067 A 
ATOM     10  C   LIG A   1      -6.129   3.881 124.629  0.00  0.00    +0.141 A 
ATOM     11  C   LIG A   1      -5.811   3.514 125.948  0.00  0.00    +0.088 A 
ATOM     12  C   LIG A   1      -5.963   2.183 126.383  0.00  0.00    +0.067 A 
ATOM     13  N   LIG A   1      -5.711   1.843 127.762  0.00  0.00    -0.339 N 
ATOM     14  C   LIG A   1      -7.029   1.648 128.432  0.00  0.00    +0.149 C 
ATOM     15  C   LIG A   1      -4.941   2.736 128.573  0.00  0.00    +0.095 A 
ATOM     16  C   LIG A   1      -4.348   2.298 129.767  0.00  0.00    +0.141 A 
ATOM     17  C   LIG A   1      -3.653   3.170 130.600  0.00  0.00    +0.047 A 
ATOM     18  C   LIG A   1      -3.512   4.507 130.232  0.00  0.00    +0.004 A 
ATOM     19  C   LIG A   1      -4.052   4.959 129.025  0.00  0.00    +0.014 A 
ATOM     20  C   LIG A   1      -4.749   4.070 128.198  0.00  0.00    +0.050 A 
ATOM     21  C   LIG A   1      -5.290   4.521 126.904  0.00  0.00    +0.201 A 
ATOM     22  O   LIG A   1      -5.277   5.711 126.600  0.00  0.00    -0.286 OA
ENDROOT
BRANCH   9  23
ATOM     23  C   LIG A   1      -6.922   3.310 122.311  0.00  0.00    -0.011 A 
ATOM     24  C   LIG A   1      -8.261   3.424 121.904  0.00  0.00    +0.009 A 
ATOM     25  C   LIG A   1      -8.587   3.795 120.596  0.00  0.00    +0.001 A 
ATOM     26  C   LIG A   1      -7.577   4.058 119.675  0.00  0.00    +0.000 A 
ATOM     27  C   LIG A   1      -6.242   3.949 120.057  0.00  0.00    +0.001 A 
ATOM     28  C   LIG A   1      -5.918   3.578 121.365  0.00  0.00    +0.009 A 
ENDBRANCH   9  23
BRANCH  10  29
ATOM     29  O   LIG A   1      -6.018   5.189 124.209  0.00  0.00    -0.505 OA
ATOM     30  H   LIG A   1      -6.884   5.637 124.337  0.00  0.00    +0.292 HD
ENDBRANCH  10  29
BRANCH  16  31
ATOM     31  O   LIG A   1      -4.403   0.979 130.125  0.00  0.00    -0.505 OA
ATOM     32  H   LIG A   1      -3.483   0.658 130.070  0.00  0.00    +0.292 HD
ENDBRANCH  16  31
TORSDOF 3
ENDMDL
MODEL 2
REMARK VINA RESULT:      -9.0      3.977      8.205
REMARK  Name = NuBBE_1485
REMARK  6 active torsions:
REMARK  status: ('A' for Active; 'I' for Inactive)
REMARK    1  A    between atoms: C_1  and  C_2
REMARK    2  A    between atoms: C_2  and  C_4
REMARK    3  A    between atoms: C_9  and  C_10
REMARK    4  A    between atoms: C_16  and  O_17
REMARK    5  A    between atoms: N_20  and  C_21
REMARK    6  A    between atoms: C_23  and  O_24
REMARK                            x       y       z     vdW  Elec       q    Type
REMARK                         _______ _______ _______ _____ _____    ______ ____
ROOT
ATOM      1  C   LIG A   1      -5.364  -2.083 131.941  0.00  0.00    +0.060 C 
ATOM      2  C   LIG A   1      -6.833  -2.405 131.639  0.00  0.00    +0.123 C 
ATOM      3  O   LIG A   1      -7.513  -1.162 131.394  0.00  0.00    -0.481 OA
ATOM      4  C   LIG A   1      -7.496  -3.000 132.887  0.00  0.00    +0.060 C 
ATOM      5  C   LIG A   1      -6.927  -3.391 130.505  0.00  0.00    +0.020 C 
ATOM      6  C   LIG A   1      -7.294  -3.031 129.271  0.00  0.00    +0.013 C 
ATOM      7  C   LIG A   1      -7.583  -1.621 129.004  0.00  0.00    +0.042 A 
ATOM      8  C   LIG A   1      -7.704  -0.743 130.098  0.00  0.00    +0.142 A 
ATOM      9  C   LIG A   1      -8.086   0.608 129.927  0.00  0.00    +0.067 A 
ATOM     10  C   LIG A   1      -8.361   1.052 128.620  0.00  0.00    +0.141 A 
ATOM     11  C   LIG A   1      -8.239   0.187 127.519  0.00  0.00    +0.088 A 
ATOM     12  C   LIG A   1      -7.807  -1.143 127.691  0.00  0.00    +0.067 A 
ATOM     13  N   LIG A   1      -7.609  -1.991 126.541  0.00  0.00    -0.339 N 
ATOM     14  C   LIG A   1      -6.141  -2.108 126.307  0.00  0.00    +0.149 C 
ATOM     15  C   LIG A   1      -8.217  -1.632 125.295  0.00  0.00    +0.095 A 
ATOM     16  C   LIG A   1      -8.385  -2.580 124.274  0.00  0.00    +0.141 A 
ATOM     17  C   LIG A   1      -8.913  -2.233 123.034  0.00  0.00    +0.047 A 
ATOM     18  C   LIG A   1      -9.316  -0.918 122.803  0.00  0.00    +0.004 A 
ATOM     19  C   LIG A   1      -9.205   0.034 123.818  0.00  0.00    +0.014 A 
ATOM     20  C   LIG A   1      -8.671  -0.331 125.060  0.00  0.00    +0.050 A 
ATOM     21  C   LIG A   1      -8.583   0.653 126.153  0.00  0.00    +0.201 A 
ATOM     22  O   LIG A   1      -8.829   1.839 125.951  0.00  0.00    -0.286 OA
ENDROOT
BRANCH   9  23
ATOM     23  C   LIG A   1      -8.202   1.518 131.087  0.00  0.00    -0.011 A 
ATOM     24  C   LIG A   1      -9.417   1.661 131.776  0.00  0.00    +0.009 A 
ATOM     25  C   LIG A   1      -9.524   2.516 132.877  0.00  0.00    +0.001 A 
ATOM     26  C   LIG A   1      -8.415   3.240 133.307  0.00  0.00    +0.000 A 
ATOM     27  C   LIG A   1      -7.201   3.114 132.636  0.00  0.00    +0.001 A 
ATOM     28  C   LIG A   1      -7.096   2.260 131.536  0.00  0.00    +0.009 A 
ENDBRANCH   9  23
BRANCH  10  29
ATOM     29  O   LIG A   1      -8.746   2.364 128.452  0.00  0.00    -0.505 OA
ATOM     30  H   LIG A   1      -9.437   2.579 129.119  0.00  0.00    +0.292 HD
ENDBRANCH  10  29
BRANCH  16  31
ATOM     31  O   LIG A   1      -8.068  -3.894 124.489  0.00  0.00    -0.505 OA
ATOM     32  H   LIG A   1      -8.441  -4.377 123.728  0.00  0.00    +0.292 HD
ENDBRANCH  16  31
TORSDOF 3
ENDMDL
MODEL 3
REMARK VINA RESULT:      -8.9      2.342      5.413
REMARK  Name = NuBBE_1485
REMARK  6 active torsions:
REMARK  status: ('A' for Active; 'I' for Inactive)
REMARK    1  A    between atoms: C_1  and  C_2
REMARK    2  A    between atoms: C_2  and  C_4
REMARK    3  A    between atoms: C_9  and  C_10
REMARK    4  A    between atoms: C_16  and  O_17
REMARK    5  A    between atoms: N_20  and  C_21
REMARK    6  A    between atoms: C_23  and  O_24
REMARK                            x       y       z     vdW  Elec       q    Type
REMARK                         _______ _______ _______ _____ _____    ______ ____
ROOT
ATOM      1  C   LIG A   1      -3.737   3.847 125.464  0.00  0.00    +0.060 C 
ATOM      2  C   LIG A   1      -5.160   3.979 126.020  0.00  0.00    +0.123 C 
ATOM      3  O   LIG A   1      -6.070   3.490 125.020  0.00  0.00    -0.481 OA
ATOM      4  C   LIG A   1      -5.504   5.461 126.204  0.00  0.00    +0.060 C 
ATOM      5  C   LIG A   1      -5.268   3.273 127.346  0.00  0.00    +0.020 C 
ATOM      6  C   LIG A   1      -5.883   2.095 127.483  0.00  0.00    +0.013 C 
ATOM      7  C   LIG A   1      -6.444   1.450 126.294  0.00  0.00    +0.042 A 
ATOM      8  C   LIG A   1      -6.534   2.198 125.105  0.00  0.00    +0.142 A 
ATOM      9  C   LIG A   1      -7.159   1.680 123.947  0.00  0.00    +0.067 A 
ATOM     10  C   LIG A   1      -7.711   0.387 124.021  0.00  0.00    +0.141 A 
ATOM     11  C   LIG A   1      -7.625  -0.372 125.201  0.00  0.00    +0.088 A 
ATOM     12  C   LIG A   1      -6.953   0.130 126.334  0.00  0.00    +0.067 A 
ATOM     13  N   LIG A   1      -6.803  -0.697 127.506  0.00  0.00    -0.339 N 
ATOM     14  C   LIG A   1      -5.392  -1.180 127.547  0.00  0.00    +0.149 C 
ATOM     15  C   LIG A   1      -7.655  -1.835 127.673  0.00  0.00    +0.095 A 
ATOM     16  C   LIG A   1      -7.822  -2.434 128.931  0.00  0.00    +0.141 A 
ATOM     17  C   LIG A   1      -8.593  -3.581 129.098  0.00  0.00    +0.047 A 
ATOM     18  C   LIG A   1      -9.244  -4.138 127.997  0.00  0.00    +0.004 A 
ATOM     19  C   LIG A   1      -9.132  -3.535 126.743  0.00  0.00    +0.014 A 
ATOM     20  C   LIG A   1      -8.352  -2.382 126.591  0.00  0.00    +0.050 A 
ATOM     21  C   LIG A   1      -8.256  -1.711 125.283  0.00  0.00    +0.201 A 
ATOM     22  O   LIG A   1      -8.727  -2.232 124.275  0.00  0.00    -0.286 OA
ENDROOT
BRANCH   9  23
ATOM     23  C   LIG A   1      -7.239   2.478 122.704  0.00  0.00    -0.011 A 
ATOM     24  C   LIG A   1      -6.096   2.722 121.926  0.00  0.00    +0.009 A 
ATOM     25  C   LIG A   1      -6.174   3.469 120.748  0.00  0.00    +0.001 A 
ATOM     26  C   LIG A   1      -7.398   3.983 120.328  0.00  0.00    +0.000 A 
ATOM     27  C   LIG A   1      -8.544   3.754 121.085  0.00  0.00    +0.001 A 
ATOM     28  C   LIG A   1      -8.464   3.007 122.264  0.00  0.00    +0.009 A 
ENDBRANCH   9  23
BRANCH  10  29
ATOM     29  O   LIG A   1      -8.333  -0.114 122.899  0.00  0.00    -0.505 OA
ATOM     30  H   LIG A   1      -9.263  -0.338 123.126  0.00  0.00    +0.292 HD
ENDBRANCH  10  29
BRANCH  16  31
ATOM     31  O   LIG A   1      -7.259  -1.874 130.045  0.00  0.00    -0.505 OA
ATOM     32  H   LIG A   1      -7.074  -0.947 129.802  0.00  0.00    +0.292 HD
ENDBRANCH  16  31
TORSDOF 3
ENDMDL
MODEL 4
REMARK VINA RESULT:      -8.3      2.549      7.668
REMARK  Name = NuBBE_1485
REMARK  6 active torsions:
REMARK  status: ('A' for Active; 'I' for Inactive)
REMARK    1  A    between atoms: C_1  and  C_2
REMARK    2  A    between atoms: C_2  and  C_4
REMARK    3  A    between atoms: C_9  and  C_10
REMARK    4  A    between atoms: C_16  and  O_17
REMARK    5  A    between atoms: N_20  and  C_21
REMARK    6  A    between atoms: C_23  and  O_24
REMARK                            x       y       z     vdW  Elec       q    Type
REMARK                         _______ _______ _______ _____ _____    ______ ____
ROOT
ATOM      1  C   LIG A   1      -7.225   3.055 132.366  0.00  0.00    +0.060 C 
ATOM      2  C   LIG A   1      -7.761   4.244 131.561  0.00  0.00    +0.123 C 
ATOM      3  O   LIG A   1      -6.642   4.886 130.925  0.00  0.00    -0.481 OA
ATOM      4  C   LIG A   1      -8.348   5.289 132.517  0.00  0.00    +0.060 C 
ATOM      5  C   LIG A   1      -8.831   3.786 130.605  0.00  0.00    +0.020 C 
ATOM      6  C   LIG A   1      -8.614   3.664 129.292  0.00  0.00    +0.013 C 
ATOM      7  C   LIG A   1      -7.279   3.955 128.767  0.00  0.00    +0.042 A 
ATOM      8  C   LIG A   1      -6.348   4.584 129.616  0.00  0.00    +0.142 A 
ATOM      9  C   LIG A   1      -5.077   4.993 129.150  0.00  0.00    +0.067 A 
ATOM     10  C   LIG A   1      -4.769   4.766 127.795  0.00  0.00    +0.141 A 
ATOM     11  C   LIG A   1      -5.688   4.135 126.939  0.00  0.00    +0.088 A 
ATOM     12  C   LIG A   1      -6.931   3.683 127.422  0.00  0.00    +0.067 A 
ATOM     13  N   LIG A   1      -7.826   2.964 126.549  0.00  0.00    -0.339 N 
ATOM     14  C   LIG A   1      -7.762   1.520 126.916  0.00  0.00    +0.149 C 
ATOM     15  C   LIG A   1      -7.644   3.058 125.132  0.00  0.00    +0.095 A 
ATOM     16  C   LIG A   1      -8.677   2.714 124.246  0.00  0.00    +0.141 A 
ATOM     17  C   LIG A   1      -8.495   2.736 122.866  0.00  0.00    +0.047 A 
ATOM     18  C   LIG A   1      -7.267   3.137 122.342  0.00  0.00    +0.004 A 
ATOM     19  C   LIG A   1      -6.237   3.529 123.199  0.00  0.00    +0.014 A 
ATOM     20  C   LIG A   1      -6.435   3.501 124.585  0.00  0.00    +0.050 A 
ATOM     21  C   LIG A   1      -5.372   3.949 125.502  0.00  0.00    +0.201 A 
ATOM     22  O   LIG A   1      -4.247   4.206 125.080  0.00  0.00    -0.286 OA
ENDROOT
BRANCH   9  23
ATOM     23  C   LIG A   1      -4.108   5.646 130.057  0.00  0.00    -0.011 A 
ATOM     24  C   LIG A   1      -3.108   4.904 130.706  0.00  0.00    +0.009 A 
ATOM     25  C   LIG A   1      -2.189   5.524 131.556  0.00  0.00    +0.001 A 
ATOM     26  C   LIG A   1      -2.254   6.898 131.771  0.00  0.00    +0.000 A 
ATOM     27  C   LIG A   1      -3.239   7.653 131.138  0.00  0.00    +0.001 A 
ATOM     28  C   LIG A   1      -4.158   7.032 130.288  0.00  0.00    +0.009 A 
ENDBRANCH   9  23
BRANCH  10  29
ATOM     29  O   LIG A   1      -3.537   5.175 127.336  0.00  0.00    -0.505 OA
ATOM     30  H   LIG A   1      -3.668   5.768 126.563  0.00  0.00    +0.292 HD
ENDBRANCH  10  29
BRANCH  16  31
ATOM     31  O   LIG A   1      -9.917   2.386 124.723  0.00  0.00    -0.505 OA
ATOM     32  H   LIG A   1      -9.978   2.813 125.598  0.00  0.00    +0.292 HD
ENDBRANCH  16  31
TORSDOF 3
ENDMDL
MODEL 5
REMARK VINA RESULT:      -8.3      3.996      6.880
REMARK  Name = NuBBE_1485
REMARK  6 active torsions:
REMARK  status: ('A' for Active; 'I' for Inactive)
REMARK    1  A    between atoms: C_1  and  C_2
REMARK    2  A    between atoms: C_2  and  C_4
REMARK    3  A    between atoms: C_9  and  C_10
REMARK    4  A    between atoms: C_16  and  O_17
REMARK    5  A    between atoms: N_20  and  C_21
REMARK    6  A    between atoms: C_23  and  O_24
REMARK                            x       y       z     vdW  Elec       q    Type
REMARK                         _______ _______ _______ _____ _____    ______ ____
ROOT
ATOM      1  C   LIG A   1      -6.977  -1.141 125.264  0.00  0.00    +0.060 C 
ATOM      2  C   LIG A   1      -8.186  -1.085 126.206  0.00  0.00    +0.123 C 
ATOM      3  O   LIG A   1      -7.712  -1.308 127.545  0.00  0.00    -0.481 OA
ATOM      4  C   LIG A   1      -9.129  -2.254 125.901  0.00  0.00    +0.060 C 
ATOM      5  C   LIG A   1      -8.926   0.214 126.025  0.00  0.00    +0.020 C 
ATOM      6  C   LIG A   1      -8.848   1.213 126.910  0.00  0.00    +0.013 C 
ATOM      7  C   LIG A   1      -7.987   1.050 128.083  0.00  0.00    +0.042 A 
ATOM      8  C   LIG A   1      -7.469  -0.229 128.362  0.00  0.00    +0.142 A 
ATOM      9  C   LIG A   1      -6.718  -0.487 129.532  0.00  0.00    +0.067 A 
ATOM     10  C   LIG A   1      -6.512   0.579 130.429  0.00  0.00    +0.141 A 
ATOM     11  C   LIG A   1      -7.020   1.862 130.159  0.00  0.00    +0.088 A 
ATOM     12  C   LIG A   1      -7.721   2.124 128.966  0.00  0.00    +0.067 A 
ATOM     13  N   LIG A   1      -8.162   3.464 128.669  0.00  0.00    -0.339 N 
ATOM     14  C   LIG A   1      -7.253   4.024 127.628  0.00  0.00    +0.149 C 
ATOM     15  C   LIG A   1      -8.247   4.423 129.729  0.00  0.00    +0.095 A 
ATOM     16  C   LIG A   1      -9.013   5.591 129.588  0.00  0.00    +0.141 A 
ATOM     17  C   LIG A   1      -9.052   6.564 130.582  0.00  0.00    +0.047 A 
ATOM     18  C   LIG A   1      -8.339   6.368 131.764  0.00  0.00    +0.004 A 
ATOM     19  C   LIG A   1      -7.607   5.193 131.950  0.00  0.00    +0.014 A 
ATOM     20  C   LIG A   1      -7.577   4.224 130.940  0.00  0.00    +0.050 A 
ATOM     21  C   LIG A   1      -6.842   2.962 131.137  0.00  0.00    +0.201 A 
ATOM     22  O   LIG A   1      -6.119   2.804 132.118  0.00  0.00    -0.286 OA
ENDROOT
BRANCH   9  23
ATOM     23  C   LIG A   1      -6.176  -1.835 129.807  0.00  0.00    -0.011 A 
ATOM     24  C   LIG A   1      -4.915  -2.222 129.325  0.00  0.00    +0.009 A 
ATOM     25  C   LIG A   1      -4.401  -3.493 129.592  0.00  0.00    +0.001 A 
ATOM     26  C   LIG A   1      -5.140  -4.400 130.347  0.00  0.00    +0.000 A 
ATOM     27  C   LIG A   1      -6.394  -4.038 130.834  0.00  0.00    +0.001 A 
ATOM     28  C   LIG A   1      -6.907  -2.766 130.565  0.00  0.00    +0.009 A 
ENDBRANCH   9  23
BRANCH  10  29
ATOM     29  O   LIG A   1      -5.793   0.327 131.576  0.00  0.00    -0.505 OA
ATOM     30  H   LIG A   1      -5.496  -0.611 131.564  0.00  0.00    +0.292 HD
ENDBRANCH  10  29
BRANCH  16  31
ATOM     31  O   LIG A   1      -9.782   5.783 128.473  0.00  0.00    -0.505 OA
ATOM     32  H   LIG A   1      -9.266   6.387 127.905  0.00  0.00    +0.292 HD
ENDBRANCH  16  31
TORSDOF 3
ENDMDL
MODEL 6
REMARK VINA RESULT:      -8.2      2.979      5.667
REMARK  Name = NuBBE_1485
REMARK  6 active torsions:
REMARK  status: ('A' for Active; 'I' for Inactive)
REMARK    1  A    between atoms: C_1  and  C_2
REMARK    2  A    between atoms: C_2  and  C_4
REMARK    3  A    between atoms: C_9  and  C_10
REMARK    4  A    between atoms: C_16  and  O_17
REMARK    5  A    between atoms: N_20  and  C_21
REMARK    6  A    between atoms: C_23  and  O_24
REMARK                            x       y       z     vdW  Elec       q    Type
REMARK                         _______ _______ _______ _____ _____    ______ ____
ROOT
ATOM      1  C   LIG A   1      -6.388   2.508 123.667  0.00  0.00    +0.060 C 
ATOM      2  C   LIG A   1      -7.851   2.450 124.121  0.00  0.00    +0.123 C 
ATOM      3  O   LIG A   1      -8.051   1.199 124.803  0.00  0.00    -0.481 OA
ATOM      4  C   LIG A   1      -8.769   2.403 122.894  0.00  0.00    +0.060 C 
ATOM      5  C   LIG A   1      -8.187   3.661 124.950  0.00  0.00    +0.020 C 
ATOM      6  C   LIG A   1      -8.316   3.607 126.279  0.00  0.00    +0.013 C 
ATOM      7  C   LIG A   1      -8.091   2.330 126.958  0.00  0.00    +0.042 A 
ATOM      8  C   LIG A   1      -7.990   1.164 126.176  0.00  0.00    +0.142 A 
ATOM      9  C   LIG A   1      -7.879  -0.118 126.764  0.00  0.00    +0.067 A 
ATOM     10  C   LIG A   1      -7.888  -0.198 128.170  0.00  0.00    +0.141 A 
ATOM     11  C   LIG A   1      -7.983   0.959 128.962  0.00  0.00    +0.088 A 
ATOM     12  C   LIG A   1      -8.039   2.236 128.370  0.00  0.00    +0.067 A 
ATOM     13  N   LIG A   1      -8.053   3.415 129.200  0.00  0.00    -0.339 N 
ATOM     14  C   LIG A   1      -6.697   4.034 129.136  0.00  0.00    +0.149 C 
ATOM     15  C   LIG A   1      -8.408   3.293 130.581  0.00  0.00    +0.095 A 
ATOM     16  C   LIG A   1      -8.808   4.414 131.326  0.00  0.00    +0.141 A 
ATOM     17  C   LIG A   1      -9.092   4.324 132.686  0.00  0.00    +0.047 A 
ATOM     18  C   LIG A   1      -9.009   3.087 133.325  0.00  0.00    +0.004 A 
ATOM     19  C   LIG A   1      -8.659   1.948 132.597  0.00  0.00    +0.014 A 
ATOM     20  C   LIG A   1      -8.375   2.055 131.230  0.00  0.00    +0.050 A 
ATOM     21  C   LIG A   1      -8.044   0.856 130.440  0.00  0.00    +0.201 A 
ATOM     22  O   LIG A   1      -7.858  -0.226 130.991  0.00  0.00    -0.286 OA
ENDROOT
BRANCH   9  23
ATOM     23  C   LIG A   1      -7.768  -1.332 125.927  0.00  0.00    -0.011 A 
ATOM     24  C   LIG A   1      -6.521  -1.779 125.461  0.00  0.00    +0.009 A 
ATOM     25  C   LIG A   1      -6.417  -2.931 124.677  0.00  0.00    +0.001 A 
ATOM     26  C   LIG A   1      -7.559  -3.656 124.347  0.00  0.00    +0.000 A 
ATOM     27  C   LIG A   1      -8.806  -3.229 124.799  0.00  0.00    +0.001 A 
ATOM     28  C   LIG A   1      -8.909  -2.077 125.582  0.00  0.00    +0.009 A 
ENDBRANCH   9  23
BRANCH  10  29
ATOM     29  O   LIG A   1      -7.793  -1.446 128.745  0.00  0.00    -0.505 OA
ATOM     30  H   LIG A   1      -8.671  -1.692 129.114  0.00  0.00    +0.292 HD
ENDBRANCH  10  29
BRANCH  16  31
ATOM     31  O   LIG A   1      -8.971   5.628 130.717  0.00  0.00    -0.505 OA
ATOM     32  H   LIG A   1      -9.369   6.205 131.396  0.00  0.00    +0.292 HD
ENDBRANCH  16  31
TORSDOF 3
ENDMDL
MODEL 7
REMARK VINA RESULT:      -8.2      1.842      4.660
REMARK  Name = NuBBE_1485
REMARK  6 active torsions:
REMARK  status: ('A' for Active; 'I' for Inactive)
REMARK    1  A    between atoms: C_1  and  C_2
REMARK    2  A    between atoms: C_2  and  C_4
REMARK    3  A    between atoms: C_9  and  C_10
REMARK    4  A    between atoms: C_16  and  O_17
REMARK    5  A    between atoms: N_20  and  C_21
REMARK    6  A    between atoms: C_23  and  O_24
REMARK                            x       y       z     vdW  Elec       q    Type
REMARK                         _______ _______ _______ _____ _____    ______ ____
ROOT
ATOM      1  C   LIG A   1      -6.392   2.404 122.388  0.00  0.00    +0.060 C 
ATOM      2  C   LIG A   1      -7.423   2.492 123.519  0.00  0.00    +0.123 C 
ATOM      3  O   LIG A   1      -7.254   1.338 124.360  0.00  0.00    -0.481 OA
ATOM      4  C   LIG A   1      -8.836   2.375 122.936  0.00  0.00    +0.060 C 
ATOM      5  C   LIG A   1      -7.290   3.805 124.245  0.00  0.00    +0.020 C 
ATOM      6  C   LIG A   1      -6.729   3.902 125.453  0.00  0.00    +0.013 C 
ATOM      7  C   LIG A   1      -6.193   2.694 126.082  0.00  0.00    +0.042 A 
ATOM      8  C   LIG A   1      -6.506   1.446 125.509  0.00  0.00    +0.142 A 
ATOM      9  C   LIG A   1      -6.115   0.231 126.118  0.00  0.00    +0.067 A 
ATOM     10  C   LIG A   1      -5.411   0.302 127.334  0.00  0.00    +0.141 A 
ATOM     11  C   LIG A   1      -5.089   1.541 127.914  0.00  0.00    +0.088 A 
ATOM     12  C   LIG A   1      -5.435   2.748 127.275  0.00  0.00    +0.067 A 
ATOM     13  N   LIG A   1      -5.023   4.008 127.844  0.00  0.00    -0.339 N 
ATOM     14  C   LIG A   1      -3.885   4.526 127.031  0.00  0.00    +0.149 C 
ATOM     15  C   LIG A   1      -4.630   4.059 129.220  0.00  0.00    +0.095 A 
ATOM     16  C   LIG A   1      -4.595   5.276 129.917  0.00  0.00    +0.141 A 
ATOM     17  C   LIG A   1      -4.151   5.352 131.234  0.00  0.00    +0.047 A 
ATOM     18  C   LIG A   1      -3.759   4.189 131.895  0.00  0.00    +0.004 A 
ATOM     19  C   LIG A   1      -3.828   2.957 131.240  0.00  0.00    +0.014 A 
ATOM     20  C   LIG A   1      -4.276   2.898 129.914  0.00  0.00    +0.050 A 
ATOM     21  C   LIG A   1      -4.393   1.602 129.223  0.00  0.00    +0.201 A 
ATOM     22  O   LIG A   1      -3.957   0.575 129.737  0.00  0.00    -0.286 OA
ENDROOT
BRANCH   9  23
ATOM     23  C   LIG A   1      -6.446  -1.071 125.499  0.00  0.00    -0.011 A 
ATOM     24  C   LIG A   1      -7.655  -1.724 125.788  0.00  0.00    +0.009 A 
ATOM     25  C   LIG A   1      -7.971  -2.950 125.197  0.00  0.00    +0.001 A 
ATOM     26  C   LIG A   1      -7.082  -3.543 124.304  0.00  0.00    +0.000 A 
ATOM     27  C   LIG A   1      -5.876  -2.913 124.003  0.00  0.00    +0.001 A 
ATOM     28  C   LIG A   1      -5.562  -1.687 124.596  0.00  0.00    +0.009 A 
ENDBRANCH   9  23
BRANCH  10  29
ATOM     29  O   LIG A   1      -5.041  -0.881 127.936  0.00  0.00    -0.505 OA
ATOM     30  H   LIG A   1      -5.378  -0.885 128.860  0.00  0.00    +0.292 HD
ENDBRANCH  10  29
BRANCH  16  31
ATOM     31  O   LIG A   1      -5.041   6.426 129.325  0.00  0.00    -0.505 OA
ATOM     32  H   LIG A   1      -5.901   6.194 128.926  0.00  0.00    +0.292 HD
ENDBRANCH  16  31
TORSDOF 3
ENDMDL
MODEL 8
REMARK VINA RESULT:      -8.2      3.359      4.120
REMARK  Name = NuBBE_1485
REMARK  6 active torsions:
REMARK  status: ('A' for Active; 'I' for Inactive)
REMARK    1  A    between atoms: C_1  and  C_2
REMARK    2  A    between atoms: C_2  and  C_4
REMARK    3  A    between atoms: C_9  and  C_10
REMARK    4  A    between atoms: C_16  and  O_17
REMARK    5  A    between atoms: N_20  and  C_21
REMARK    6  A    between atoms: C_23  and  O_24
REMARK                            x       y       z     vdW  Elec       q    Type
REMARK                         _______ _______ _______ _____ _____    ______ ____
ROOT
ATOM      1  C   LIG A   1      -8.280  -1.487 126.709  0.00  0.00    +0.060 C 
ATOM      2  C   LIG A   1      -7.001  -0.794 127.194  0.00  0.00    +0.123 C 
ATOM      3  O   LIG A   1      -7.004   0.548 126.676  0.00  0.00    -0.481 OA
ATOM      4  C   LIG A   1      -5.778  -1.476 126.569  0.00  0.00    +0.060 C 
ATOM      5  C   LIG A   1      -6.904  -0.872 128.695  0.00  0.00    +0.020 C 
ATOM      6  C   LIG A   1      -7.150   0.177 129.485  0.00  0.00    +0.013 C 
ATOM      7  C   LIG A   1      -7.561   1.441 128.871  0.00  0.00    +0.042 A 
ATOM      8  C   LIG A   1      -7.444   1.576 127.475  0.00  0.00    +0.142 A 
ATOM      9  C   LIG A   1      -7.721   2.801 126.822  0.00  0.00    +0.067 A 
ATOM     10  C   LIG A   1      -8.104   3.897 127.617  0.00  0.00    +0.141 A 
ATOM     11  C   LIG A   1      -8.228   3.773 129.012  0.00  0.00    +0.088 A 
ATOM     12  C   LIG A   1      -8.003   2.537 129.649  0.00  0.00    +0.067 A 
ATOM     13  N   LIG A   1      -8.217   2.410 131.070  0.00  0.00    -0.339 N 
ATOM     14  C   LIG A   1      -9.498   1.675 131.276  0.00  0.00    +0.149 C 
ATOM     15  C   LIG A   1      -8.260   3.591 131.878  0.00  0.00    +0.095 A 
ATOM     16  C   LIG A   1      -8.079   3.522 133.268  0.00  0.00    +0.141 A 
ATOM     17  C   LIG A   1      -8.185   4.650 134.077  0.00  0.00    +0.047 A 
ATOM     18  C   LIG A   1      -8.448   5.890 133.494  0.00  0.00    +0.004 A 
ATOM     19  C   LIG A   1      -8.587   5.994 132.109  0.00  0.00    +0.014 A 
ATOM     20  C   LIG A   1      -8.478   4.850 131.309  0.00  0.00    +0.050 A 
ATOM     21  C   LIG A   1      -8.581   4.950 129.843  0.00  0.00    +0.201 A 
ATOM     22  O   LIG A   1      -8.918   6.003 129.308  0.00  0.00    -0.286 OA
ENDROOT
BRANCH   9  23
ATOM     23  C   LIG A   1      -7.599   2.924 125.353  0.00  0.00    -0.011 A 
ATOM     24  C   LIG A   1      -8.691   2.656 124.511  0.00  0.00    +0.009 A 
ATOM     25  C   LIG A   1      -8.577   2.781 123.124  0.00  0.00    +0.001 A 
ATOM     26  C   LIG A   1      -7.369   3.177 122.556  0.00  0.00    +0.000 A 
ATOM     27  C   LIG A   1      -6.274   3.446 123.373  0.00  0.00    +0.001 A 
ATOM     28  C   LIG A   1      -6.389   3.321 124.760  0.00  0.00    +0.009 A 
ENDBRANCH   9  23
BRANCH  10  29
ATOM     29  O   LIG A   1      -8.360   5.094 126.985  0.00  0.00    -0.505 OA
ATOM     30  H   LIG A   1      -7.550   5.378 126.505  0.00  0.00    +0.292 HD
ENDBRANCH  10  29
BRANCH  16  31
ATOM     31  O   LIG A   1      -7.748   2.336 133.865  0.00  0.00    -0.505 OA
ATOM     32  H   LIG A   1      -7.341   1.798 133.160  0.00  0.00    +0.292 HD
ENDBRANCH  16  31
TORSDOF 3
ENDMDL
MODEL 9
REMARK VINA RESULT:      -8.2      3.564      5.232
REMARK  Name = NuBBE_1485
REMARK  6 active torsions:
REMARK  status: ('A' for Active; 'I' for Inactive)
REMARK    1  A    between atoms: C_1  and  C_2
REMARK    2  A    between atoms: C_2  and  C_4
REMARK    3  A    between atoms: C_9  and  C_10
REMARK    4  A    between atoms: C_16  and  O_17
REMARK    5  A    between atoms: N_20  and  C_21
REMARK    6  A    between atoms: C_23  and  O_24
REMARK                            x       y       z     vdW  Elec       q    Type
REMARK                         _______ _______ _______ _____ _____    ______ ____
ROOT
ATOM      1  C   LIG A   1      -7.265  -2.759 130.580  0.00  0.00    +0.060 C 
ATOM      2  C   LIG A   1      -5.798  -2.662 130.144  0.00  0.00    +0.123 C 
ATOM      3  O   LIG A   1      -5.776  -2.321 128.747  0.00  0.00    -0.481 OA
ATOM      4  C   LIG A   1      -5.140  -4.043 130.243  0.00  0.00    +0.060 C 
ATOM      5  C   LIG A   1      -5.056  -1.691 131.024  0.00  0.00    +0.020 C 
ATOM      6  C   LIG A   1      -4.717  -0.466 130.613  0.00  0.00    +0.013 C 
ATOM      7  C   LIG A   1      -5.108  -0.039 129.268  0.00  0.00    +0.042 A 
ATOM      8  C   LIG A   1      -5.606  -1.008 128.376  0.00  0.00    +0.142 A 
ATOM      9  C   LIG A   1      -5.905  -0.694 127.030  0.00  0.00    +0.067 A 
ATOM     10  C   LIG A   1      -5.674   0.625 126.596  0.00  0.00    +0.141 A 
ATOM     11  C   LIG A   1      -5.182   1.603 127.478  0.00  0.00    +0.088 A 
ATOM     12  C   LIG A   1      -4.936   1.296 128.831  0.00  0.00    +0.067 A 
ATOM     13  N   LIG A   1      -4.511   2.332 129.739  0.00  0.00    -0.339 N 
ATOM     14  C   LIG A   1      -5.678   2.703 130.590  0.00  0.00    +0.149 C 
ATOM     15  C   LIG A   1      -3.961   3.543 129.209  0.00  0.00    +0.095 A 
ATOM     16  C   LIG A   1      -3.193   4.401 130.012  0.00  0.00    +0.141 A 
ATOM     17  C   LIG A   1      -2.707   5.613 129.532  0.00  0.00    +0.047 A 
ATOM     18  C   LIG A   1      -2.961   5.979 128.210  0.00  0.00    +0.004 A 
ATOM     19  C   LIG A   1      -3.682   5.123 127.375  0.00  0.00    +0.014 A 
ATOM     20  C   LIG A   1      -4.164   3.907 127.874  0.00  0.00    +0.050 A 
ATOM     21  C   LIG A   1      -4.892   2.975 126.995  0.00  0.00    +0.201 A 
ATOM     22  O   LIG A   1      -5.224   3.311 125.861  0.00  0.00    -0.286 OA
ENDROOT
BRANCH   9  23
ATOM     23  C   LIG A   1      -6.434  -1.723 126.108  0.00  0.00    -0.011 A 
ATOM     24  C   LIG A   1      -7.800  -2.045 126.089  0.00  0.00    +0.009 A 
ATOM     25  C   LIG A   1      -8.299  -3.012 125.212  0.00  0.00    +0.001 A 
ATOM     26  C   LIG A   1      -7.439  -3.671 124.338  0.00  0.00    +0.000 A 
ATOM     27  C   LIG A   1      -6.080  -3.367 124.341  0.00  0.00    +0.001 A 
ATOM     28  C   LIG A   1      -5.582  -2.401 125.219  0.00  0.00    +0.009 A 
ENDBRANCH   9  23
BRANCH  10  29
ATOM     29  O   LIG A   1      -5.952   0.930 125.282  0.00  0.00    -0.505 OA
ATOM     30  H   LIG A   1      -5.617   0.203 124.711  0.00  0.00    +0.292 HD
ENDBRANCH  10  29
BRANCH  16  31
ATOM     31  O   LIG A   1      -2.863   4.041 131.291  0.00  0.00    -0.505 OA
ATOM     32  H   LIG A   1      -2.388   3.193 131.205  0.00  0.00    +0.292 HD
ENDBRANCH  16  31
TORSDOF 3
ENDMDL
