MODEL 1
REMARK VINA RESULT:      -4.4      0.000      0.000
REMARK  Name = NuBBE_1187
REMARK  9 active torsions:
REMARK  status: ('A' for Active; 'I' for Inactive)
REMARK    1  A    between atoms: O_1  and  C_2
REMARK    2  A    between atoms: C_2  and  C_4
REMARK    3  A    between atoms: C_2  and  C_8
REMARK    4  A    between atoms: C_4  and  C_6
REMARK    5  A    between atoms: C_4  and  O_7
REMARK    6  A    between atoms: C_8  and  C_10
REMARK    7  A    between atoms: C_8  and  O_15
REMARK    8  A    between atoms: C_10  and  C_12
REMARK    9  A    between atoms: C_10  and  O_14
REMARK                            x       y       z     vdW  Elec       q    Type
REMARK                         _______ _______ _______ _____ _____    ______ ____
ROOT
ATOM      1  C   LIG A   1     -10.629   8.321 128.147  0.00  0.00    +0.181 C 
ENDROOT
BRANCH   1   2
ATOM      2  O   LIG A   1     -11.886   8.998 128.336  0.00  0.00    -0.386 OA
ATOM      3  H   LIG A   1     -11.825   9.801 127.775  0.00  0.00    +0.210 HD
ENDBRANCH   1   2
BRANCH   1   4
ATOM      4  C   LIG A   1     -10.415   7.323 129.296  0.00  0.00    +0.174 C 
BRANCH   4   5
ATOM      5  O   LIG A   1      -9.146   7.535 129.929  0.00  0.00    -0.387 OA
ATOM      6  H   LIG A   1      -8.521   7.666 129.185  0.00  0.00    +0.210 HD
ENDBRANCH   4   5
BRANCH   4   7
ATOM      7  C   LIG A   1     -11.503   7.349 130.389  0.00  0.00    +0.142 C 
ATOM      8  C   LIG A   1     -11.167   6.513 131.620  0.00  0.00    +0.040 C 
BRANCH   7   9
ATOM      9  O   LIG A   1     -12.680   6.771 129.792  0.00  0.00    -0.389 OA
ATOM     10  H   LIG A   1     -13.225   6.419 130.518  0.00  0.00    +0.210 HD
ENDBRANCH   7   9
ENDBRANCH   4   7
ENDBRANCH   1   4
BRANCH   1  11
ATOM     11  C   LIG A   1     -10.641   7.648 126.761  0.00  0.00    +0.208 C 
BRANCH  11  12
ATOM     12  C   LIG A   1     -12.047   7.301 126.290  0.00  0.00    +0.257 C 
ATOM     13  O   LIG A   1     -12.811   6.565 126.925  0.00  0.00    -0.298 OA
ENDBRANCH  11  12
BRANCH  11  14
ATOM     14  O   LIG A   1      -9.822   6.467 126.848  0.00  0.00    -0.382 OA
ATOM     15  H   LIG A   1      -8.899   6.784 126.913  0.00  0.00    +0.210 HD
ENDBRANCH  11  14
ENDBRANCH   1  11
TORSDOF 8
ENDMDL
MODEL 2
REMARK VINA RESULT:      -4.3      1.501      3.706
REMARK  Name = NuBBE_1187
REMARK  9 active torsions:
REMARK  status: ('A' for Active; 'I' for Inactive)
REMARK    1  A    between atoms: O_1  and  C_2
REMARK    2  A    between atoms: C_2  and  C_4
REMARK    3  A    between atoms: C_2  and  C_8
REMARK    4  A    between atoms: C_4  and  C_6
REMARK    5  A    between atoms: C_4  and  O_7
REMARK    6  A    between atoms: C_8  and  C_10
REMARK    7  A    between atoms: C_8  and  O_15
REMARK    8  A    between atoms: C_10  and  C_12
REMARK    9  A    between atoms: C_10  and  O_14
REMARK                            x       y       z     vdW  Elec       q    Type
REMARK                         _______ _______ _______ _____ _____    ______ ____
ROOT
ATOM      1  C   LIG A   1     -11.828   7.255 129.807  0.00  0.00    +0.181 C 
ENDROOT
BRANCH   1   2
ATOM      2  O   LIG A   1     -12.670   8.234 130.444  0.00  0.00    -0.386 OA
ATOM      3  H   LIG A   1     -12.980   8.811 129.714  0.00  0.00    +0.210 HD
ENDBRANCH   1   2
BRANCH   1   4
ATOM      4  C   LIG A   1     -10.721   7.975 129.021  0.00  0.00    +0.174 C 
BRANCH   4   5
ATOM      5  O   LIG A   1      -9.430   7.684 129.571  0.00  0.00    -0.387 OA
ATOM      6  H   LIG A   1      -8.840   8.368 129.188  0.00  0.00    +0.210 HD
ENDBRANCH   4   5
BRANCH   4   7
ATOM      7  C   LIG A   1     -10.680   7.652 127.514  0.00  0.00    +0.142 C 
ATOM      8  C   LIG A   1     -12.037   7.288 126.920  0.00  0.00    +0.040 C 
BRANCH   7   9
ATOM      9  O   LIG A   1      -9.834   6.492 127.379  0.00  0.00    -0.389 OA
ATOM     10  H   LIG A   1      -9.788   6.070 128.254  0.00  0.00    +0.210 HD
ENDBRANCH   7   9
ENDBRANCH   4   7
ENDBRANCH   1   4
BRANCH   1  11
ATOM     11  C   LIG A   1     -11.277   6.307 130.889  0.00  0.00    +0.208 C 
BRANCH  11  12
ATOM     12  C   LIG A   1     -11.044   4.895 130.369  0.00  0.00    +0.257 C 
ATOM     13  O   LIG A   1     -10.139   4.605 129.579  0.00  0.00    -0.298 OA
ENDBRANCH  11  12
BRANCH  11  14
ATOM     14  O   LIG A   1     -12.216   6.306 131.981  0.00  0.00    -0.382 OA
ATOM     15  H   LIG A   1     -12.078   7.150 132.456  0.00  0.00    +0.210 HD
ENDBRANCH  11  14
ENDBRANCH   1  11
TORSDOF 8
ENDMDL
MODEL 3
REMARK VINA RESULT:      -4.3      1.695      2.785
REMARK  Name = NuBBE_1187
REMARK  9 active torsions:
REMARK  status: ('A' for Active; 'I' for Inactive)
REMARK    1  A    between atoms: O_1  and  C_2
REMARK    2  A    between atoms: C_2  and  C_4
REMARK    3  A    between atoms: C_2  and  C_8
REMARK    4  A    between atoms: C_4  and  C_6
REMARK    5  A    between atoms: C_4  and  O_7
REMARK    6  A    between atoms: C_8  and  C_10
REMARK    7  A    between atoms: C_8  and  O_15
REMARK    8  A    between atoms: C_10  and  C_12
REMARK    9  A    between atoms: C_10  and  O_14
REMARK                            x       y       z     vdW  Elec       q    Type
REMARK                         _______ _______ _______ _____ _____    ______ ____
ROOT
ATOM      1  C   LIG A   1     -11.748   6.968 129.640  0.00  0.00    +0.181 C 
ENDROOT
BRANCH   1   2
ATOM      2  O   LIG A   1     -12.293   6.058 128.666  0.00  0.00    -0.386 OA
ATOM      3  H   LIG A   1     -12.404   6.597 127.854  0.00  0.00    +0.210 HD
ENDBRANCH   1   2
BRANCH   1   4
ATOM      4  C   LIG A   1     -11.075   6.162 130.764  0.00  0.00    +0.174 C 
BRANCH   4   5
ATOM      5  O   LIG A   1     -11.922   6.090 131.919  0.00  0.00    -0.387 OA
ATOM      6  H   LIG A   1     -11.355   5.689 132.612  0.00  0.00    +0.210 HD
ENDBRANCH   4   5
BRANCH   4   7
ATOM      7  C   LIG A   1     -10.672   4.724 130.379  0.00  0.00    +0.142 C 
ATOM      8  C   LIG A   1      -9.942   3.967 131.483  0.00  0.00    +0.040 C 
BRANCH   7   9
ATOM      9  O   LIG A   1      -9.755   4.851 129.274  0.00  0.00    -0.389 OA
ATOM     10  H   LIG A   1      -9.489   3.949 129.020  0.00  0.00    +0.210 HD
ENDBRANCH   7   9
ENDBRANCH   4   7
ENDBRANCH   1   4
BRANCH   1  11
ATOM     11  C   LIG A   1     -10.776   7.924 128.923  0.00  0.00    +0.208 C 
BRANCH  11  12
ATOM     12  C   LIG A   1     -10.655   7.630 127.434  0.00  0.00    +0.257 C 
ATOM     13  O   LIG A   1     -10.008   6.679 126.982  0.00  0.00    -0.298 OA
ENDBRANCH  11  12
BRANCH  11  14
ATOM     14  O   LIG A   1      -9.497   7.809 129.575  0.00  0.00    -0.382 OA
ATOM     15  H   LIG A   1      -9.541   8.393 130.358  0.00  0.00    +0.210 HD
ENDBRANCH  11  14
ENDBRANCH   1  11
TORSDOF 8
ENDMDL
MODEL 4
REMARK VINA RESULT:      -4.2      2.253      3.599
REMARK  Name = NuBBE_1187
REMARK  9 active torsions:
REMARK  status: ('A' for Active; 'I' for Inactive)
REMARK    1  A    between atoms: O_1  and  C_2
REMARK    2  A    between atoms: C_2  and  C_4
REMARK    3  A    between atoms: C_2  and  C_8
REMARK    4  A    between atoms: C_4  and  C_6
REMARK    5  A    between atoms: C_4  and  O_7
REMARK    6  A    between atoms: C_8  and  C_10
REMARK    7  A    between atoms: C_8  and  O_15
REMARK    8  A    between atoms: C_10  and  C_12
REMARK    9  A    between atoms: C_10  and  O_14
REMARK                            x       y       z     vdW  Elec       q    Type
REMARK                         _______ _______ _______ _____ _____    ______ ____
ROOT
ATOM      1  C   LIG A   1     -11.735   6.160 130.255  0.00  0.00    +0.181 C 
ENDROOT
BRANCH   1   2
ATOM      2  O   LIG A   1     -11.201   6.077 128.920  0.00  0.00    -0.386 OA
ATOM      3  H   LIG A   1     -10.485   5.408 128.978  0.00  0.00    +0.210 HD
ENDBRANCH   1   2
BRANCH   1   4
ATOM      4  C   LIG A   1     -10.603   6.521 131.231  0.00  0.00    +0.174 C 
BRANCH   4   5
ATOM      5  O   LIG A   1     -10.641   5.682 132.392  0.00  0.00    -0.387 OA
ATOM      6  H   LIG A   1     -10.657   6.310 133.146  0.00  0.00    +0.210 HD
ENDBRANCH   4   5
BRANCH   4   7
ATOM      7  C   LIG A   1      -9.183   6.444 130.633  0.00  0.00    +0.142 C 
ATOM      8  C   LIG A   1      -8.071   6.427 131.677  0.00  0.00    +0.040 C 
BRANCH   7   9
ATOM      9  O   LIG A   1      -9.014   7.643 129.853  0.00  0.00    -0.389 OA
ATOM     10  H   LIG A   1      -8.833   8.367 130.478  0.00  0.00    +0.210 HD
ENDBRANCH   7   9
ENDBRANCH   4   7
ENDBRANCH   1   4
BRANCH   1  11
ATOM     11  C   LIG A   1     -12.881   7.189 130.258  0.00  0.00    +0.208 C 
BRANCH  11  12
ATOM     12  C   LIG A   1     -12.438   8.562 129.770  0.00  0.00    +0.257 C 
ATOM     13  O   LIG A   1     -11.716   8.728 128.780  0.00  0.00    -0.298 OA
ENDBRANCH  11  12
BRANCH  11  14
ATOM     14  O   LIG A   1     -13.393   7.262 131.602  0.00  0.00    -0.382 OA
ATOM     15  H   LIG A   1     -13.825   6.401 131.772  0.00  0.00    +0.210 HD
ENDBRANCH  11  14
ENDBRANCH   1  11
TORSDOF 8
ENDMDL
MODEL 5
REMARK VINA RESULT:      -4.1      1.985      3.621
REMARK  Name = NuBBE_1187
REMARK  9 active torsions:
REMARK  status: ('A' for Active; 'I' for Inactive)
REMARK    1  A    between atoms: O_1  and  C_2
REMARK    2  A    between atoms: C_2  and  C_4
REMARK    3  A    between atoms: C_2  and  C_8
REMARK    4  A    between atoms: C_4  and  C_6
REMARK    5  A    between atoms: C_4  and  O_7
REMARK    6  A    between atoms: C_8  and  C_10
REMARK    7  A    between atoms: C_8  and  O_15
REMARK    8  A    between atoms: C_10  and  C_12
REMARK    9  A    between atoms: C_10  and  O_14
REMARK                            x       y       z     vdW  Elec       q    Type
REMARK                         _______ _______ _______ _____ _____    ______ ____
ROOT
ATOM      1  C   LIG A   1     -10.500   6.635 129.117  0.00  0.00    +0.181 C 
ENDROOT
BRANCH   1   2
ATOM      2  O   LIG A   1     -11.578   5.729 129.417  0.00  0.00    -0.386 OA
ATOM      3  H   LIG A   1     -11.138   4.888 129.665  0.00  0.00    +0.210 HD
ENDBRANCH   1   2
BRANCH   1   4
ATOM      4  C   LIG A   1     -11.015   8.081 129.206  0.00  0.00    +0.174 C 
BRANCH   4   5
ATOM      5  O   LIG A   1     -10.651   8.827 128.037  0.00  0.00    -0.387 OA
ATOM      6  H   LIG A   1     -10.610   9.757 128.345  0.00  0.00    +0.210 HD
ENDBRANCH   4   5
BRANCH   4   7
ATOM      7  C   LIG A   1     -12.539   8.215 129.402  0.00  0.00    +0.142 C 
ATOM      8  C   LIG A   1     -13.088   9.599 129.070  0.00  0.00    +0.040 C 
BRANCH   7   9
ATOM      9  O   LIG A   1     -12.782   7.988 130.804  0.00  0.00    -0.389 OA
ATOM     10  H   LIG A   1     -12.427   7.106 131.016  0.00  0.00    +0.210 HD
ENDBRANCH   7   9
ENDBRANCH   4   7
ENDBRANCH   1   4
BRANCH   1  11
ATOM     11  C   LIG A   1      -9.340   6.351 130.090  0.00  0.00    +0.208 C 
BRANCH  11  12
ATOM     12  C   LIG A   1      -9.822   5.880 131.456  0.00  0.00    +0.257 C 
ATOM     13  O   LIG A   1     -10.549   6.561 132.188  0.00  0.00    -0.298 OA
ENDBRANCH  11  12
BRANCH  11  14
ATOM     14  O   LIG A   1      -8.567   7.560 130.206  0.00  0.00    -0.382 OA
ATOM     15  H   LIG A   1      -8.952   8.054 130.957  0.00  0.00    +0.210 HD
ENDBRANCH  11  14
ENDBRANCH   1  11
TORSDOF 8
ENDMDL
MODEL 6
REMARK VINA RESULT:      -4.1      1.692      4.050
REMARK  Name = NuBBE_1187
REMARK  9 active torsions:
REMARK  status: ('A' for Active; 'I' for Inactive)
REMARK    1  A    between atoms: O_1  and  C_2
REMARK    2  A    between atoms: C_2  and  C_4
REMARK    3  A    between atoms: C_2  and  C_8
REMARK    4  A    between atoms: C_4  and  C_6
REMARK    5  A    between atoms: C_4  and  O_7
REMARK    6  A    between atoms: C_8  and  C_10
REMARK    7  A    between atoms: C_8  and  O_15
REMARK    8  A    between atoms: C_10  and  C_12
REMARK    9  A    between atoms: C_10  and  O_14
REMARK                            x       y       z     vdW  Elec       q    Type
REMARK                         _______ _______ _______ _____ _____    ______ ____
ROOT
ATOM      1  C   LIG A   1     -10.871   7.042 129.978  0.00  0.00    +0.181 C 
ENDROOT
BRANCH   1   2
ATOM      2  O   LIG A   1      -9.565   6.961 129.376  0.00  0.00    -0.386 OA
ATOM      3  H   LIG A   1      -9.416   7.847 128.981  0.00  0.00    +0.210 HD
ENDBRANCH   1   2
BRANCH   1   4
ATOM      4  C   LIG A   1     -11.942   6.924 128.881  0.00  0.00    +0.174 C 
BRANCH   4   5
ATOM      5  O   LIG A   1     -13.259   6.995 129.442  0.00  0.00    -0.387 OA
ATOM      6  H   LIG A   1     -13.841   6.621 128.747  0.00  0.00    +0.210 HD
ENDBRANCH   4   5
BRANCH   4   7
ATOM      7  C   LIG A   1     -11.843   7.980 127.762  0.00  0.00    +0.142 C 
ATOM      8  C   LIG A   1     -11.252   7.451 126.460  0.00  0.00    +0.040 C 
BRANCH   7   9
ATOM      9  O   LIG A   1     -10.947   8.997 128.252  0.00  0.00    -0.389 OA
ATOM     10  H   LIG A   1     -10.043   8.711 128.031  0.00  0.00    +0.210 HD
ENDBRANCH   7   9
ENDBRANCH   4   7
ENDBRANCH   1   4
BRANCH   1  11
ATOM     11  C   LIG A   1     -10.983   5.940 131.048  0.00  0.00    +0.208 C 
BRANCH  11  12
ATOM     12  C   LIG A   1     -11.036   4.542 130.447  0.00  0.00    +0.257 C 
ATOM     13  O   LIG A   1     -10.111   4.053 129.788  0.00  0.00    -0.298 OA
ENDBRANCH  11  12
BRANCH  11  14
ATOM     14  O   LIG A   1     -12.165   6.211 131.825  0.00  0.00    -0.382 OA
ATOM     15  H   LIG A   1     -12.564   5.339 132.020  0.00  0.00    +0.210 HD
ENDBRANCH  11  14
ENDBRANCH   1  11
TORSDOF 8
ENDMDL
MODEL 7
REMARK VINA RESULT:      -4.0      1.960      4.464
REMARK  Name = NuBBE_1187
REMARK  9 active torsions:
REMARK  status: ('A' for Active; 'I' for Inactive)
REMARK    1  A    between atoms: O_1  and  C_2
REMARK    2  A    between atoms: C_2  and  C_4
REMARK    3  A    between atoms: C_2  and  C_8
REMARK    4  A    between atoms: C_4  and  C_6
REMARK    5  A    between atoms: C_4  and  O_7
REMARK    6  A    between atoms: C_8  and  C_10
REMARK    7  A    between atoms: C_8  and  O_15
REMARK    8  A    between atoms: C_10  and  C_12
REMARK    9  A    between atoms: C_10  and  O_14
REMARK                            x       y       z     vdW  Elec       q    Type
REMARK                         _______ _______ _______ _____ _____    ______ ____
ROOT
ATOM      1  C   LIG A   1     -10.893   5.955 129.965  0.00  0.00    +0.181 C 
ENDROOT
BRANCH   1   2
ATOM      2  O   LIG A   1     -11.432   4.620 129.951  0.00  0.00    -0.386 OA
ATOM      3  H   LIG A   1     -11.681   4.460 129.015  0.00  0.00    +0.210 HD
ENDBRANCH   1   2
BRANCH   1   4
ATOM      4  C   LIG A   1     -11.663   6.821 128.955  0.00  0.00    +0.174 C 
BRANCH   4   5
ATOM      5  O   LIG A   1     -13.066   6.527 128.992  0.00  0.00    -0.387 OA
ATOM      6  H   LIG A   1     -13.108   5.554 129.112  0.00  0.00    +0.210 HD
ENDBRANCH   4   5
BRANCH   4   7
ATOM      7  C   LIG A   1     -11.491   8.342 129.140  0.00  0.00    +0.142 C 
ATOM      8  C   LIG A   1     -12.806   9.111 129.221  0.00  0.00    +0.040 C 
BRANCH   7   9
ATOM      9  O   LIG A   1     -10.797   8.810 127.967  0.00  0.00    -0.389 OA
ATOM     10  H   LIG A   1     -11.476   9.071 127.319  0.00  0.00    +0.210 HD
ENDBRANCH   7   9
ENDBRANCH   4   7
ENDBRANCH   1   4
BRANCH   1  11
ATOM     11  C   LIG A   1     -10.974   6.498 131.405  0.00  0.00    +0.208 C 
BRANCH  11  12
ATOM     12  C   LIG A   1      -9.923   5.886 132.322  0.00  0.00    +0.257 C 
ATOM     13  O   LIG A   1      -9.647   4.681 132.325  0.00  0.00    -0.298 OA
ENDBRANCH  11  12
BRANCH  11  14
ATOM     14  O   LIG A   1     -12.302   6.229 131.893  0.00  0.00    -0.382 OA
ATOM     15  H   LIG A   1     -12.831   7.025 131.685  0.00  0.00    +0.210 HD
ENDBRANCH  11  14
ENDBRANCH   1  11
TORSDOF 8
ENDMDL
MODEL 8
REMARK VINA RESULT:      -3.9      1.522      2.728
REMARK  Name = NuBBE_1187
REMARK  9 active torsions:
REMARK  status: ('A' for Active; 'I' for Inactive)
REMARK    1  A    between atoms: O_1  and  C_2
REMARK    2  A    between atoms: C_2  and  C_4
REMARK    3  A    between atoms: C_2  and  C_8
REMARK    4  A    between atoms: C_4  and  C_6
REMARK    5  A    between atoms: C_4  and  O_7
REMARK    6  A    between atoms: C_8  and  C_10
REMARK    7  A    between atoms: C_8  and  O_15
REMARK    8  A    between atoms: C_10  and  C_12
REMARK    9  A    between atoms: C_10  and  O_14
REMARK                            x       y       z     vdW  Elec       q    Type
REMARK                         _______ _______ _______ _____ _____    ______ ____
ROOT
ATOM      1  C   LIG A   1     -11.724   7.835 129.869  0.00  0.00    +0.181 C 
ENDROOT
BRANCH   1   2
ATOM      2  O   LIG A   1     -12.753   8.408 130.697  0.00  0.00    -0.386 OA
ATOM      3  H   LIG A   1     -13.214   7.638 131.093  0.00  0.00    +0.210 HD
ENDBRANCH   1   2
BRANCH   1   4
ATOM      4  C   LIG A   1     -11.572   6.344 130.212  0.00  0.00    +0.174 C 
BRANCH   4   5
ATOM      5  O   LIG A   1     -12.163   5.523 129.196  0.00  0.00    -0.387 OA
ATOM      6  H   LIG A   1     -11.434   4.935 128.903  0.00  0.00    +0.210 HD
ENDBRANCH   4   5
BRANCH   4   7
ATOM      7  C   LIG A   1     -10.119   5.871 130.421  0.00  0.00    +0.142 C 
ATOM      8  C   LIG A   1      -9.113   7.007 130.574  0.00  0.00    +0.040 C 
BRANCH   7   9
ATOM      9  O   LIG A   1      -9.761   5.146 129.228  0.00  0.00    -0.389 OA
ATOM     10  H   LIG A   1      -8.838   5.375 129.021  0.00  0.00    +0.210 HD
ENDBRANCH   7   9
ENDBRANCH   4   7
ENDBRANCH   1   4
BRANCH   1  11
ATOM     11  C   LIG A   1     -12.094   8.077 128.393  0.00  0.00    +0.208 C 
BRANCH  11  12
ATOM     12  C   LIG A   1     -10.888   7.999 127.466  0.00  0.00    +0.257 C 
ATOM     13  O   LIG A   1     -10.460   6.936 127.001  0.00  0.00    -0.298 OA
ENDBRANCH  11  12
BRANCH  11  14
ATOM     14  O   LIG A   1     -12.722   9.370 128.312  0.00  0.00    -0.382 OA
ATOM     15  H   LIG A   1     -13.517   9.319 128.881  0.00  0.00    +0.210 HD
ENDBRANCH  11  14
ENDBRANCH   1  11
TORSDOF 8
ENDMDL
MODEL 9
REMARK VINA RESULT:      -3.9      1.412      2.063
REMARK  Name = NuBBE_1187
REMARK  9 active torsions:
REMARK  status: ('A' for Active; 'I' for Inactive)
REMARK    1  A    between atoms: O_1  and  C_2
REMARK    2  A    between atoms: C_2  and  C_4
REMARK    3  A    between atoms: C_2  and  C_8
REMARK    4  A    between atoms: C_4  and  C_6
REMARK    5  A    between atoms: C_4  and  O_7
REMARK    6  A    between atoms: C_8  and  C_10
REMARK    7  A    between atoms: C_8  and  O_15
REMARK    8  A    between atoms: C_10  and  C_12
REMARK    9  A    between atoms: C_10  and  O_14
REMARK                            x       y       z     vdW  Elec       q    Type
REMARK                         _______ _______ _______ _____ _____    ______ ____
ROOT
ATOM      1  C   LIG A   1     -10.390   6.344 128.854  0.00  0.00    +0.181 C 
ENDROOT
BRANCH   1   2
ATOM      2  O   LIG A   1      -9.501   6.118 127.744  0.00  0.00    -0.386 OA
ATOM      3  H   LIG A   1     -10.087   5.852 127.003  0.00  0.00    +0.210 HD
ENDBRANCH   1   2
BRANCH   1   4
ATOM      4  C   LIG A   1      -9.576   6.352 130.159  0.00  0.00    +0.174 C 
BRANCH   4   5
ATOM      5  O   LIG A   1      -8.695   7.481 130.205  0.00  0.00    -0.387 OA
ATOM      6  H   LIG A   1      -8.771   7.887 129.315  0.00  0.00    +0.210 HD
ENDBRANCH   4   5
BRANCH   4   7
ATOM      7  C   LIG A   1     -10.420   6.353 131.449  0.00  0.00    +0.142 C 
ATOM      8  C   LIG A   1      -9.636   5.983 132.704  0.00  0.00    +0.040 C 
BRANCH   7   9
ATOM      9  O   LIG A   1     -11.429   5.339 131.266  0.00  0.00    -0.389 OA
ATOM     10  H   LIG A   1     -11.982   5.620 130.516  0.00  0.00    +0.210 HD
ENDBRANCH   7   9
ENDBRANCH   4   7
ENDBRANCH   1   4
BRANCH   1  11
ATOM     11  C   LIG A   1     -11.148   7.663 128.612  0.00  0.00    +0.208 C 
BRANCH  11  12
ATOM     12  C   LIG A   1     -12.301   7.504 127.629  0.00  0.00    +0.257 C 
ATOM     13  O   LIG A   1     -12.260   6.742 126.656  0.00  0.00    -0.298 OA
ENDBRANCH  11  12
BRANCH  11  14
ATOM     14  O   LIG A   1     -10.193   8.628 128.133  0.00  0.00    -0.382 OA
ATOM     15  H   LIG A   1      -9.868   8.283 127.277  0.00  0.00    +0.210 HD
ENDBRANCH  11  14
ENDBRANCH   1  11
TORSDOF 8
ENDMDL
