MODEL 1
REMARK VINA RESULT:      -5.3      0.000      0.000
REMARK  Name = NuBBE_2145
REMARK  17 active torsions:
REMARK  status: ('A' for Active; 'I' for Inactive)
REMARK    1  A    between atoms: O_1  and  C_2
REMARK    2  A    between atoms: C_2  and  C_3
REMARK    3  A    between atoms: C_3  and  C_4
REMARK    4  A    between atoms: C_4  and  C_5
REMARK    5  A    between atoms: C_5  and  C_6
REMARK    6  A    between atoms: C_6  and  C_7
REMARK    7  A    between atoms: C_7  and  C_8
REMARK    8  A    between atoms: C_8  and  C_9
REMARK    9  A    between atoms: C_9  and  C_10
REMARK   10  A    between atoms: C_11  and  C_12
REMARK   11  A    between atoms: C_12  and  C_13
REMARK   12  A    between atoms: C_13  and  C_14
REMARK   13  A    between atoms: C_14  and  C_15
REMARK   14  A    between atoms: C_15  and  C_16
REMARK   15  A    between atoms: C_16  and  C_17
REMARK   16  A    between atoms: C_17  and  C_18
REMARK   17  A    between atoms: C_18  and  C_19
REMARK                            x       y       z     vdW  Elec       q    Type
REMARK                         _______ _______ _______ _____ _____    ______ ____
ROOT
ATOM      1  C   LIG A   1      -7.785  -2.686 129.502  0.00  0.00    +0.027 C 
ENDROOT
BRANCH   1   2
ATOM      2  C   LIG A   1      -8.699  -3.759 128.962  0.00  0.00    -0.031 C 
ATOM      3  C   LIG A   1      -9.111  -3.920 127.692  0.00  0.00    -0.031 C 
BRANCH   3   4
ATOM      4  C   LIG A   1      -8.894  -3.027 126.497  0.00  0.00    +0.027 C 
BRANCH   4   5
ATOM      5  C   LIG A   1      -8.406  -3.661 125.190  0.00  0.00    +0.004 C 
BRANCH   5   6
ATOM      6  C   LIG A   1      -9.274  -3.295 123.975  0.00  0.00    +0.000 C 
BRANCH   6   7
ATOM      7  C   LIG A   1      -8.561  -2.595 122.803  0.00  0.00    +0.000 C 
BRANCH   7   8
ATOM      8  C   LIG A   1      -7.408  -1.643 123.175  0.00  0.00    -0.000 C 
BRANCH   8   9
ATOM      9  C   LIG A   1      -6.049  -2.160 122.687  0.00  0.00    -0.000 C 
BRANCH   9  10
ATOM     10  C   LIG A   1      -5.068  -2.622 123.770  0.00  0.00    -0.003 C 
ATOM     11  C   LIG A   1      -4.801  -4.118 123.758  0.00  0.00    +0.004 C 
ENDBRANCH   9  10
ENDBRANCH   8   9
ENDBRANCH   7   8
ENDBRANCH   6   7
ENDBRANCH   5   6
ENDBRANCH   4   5
ENDBRANCH   3   4
ENDBRANCH   1   2
BRANCH   1  12
ATOM     12  C   LIG A   1      -6.338  -3.155 129.501  0.00  0.00    +0.004 C 
BRANCH  12  13
ATOM     13  C   LIG A   1      -5.346  -2.180 128.855  0.00  0.00    +0.000 C 
BRANCH  13  14
ATOM     14  C   LIG A   1      -5.504  -2.008 127.333  0.00  0.00    +0.000 C 
BRANCH  14  15
ATOM     15  C   LIG A   1      -5.629  -0.559 126.833  0.00  0.00    +0.000 C 
BRANCH  15  16
ATOM     16  C   LIG A   1      -7.037  -0.054 126.493  0.00  0.00    +0.011 C 
BRANCH  16  17
ATOM     17  C   LIG A   1      -7.836   0.432 127.697  0.00  0.00    +0.120 C 
BRANCH  17  18
ATOM     18  C   LIG A   1      -8.562   1.703 127.355  0.00  0.00    +0.305 C 
ATOM     19  O   LIG A   1      -8.801   2.107 126.252  0.00  0.00    -0.251 OA
BRANCH  18  20
ATOM     20  O   LIG A   1      -9.001   2.358 128.451  0.00  0.00    -0.481 OA
ATOM     21  H   LIG A   1      -8.303   2.196 129.118  0.00  0.00    +0.295 HD
ENDBRANCH  18  20
ENDBRANCH  17  18
ENDBRANCH  16  17
ENDBRANCH  15  16
ENDBRANCH  14  15
ENDBRANCH  13  14
ENDBRANCH  12  13
ENDBRANCH   1  12
TORSDOF 16
ENDMDL
MODEL 2
REMARK VINA RESULT:      -5.2      2.094      3.635
REMARK  Name = NuBBE_2145
REMARK  17 active torsions:
REMARK  status: ('A' for Active; 'I' for Inactive)
REMARK    1  A    between atoms: O_1  and  C_2
REMARK    2  A    between atoms: C_2  and  C_3
REMARK    3  A    between atoms: C_3  and  C_4
REMARK    4  A    between atoms: C_4  and  C_5
REMARK    5  A    between atoms: C_5  and  C_6
REMARK    6  A    between atoms: C_6  and  C_7
REMARK    7  A    between atoms: C_7  and  C_8
REMARK    8  A    between atoms: C_8  and  C_9
REMARK    9  A    between atoms: C_9  and  C_10
REMARK   10  A    between atoms: C_11  and  C_12
REMARK   11  A    between atoms: C_12  and  C_13
REMARK   12  A    between atoms: C_13  and  C_14
REMARK   13  A    between atoms: C_14  and  C_15
REMARK   14  A    between atoms: C_15  and  C_16
REMARK   15  A    between atoms: C_16  and  C_17
REMARK   16  A    between atoms: C_17  and  C_18
REMARK   17  A    between atoms: C_18  and  C_19
REMARK                            x       y       z     vdW  Elec       q    Type
REMARK                         _______ _______ _______ _____ _____    ______ ____
ROOT
ATOM      1  C   LIG A   1      -8.251  -3.053 129.073  0.00  0.00    +0.027 C 
ENDROOT
BRANCH   1   2
ATOM      2  C   LIG A   1      -6.904  -3.431 129.639  0.00  0.00    -0.031 C 
ATOM      3  C   LIG A   1      -5.694  -3.030 129.210  0.00  0.00    -0.031 C 
BRANCH   3   4
ATOM      4  C   LIG A   1      -5.333  -2.217 127.993  0.00  0.00    +0.027 C 
BRANCH   4   5
ATOM      5  C   LIG A   1      -5.659  -0.720 127.991  0.00  0.00    +0.004 C 
BRANCH   5   6
ATOM      6  C   LIG A   1      -5.567  -0.079 126.596  0.00  0.00    +0.000 C 
BRANCH   6   7
ATOM      7  C   LIG A   1      -5.133  -1.001 125.441  0.00  0.00    +0.000 C 
BRANCH   7   8
ATOM      8  C   LIG A   1      -6.105  -1.107 124.250  0.00  0.00    -0.000 C 
BRANCH   8   9
ATOM      9  C   LIG A   1      -6.342  -2.561 123.823  0.00  0.00    -0.000 C 
BRANCH   9  10
ATOM     10  C   LIG A   1      -5.416  -3.612 124.443  0.00  0.00    -0.003 C 
ATOM     11  C   LIG A   1      -4.376  -4.159 123.480  0.00  0.00    +0.004 C 
ENDBRANCH   9  10
ENDBRANCH   8   9
ENDBRANCH   7   8
ENDBRANCH   6   7
ENDBRANCH   5   6
ENDBRANCH   4   5
ENDBRANCH   3   4
ENDBRANCH   1   2
BRANCH   1  12
ATOM     12  C   LIG A   1      -8.643  -3.985 127.937  0.00  0.00    +0.004 C 
BRANCH  12  13
ATOM     13  C   LIG A   1      -8.966  -3.285 126.612  0.00  0.00    +0.000 C 
BRANCH  13  14
ATOM     14  C   LIG A   1      -8.735  -1.763 126.610  0.00  0.00    +0.000 C 
BRANCH  14  15
ATOM     15  C   LIG A   1      -9.420  -0.984 125.475  0.00  0.00    +0.000 C 
BRANCH  15  16
ATOM     16  C   LIG A   1      -9.394   0.548 125.561  0.00  0.00    +0.011 C 
BRANCH  16  17
ATOM     17  C   LIG A   1      -9.342   1.251 124.208  0.00  0.00    +0.120 C 
BRANCH  17  18
ATOM     18  C   LIG A   1     -10.570   0.919 123.407  0.00  0.00    +0.305 C 
ATOM     19  O   LIG A   1     -10.596   0.330 122.363  0.00  0.00    -0.251 OA
BRANCH  18  20
ATOM     20  O   LIG A   1     -11.709   1.302 124.024  0.00  0.00    -0.481 OA
ATOM     21  H   LIG A   1     -11.398   1.858 124.768  0.00  0.00    +0.295 HD
ENDBRANCH  18  20
ENDBRANCH  17  18
ENDBRANCH  16  17
ENDBRANCH  15  16
ENDBRANCH  14  15
ENDBRANCH  13  14
ENDBRANCH  12  13
ENDBRANCH   1  12
TORSDOF 16
ENDMDL
MODEL 3
REMARK VINA RESULT:      -5.1      2.824      4.530
REMARK  Name = NuBBE_2145
REMARK  17 active torsions:
REMARK  status: ('A' for Active; 'I' for Inactive)
REMARK    1  A    between atoms: O_1  and  C_2
REMARK    2  A    between atoms: C_2  and  C_3
REMARK    3  A    between atoms: C_3  and  C_4
REMARK    4  A    between atoms: C_4  and  C_5
REMARK    5  A    between atoms: C_5  and  C_6
REMARK    6  A    between atoms: C_6  and  C_7
REMARK    7  A    between atoms: C_7  and  C_8
REMARK    8  A    between atoms: C_8  and  C_9
REMARK    9  A    between atoms: C_9  and  C_10
REMARK   10  A    between atoms: C_11  and  C_12
REMARK   11  A    between atoms: C_12  and  C_13
REMARK   12  A    between atoms: C_13  and  C_14
REMARK   13  A    between atoms: C_14  and  C_15
REMARK   14  A    between atoms: C_15  and  C_16
REMARK   15  A    between atoms: C_16  and  C_17
REMARK   16  A    between atoms: C_17  and  C_18
REMARK   17  A    between atoms: C_18  and  C_19
REMARK                            x       y       z     vdW  Elec       q    Type
REMARK                         _______ _______ _______ _____ _____    ______ ____
ROOT
ATOM      1  C   LIG A   1      -9.476  -2.738 125.673  0.00  0.00    +0.027 C 
ENDROOT
BRANCH   1   2
ATOM      2  C   LIG A   1      -9.205  -2.993 124.209  0.00  0.00    -0.031 C 
ATOM      3  C   LIG A   1      -8.914  -2.084 123.261  0.00  0.00    -0.031 C 
BRANCH   3   4
ATOM      4  C   LIG A   1      -8.905  -0.579 123.350  0.00  0.00    +0.027 C 
BRANCH   4   5
ATOM      5  C   LIG A   1      -7.564   0.133 123.552  0.00  0.00    +0.004 C 
BRANCH   5   6
ATOM      6  C   LIG A   1      -7.089   0.132 125.015  0.00  0.00    +0.000 C 
BRANCH   6   7
ATOM      7  C   LIG A   1      -5.741  -0.555 125.302  0.00  0.00    +0.000 C 
BRANCH   7   8
ATOM      8  C   LIG A   1      -5.751  -2.096 125.325  0.00  0.00    -0.000 C 
BRANCH   8   9
ATOM      9  C   LIG A   1      -5.411  -2.699 123.956  0.00  0.00    -0.000 C 
BRANCH   9  10
ATOM     10  C   LIG A   1      -5.185  -4.214 123.918  0.00  0.00    -0.003 C 
ATOM     11  C   LIG A   1      -3.776  -4.614 123.515  0.00  0.00    +0.004 C 
ENDBRANCH   9  10
ENDBRANCH   8   9
ENDBRANCH   7   8
ENDBRANCH   6   7
ENDBRANCH   5   6
ENDBRANCH   4   5
ENDBRANCH   3   4
ENDBRANCH   1   2
BRANCH   1  12
ATOM     12  C   LIG A   1      -8.786  -3.778 126.541  0.00  0.00    +0.004 C 
BRANCH  12  13
ATOM     13  C   LIG A   1      -8.355  -3.278 127.925  0.00  0.00    +0.000 C 
BRANCH  13  14
ATOM     14  C   LIG A   1      -8.014  -1.779 127.995  0.00  0.00    +0.000 C 
BRANCH  14  15
ATOM     15  C   LIG A   1      -6.801  -1.409 128.866  0.00  0.00    +0.000 C 
BRANCH  15  16
ATOM     16  C   LIG A   1      -5.964  -2.565 129.427  0.00  0.00    +0.011 C 
BRANCH  16  17
ATOM     17  C   LIG A   1      -4.661  -2.818 128.677  0.00  0.00    +0.120 C 
BRANCH  17  18
ATOM     18  C   LIG A   1      -3.498  -2.757 129.628  0.00  0.00    +0.305 C 
ATOM     19  O   LIG A   1      -2.977  -3.690 130.169  0.00  0.00    -0.251 OA
BRANCH  18  20
ATOM     20  O   LIG A   1      -3.022  -1.502 129.782  0.00  0.00    -0.481 OA
ATOM     21  H   LIG A   1      -3.153  -1.316 130.734  0.00  0.00    +0.295 HD
ENDBRANCH  18  20
ENDBRANCH  17  18
ENDBRANCH  16  17
ENDBRANCH  15  16
ENDBRANCH  14  15
ENDBRANCH  13  14
ENDBRANCH  12  13
ENDBRANCH   1  12
TORSDOF 16
ENDMDL
MODEL 4
REMARK VINA RESULT:      -5.1      2.124      3.923
REMARK  Name = NuBBE_2145
REMARK  17 active torsions:
REMARK  status: ('A' for Active; 'I' for Inactive)
REMARK    1  A    between atoms: O_1  and  C_2
REMARK    2  A    between atoms: C_2  and  C_3
REMARK    3  A    between atoms: C_3  and  C_4
REMARK    4  A    between atoms: C_4  and  C_5
REMARK    5  A    between atoms: C_5  and  C_6
REMARK    6  A    between atoms: C_6  and  C_7
REMARK    7  A    between atoms: C_7  and  C_8
REMARK    8  A    between atoms: C_8  and  C_9
REMARK    9  A    between atoms: C_9  and  C_10
REMARK   10  A    between atoms: C_11  and  C_12
REMARK   11  A    between atoms: C_12  and  C_13
REMARK   12  A    between atoms: C_13  and  C_14
REMARK   13  A    between atoms: C_14  and  C_15
REMARK   14  A    between atoms: C_15  and  C_16
REMARK   15  A    between atoms: C_16  and  C_17
REMARK   16  A    between atoms: C_17  and  C_18
REMARK   17  A    between atoms: C_18  and  C_19
REMARK                            x       y       z     vdW  Elec       q    Type
REMARK                         _______ _______ _______ _____ _____    ______ ____
ROOT
ATOM      1  C   LIG A   1      -9.466  -2.939 125.698  0.00  0.00    +0.027 C 
ENDROOT
BRANCH   1   2
ATOM      2  C   LIG A   1      -9.194  -3.322 124.263  0.00  0.00    -0.031 C 
ATOM      3  C   LIG A   1      -8.989  -2.497 123.220  0.00  0.00    -0.031 C 
BRANCH   3   4
ATOM      4  C   LIG A   1      -9.098  -0.995 123.154  0.00  0.00    +0.027 C 
BRANCH   4   5
ATOM      5  C   LIG A   1      -7.835  -0.159 123.384  0.00  0.00    +0.004 C 
BRANCH   5   6
ATOM      6  C   LIG A   1      -7.759   0.456 124.791  0.00  0.00    +0.000 C 
BRANCH   6   7
ATOM      7  C   LIG A   1      -6.850  -0.258 125.808  0.00  0.00    +0.000 C 
BRANCH   7   8
ATOM      8  C   LIG A   1      -5.615  -0.978 125.234  0.00  0.00    -0.000 C 
BRANCH   8   9
ATOM      9  C   LIG A   1      -5.651  -2.489 125.494  0.00  0.00    -0.000 C 
BRANCH   9  10
ATOM     10  C   LIG A   1      -5.239  -3.390 124.326  0.00  0.00    -0.003 C 
ATOM     11  C   LIG A   1      -5.306  -2.708 122.971  0.00  0.00    +0.004 C 
ENDBRANCH   9  10
ENDBRANCH   8   9
ENDBRANCH   7   8
ENDBRANCH   6   7
ENDBRANCH   5   6
ENDBRANCH   4   5
ENDBRANCH   3   4
ENDBRANCH   1   2
BRANCH   1  12
ATOM     12  C   LIG A   1      -8.591  -3.741 126.648  0.00  0.00    +0.004 C 
BRANCH  12  13
ATOM     13  C   LIG A   1      -9.188  -3.958 128.044  0.00  0.00    +0.000 C 
BRANCH  13  14
ATOM     14  C   LIG A   1      -8.407  -3.294 129.193  0.00  0.00    +0.000 C 
BRANCH  14  15
ATOM     15  C   LIG A   1      -7.618  -2.027 128.820  0.00  0.00    +0.000 C 
BRANCH  15  16
ATOM     16  C   LIG A   1      -7.117  -1.150 129.974  0.00  0.00    +0.011 C 
BRANCH  16  17
ATOM     17  C   LIG A   1      -7.999   0.059 130.270  0.00  0.00    +0.120 C 
BRANCH  17  18
ATOM     18  C   LIG A   1      -8.732  -0.144 131.567  0.00  0.00    +0.305 C 
ATOM     19  O   LIG A   1      -9.780   0.351 131.872  0.00  0.00    -0.251 OA
BRANCH  18  20
ATOM     20  O   LIG A   1      -8.111  -1.027 132.379  0.00  0.00    -0.481 OA
ATOM     21  H   LIG A   1      -7.784  -0.476 133.119  0.00  0.00    +0.295 HD
ENDBRANCH  18  20
ENDBRANCH  17  18
ENDBRANCH  16  17
ENDBRANCH  15  16
ENDBRANCH  14  15
ENDBRANCH  13  14
ENDBRANCH  12  13
ENDBRANCH   1  12
TORSDOF 16
ENDMDL
MODEL 5
REMARK VINA RESULT:      -5.0      3.024      5.045
REMARK  Name = NuBBE_2145
REMARK  17 active torsions:
REMARK  status: ('A' for Active; 'I' for Inactive)
REMARK    1  A    between atoms: O_1  and  C_2
REMARK    2  A    between atoms: C_2  and  C_3
REMARK    3  A    between atoms: C_3  and  C_4
REMARK    4  A    between atoms: C_4  and  C_5
REMARK    5  A    between atoms: C_5  and  C_6
REMARK    6  A    between atoms: C_6  and  C_7
REMARK    7  A    between atoms: C_7  and  C_8
REMARK    8  A    between atoms: C_8  and  C_9
REMARK    9  A    between atoms: C_9  and  C_10
REMARK   10  A    between atoms: C_11  and  C_12
REMARK   11  A    between atoms: C_12  and  C_13
REMARK   12  A    between atoms: C_13  and  C_14
REMARK   13  A    between atoms: C_14  and  C_15
REMARK   14  A    between atoms: C_15  and  C_16
REMARK   15  A    between atoms: C_16  and  C_17
REMARK   16  A    between atoms: C_17  and  C_18
REMARK   17  A    between atoms: C_18  and  C_19
REMARK                            x       y       z     vdW  Elec       q    Type
REMARK                         _______ _______ _______ _____ _____    ______ ____
ROOT
ATOM      1  C   LIG A   1      -8.620  -2.132 122.675  0.00  0.00    +0.027 C 
ENDROOT
BRANCH   1   2
ATOM      2  C   LIG A   1      -9.292  -3.242 123.448  0.00  0.00    -0.031 C 
ATOM      3  C   LIG A   1      -9.503  -3.303 124.774  0.00  0.00    -0.031 C 
BRANCH   3   4
ATOM      4  C   LIG A   1      -9.027  -2.373 125.862  0.00  0.00    +0.027 C 
BRANCH   4   5
ATOM      5  C   LIG A   1      -8.071  -2.921 126.926  0.00  0.00    +0.004 C 
BRANCH   5   6
ATOM      6  C   LIG A   1      -6.906  -1.970 127.245  0.00  0.00    +0.000 C 
BRANCH   6   7
ATOM      7  C   LIG A   1      -5.622  -2.148 126.412  0.00  0.00    +0.000 C 
BRANCH   7   8
ATOM      8  C   LIG A   1      -5.555  -1.366 125.086  0.00  0.00    -0.000 C 
BRANCH   8   9
ATOM      9  C   LIG A   1      -5.370  -2.290 123.876  0.00  0.00    -0.000 C 
BRANCH   9  10
ATOM     10  C   LIG A   1      -5.489  -3.794 124.145  0.00  0.00    -0.003 C 
ATOM     11  C   LIG A   1      -4.330  -4.610 123.598  0.00  0.00    +0.004 C 
ENDBRANCH   9  10
ENDBRANCH   8   9
ENDBRANCH   7   8
ENDBRANCH   6   7
ENDBRANCH   5   6
ENDBRANCH   4   5
ENDBRANCH   3   4
ENDBRANCH   1   2
BRANCH   1  12
ATOM     12  C   LIG A   1      -8.871  -0.784 123.331  0.00  0.00    +0.004 C 
BRANCH  12  13
ATOM     13  C   LIG A   1      -9.922   0.086 122.632  0.00  0.00    +0.000 C 
BRANCH  13  14
ATOM     14  C   LIG A   1     -10.124   1.481 123.251  0.00  0.00    +0.000 C 
BRANCH  14  15
ATOM     15  C   LIG A   1      -8.838   2.259 123.580  0.00  0.00    +0.000 C 
BRANCH  15  16
ATOM     16  C   LIG A   1      -8.186   3.048 122.438  0.00  0.00    +0.011 C 
BRANCH  16  17
ATOM     17  C   LIG A   1      -6.677   2.854 122.324  0.00  0.00    +0.120 C 
BRANCH  17  18
ATOM     18  C   LIG A   1      -5.958   3.996 122.986  0.00  0.00    +0.305 C 
ATOM     19  O   LIG A   1      -5.951   4.243 124.159  0.00  0.00    -0.251 OA
BRANCH  18  20
ATOM     20  O   LIG A   1      -5.230   4.723 122.112  0.00  0.00    -0.481 OA
ATOM     21  H   LIG A   1      -4.443   4.995 122.629  0.00  0.00    +0.295 HD
ENDBRANCH  18  20
ENDBRANCH  17  18
ENDBRANCH  16  17
ENDBRANCH  15  16
ENDBRANCH  14  15
ENDBRANCH  13  14
ENDBRANCH  12  13
ENDBRANCH   1  12
TORSDOF 16
ENDMDL
MODEL 6
REMARK VINA RESULT:      -5.0      1.781      2.738
REMARK  Name = NuBBE_2145
REMARK  17 active torsions:
REMARK  status: ('A' for Active; 'I' for Inactive)
REMARK    1  A    between atoms: O_1  and  C_2
REMARK    2  A    between atoms: C_2  and  C_3
REMARK    3  A    between atoms: C_3  and  C_4
REMARK    4  A    between atoms: C_4  and  C_5
REMARK    5  A    between atoms: C_5  and  C_6
REMARK    6  A    between atoms: C_6  and  C_7
REMARK    7  A    between atoms: C_7  and  C_8
REMARK    8  A    between atoms: C_8  and  C_9
REMARK    9  A    between atoms: C_9  and  C_10
REMARK   10  A    between atoms: C_11  and  C_12
REMARK   11  A    between atoms: C_12  and  C_13
REMARK   12  A    between atoms: C_13  and  C_14
REMARK   13  A    between atoms: C_14  and  C_15
REMARK   14  A    between atoms: C_15  and  C_16
REMARK   15  A    between atoms: C_16  and  C_17
REMARK   16  A    between atoms: C_17  and  C_18
REMARK   17  A    between atoms: C_18  and  C_19
REMARK                            x       y       z     vdW  Elec       q    Type
REMARK                         _______ _______ _______ _____ _____    ______ ____
ROOT
ATOM      1  C   LIG A   1      -6.367  -2.387 128.589  0.00  0.00    +0.027 C 
ENDROOT
BRANCH   1   2
ATOM      2  C   LIG A   1      -7.661  -2.764 129.269  0.00  0.00    -0.031 C 
ATOM      3  C   LIG A   1      -8.702  -3.429 128.738  0.00  0.00    -0.031 C 
BRANCH   3   4
ATOM      4  C   LIG A   1      -8.930  -3.864 127.312  0.00  0.00    +0.027 C 
BRANCH   4   5
ATOM      5  C   LIG A   1      -9.149  -2.786 126.245  0.00  0.00    +0.004 C 
BRANCH   5   6
ATOM      6  C   LIG A   1      -9.038  -3.321 124.808  0.00  0.00    +0.000 C 
BRANCH   6   7
ATOM      7  C   LIG A   1      -7.654  -3.222 124.140  0.00  0.00    +0.000 C 
BRANCH   7   8
ATOM      8  C   LIG A   1      -6.483  -2.809 125.052  0.00  0.00    -0.000 C 
BRANCH   8   9
ATOM      9  C   LIG A   1      -5.250  -2.373 124.251  0.00  0.00    -0.000 C 
BRANCH   9  10
ATOM     10  C   LIG A   1      -4.801  -3.314 123.129  0.00  0.00    -0.003 C 
ATOM     11  C   LIG A   1      -4.089  -4.563 123.622  0.00  0.00    +0.004 C 
ENDBRANCH   9  10
ENDBRANCH   8   9
ENDBRANCH   7   8
ENDBRANCH   6   7
ENDBRANCH   5   6
ENDBRANCH   4   5
ENDBRANCH   3   4
ENDBRANCH   1   2
BRANCH   1  12
ATOM     12  C   LIG A   1      -6.202  -0.876 128.535  0.00  0.00    +0.004 C 
BRANCH  12  13
ATOM     13  C   LIG A   1      -7.470  -0.104 128.151  0.00  0.00    +0.000 C 
BRANCH  13  14
ATOM     14  C   LIG A   1      -7.244   1.073 127.185  0.00  0.00    +0.000 C 
BRANCH  14  15
ATOM     15  C   LIG A   1      -6.805   0.694 125.760  0.00  0.00    +0.000 C 
BRANCH  15  16
ATOM     16  C   LIG A   1      -7.548   1.364 124.597  0.00  0.00    +0.011 C 
BRANCH  16  17
ATOM     17  C   LIG A   1      -7.972   0.406 123.489  0.00  0.00    +0.120 C 
BRANCH  17  18
ATOM     18  C   LIG A   1      -9.453   0.157 123.562  0.00  0.00    +0.305 C 
ATOM     19  O   LIG A   1     -10.227   0.703 124.296  0.00  0.00    -0.251 OA
BRANCH  18  20
ATOM     20  O   LIG A   1      -9.873  -0.734 122.638  0.00  0.00    -0.481 OA
ATOM     21  H   LIG A   1     -10.830  -0.828 122.820  0.00  0.00    +0.295 HD
ENDBRANCH  18  20
ENDBRANCH  17  18
ENDBRANCH  16  17
ENDBRANCH  15  16
ENDBRANCH  14  15
ENDBRANCH  13  14
ENDBRANCH  12  13
ENDBRANCH   1  12
TORSDOF 16
ENDMDL
MODEL 7
REMARK VINA RESULT:      -4.9      1.774      2.571
REMARK  Name = NuBBE_2145
REMARK  17 active torsions:
REMARK  status: ('A' for Active; 'I' for Inactive)
REMARK    1  A    between atoms: O_1  and  C_2
REMARK    2  A    between atoms: C_2  and  C_3
REMARK    3  A    between atoms: C_3  and  C_4
REMARK    4  A    between atoms: C_4  and  C_5
REMARK    5  A    between atoms: C_5  and  C_6
REMARK    6  A    between atoms: C_6  and  C_7
REMARK    7  A    between atoms: C_7  and  C_8
REMARK    8  A    between atoms: C_8  and  C_9
REMARK    9  A    between atoms: C_9  and  C_10
REMARK   10  A    between atoms: C_11  and  C_12
REMARK   11  A    between atoms: C_12  and  C_13
REMARK   12  A    between atoms: C_13  and  C_14
REMARK   13  A    between atoms: C_14  and  C_15
REMARK   14  A    between atoms: C_15  and  C_16
REMARK   15  A    between atoms: C_16  and  C_17
REMARK   16  A    between atoms: C_17  and  C_18
REMARK   17  A    between atoms: C_18  and  C_19
REMARK                            x       y       z     vdW  Elec       q    Type
REMARK                         _______ _______ _______ _____ _____    ______ ____
ROOT
ATOM      1  C   LIG A   1      -7.333  -1.716 127.090  0.00  0.00    +0.027 C 
ENDROOT
BRANCH   1   2
ATOM      2  C   LIG A   1      -8.424  -2.747 127.252  0.00  0.00    -0.031 C 
ATOM      3  C   LIG A   1      -8.841  -3.647 126.343  0.00  0.00    -0.031 C 
BRANCH   3   4
ATOM      4  C   LIG A   1      -8.445  -3.798 124.896  0.00  0.00    +0.027 C 
BRANCH   4   5
ATOM      5  C   LIG A   1      -9.431  -3.337 123.818  0.00  0.00    +0.004 C 
BRANCH   5   6
ATOM      6  C   LIG A   1      -8.940  -2.112 123.029  0.00  0.00    +0.000 C 
BRANCH   6   7
ATOM      7  C   LIG A   1      -7.868  -1.239 123.707  0.00  0.00    +0.000 C 
BRANCH   7   8
ATOM      8  C   LIG A   1      -6.554  -1.040 122.926  0.00  0.00    -0.000 C 
BRANCH   8   9
ATOM      9  C   LIG A   1      -5.779  -2.352 122.751  0.00  0.00    -0.000 C 
BRANCH   9  10
ATOM     10  C   LIG A   1      -5.225  -2.991 124.028  0.00  0.00    -0.003 C 
ATOM     11  C   LIG A   1      -4.498  -4.303 123.793  0.00  0.00    +0.004 C 
ENDBRANCH   9  10
ENDBRANCH   8   9
ENDBRANCH   7   8
ENDBRANCH   6   7
ENDBRANCH   5   6
ENDBRANCH   4   5
ENDBRANCH   3   4
ENDBRANCH   1   2
BRANCH   1  12
ATOM     12  C   LIG A   1      -7.553  -0.541 128.030  0.00  0.00    +0.004 C 
BRANCH  12  13
ATOM     13  C   LIG A   1      -6.880   0.766 127.595  0.00  0.00    +0.000 C 
BRANCH  13  14
ATOM     14  C   LIG A   1      -5.466   0.602 127.007  0.00  0.00    +0.000 C 
BRANCH  14  15
ATOM     15  C   LIG A   1      -4.988   1.740 126.089  0.00  0.00    +0.000 C 
BRANCH  15  16
ATOM     16  C   LIG A   1      -6.039   2.760 125.633  0.00  0.00    +0.011 C 
BRANCH  16  17
ATOM     17  C   LIG A   1      -6.784   2.366 124.361  0.00  0.00    +0.120 C 
BRANCH  17  18
ATOM     18  C   LIG A   1      -8.124   3.047 124.317  0.00  0.00    +0.305 C 
ATOM     19  O   LIG A   1      -8.894   3.153 125.228  0.00  0.00    -0.251 OA
BRANCH  18  20
ATOM     20  O   LIG A   1      -8.374   3.616 123.118  0.00  0.00    -0.481 OA
ATOM     21  H   LIG A   1      -7.658   4.277 123.017  0.00  0.00    +0.295 HD
ENDBRANCH  18  20
ENDBRANCH  17  18
ENDBRANCH  16  17
ENDBRANCH  15  16
ENDBRANCH  14  15
ENDBRANCH  13  14
ENDBRANCH  12  13
ENDBRANCH   1  12
TORSDOF 16
ENDMDL
MODEL 8
REMARK VINA RESULT:      -4.9      1.931      5.057
REMARK  Name = NuBBE_2145
REMARK  17 active torsions:
REMARK  status: ('A' for Active; 'I' for Inactive)
REMARK    1  A    between atoms: O_1  and  C_2
REMARK    2  A    between atoms: C_2  and  C_3
REMARK    3  A    between atoms: C_3  and  C_4
REMARK    4  A    between atoms: C_4  and  C_5
REMARK    5  A    between atoms: C_5  and  C_6
REMARK    6  A    between atoms: C_6  and  C_7
REMARK    7  A    between atoms: C_7  and  C_8
REMARK    8  A    between atoms: C_8  and  C_9
REMARK    9  A    between atoms: C_9  and  C_10
REMARK   10  A    between atoms: C_11  and  C_12
REMARK   11  A    between atoms: C_12  and  C_13
REMARK   12  A    between atoms: C_13  and  C_14
REMARK   13  A    between atoms: C_14  and  C_15
REMARK   14  A    between atoms: C_15  and  C_16
REMARK   15  A    between atoms: C_16  and  C_17
REMARK   16  A    between atoms: C_17  and  C_18
REMARK   17  A    between atoms: C_18  and  C_19
REMARK                            x       y       z     vdW  Elec       q    Type
REMARK                         _______ _______ _______ _____ _____    ______ ____
ROOT
ATOM      1  C   LIG A   1      -5.716  -2.146 126.129  0.00  0.00    +0.027 C 
ENDROOT
BRANCH   1   2
ATOM      2  C   LIG A   1      -6.901  -1.268 126.453  0.00  0.00    -0.031 C 
ATOM      3  C   LIG A   1      -8.126  -1.659 126.847  0.00  0.00    -0.031 C 
BRANCH   3   4
ATOM      4  C   LIG A   1      -8.697  -3.051 126.949  0.00  0.00    +0.027 C 
BRANCH   4   5
ATOM      5  C   LIG A   1      -8.582  -3.792 128.285  0.00  0.00    +0.004 C 
BRANCH   5   6
ATOM      6  C   LIG A   1      -8.376  -2.854 129.486  0.00  0.00    +0.000 C 
BRANCH   6   7
ATOM      7  C   LIG A   1      -7.289  -3.259 130.499  0.00  0.00    +0.000 C 
BRANCH   7   8
ATOM      8  C   LIG A   1      -6.203  -4.225 129.987  0.00  0.00    -0.000 C 
BRANCH   8   9
ATOM      9  C   LIG A   1      -4.845  -3.978 130.654  0.00  0.00    -0.000 C 
BRANCH   9  10
ATOM     10  C   LIG A   1      -3.862  -3.088 129.887  0.00  0.00    -0.003 C 
ATOM     11  C   LIG A   1      -3.003  -3.843 128.886  0.00  0.00    +0.004 C 
ENDBRANCH   9  10
ENDBRANCH   8   9
ENDBRANCH   7   8
ENDBRANCH   6   7
ENDBRANCH   5   6
ENDBRANCH   4   5
ENDBRANCH   3   4
ENDBRANCH   1   2
BRANCH   1  12
ATOM     12  C   LIG A   1      -5.328  -2.014 124.665  0.00  0.00    +0.004 C 
BRANCH  12  13
ATOM     13  C   LIG A   1      -6.217  -2.795 123.690  0.00  0.00    +0.000 C 
BRANCH  13  14
ATOM     14  C   LIG A   1      -7.082  -1.923 122.761  0.00  0.00    +0.000 C 
BRANCH  14  15
ATOM     15  C   LIG A   1      -8.583  -1.878 123.094  0.00  0.00    +0.000 C 
BRANCH  15  16
ATOM     16  C   LIG A   1      -9.265  -0.504 123.068  0.00  0.00    +0.011 C 
BRANCH  16  17
ATOM     17  C   LIG A   1      -8.494   0.592 123.795  0.00  0.00    +0.120 C 
BRANCH  17  18
ATOM     18  C   LIG A   1      -9.115   1.932 123.516  0.00  0.00    +0.305 C 
ATOM     19  O   LIG A   1      -9.162   2.483 122.452  0.00  0.00    -0.251 OA
BRANCH  18  20
ATOM     20  O   LIG A   1      -9.705   2.465 124.607  0.00  0.00    -0.481 OA
ATOM     21  H   LIG A   1     -10.451   1.858 124.793  0.00  0.00    +0.295 HD
ENDBRANCH  18  20
ENDBRANCH  17  18
ENDBRANCH  16  17
ENDBRANCH  15  16
ENDBRANCH  14  15
ENDBRANCH  13  14
ENDBRANCH  12  13
ENDBRANCH   1  12
TORSDOF 16
ENDMDL
MODEL 9
REMARK VINA RESULT:      -4.9      2.100      4.175
REMARK  Name = NuBBE_2145
REMARK  17 active torsions:
REMARK  status: ('A' for Active; 'I' for Inactive)
REMARK    1  A    between atoms: O_1  and  C_2
REMARK    2  A    between atoms: C_2  and  C_3
REMARK    3  A    between atoms: C_3  and  C_4
REMARK    4  A    between atoms: C_4  and  C_5
REMARK    5  A    between atoms: C_5  and  C_6
REMARK    6  A    between atoms: C_6  and  C_7
REMARK    7  A    between atoms: C_7  and  C_8
REMARK    8  A    between atoms: C_8  and  C_9
REMARK    9  A    between atoms: C_9  and  C_10
REMARK   10  A    between atoms: C_11  and  C_12
REMARK   11  A    between atoms: C_12  and  C_13
REMARK   12  A    between atoms: C_13  and  C_14
REMARK   13  A    between atoms: C_14  and  C_15
REMARK   14  A    between atoms: C_15  and  C_16
REMARK   15  A    between atoms: C_16  and  C_17
REMARK   16  A    between atoms: C_17  and  C_18
REMARK   17  A    between atoms: C_18  and  C_19
REMARK                            x       y       z     vdW  Elec       q    Type
REMARK                         _______ _______ _______ _____ _____    ______ ____
ROOT
ATOM      1  C   LIG A   1      -7.053  -2.310 129.401  0.00  0.00    +0.027 C 
ENDROOT
BRANCH   1   2
ATOM      2  C   LIG A   1      -7.826  -1.242 130.137  0.00  0.00    -0.031 C 
ATOM      3  C   LIG A   1      -7.904   0.066 129.836  0.00  0.00    -0.031 C 
BRANCH   3   4
ATOM      4  C   LIG A   1      -7.157   0.851 128.788  0.00  0.00    +0.027 C 
BRANCH   4   5
ATOM      5  C   LIG A   1      -7.908   1.281 127.523  0.00  0.00    +0.004 C 
BRANCH   5   6
ATOM      6  C   LIG A   1      -7.403   0.582 126.250  0.00  0.00    +0.000 C 
BRANCH   6   7
ATOM      7  C   LIG A   1      -6.259  -0.434 126.427  0.00  0.00    +0.000 C 
BRANCH   7   8
ATOM      8  C   LIG A   1      -5.503  -0.842 125.148  0.00  0.00    -0.000 C 
BRANCH   8   9
ATOM      9  C   LIG A   1      -5.195  -2.344 125.110  0.00  0.00    -0.000 C 
BRANCH   9  10
ATOM     10  C   LIG A   1      -5.078  -2.979 123.721  0.00  0.00    -0.003 C 
ATOM     11  C   LIG A   1      -4.749  -4.462 123.749  0.00  0.00    +0.004 C 
ENDBRANCH   9  10
ENDBRANCH   8   9
ENDBRANCH   7   8
ENDBRANCH   6   7
ENDBRANCH   5   6
ENDBRANCH   4   5
ENDBRANCH   3   4
ENDBRANCH   1   2
BRANCH   1  12
ATOM     12  C   LIG A   1      -7.834  -3.614 129.358  0.00  0.00    +0.004 C 
BRANCH  12  13
ATOM     13  C   LIG A   1      -8.805  -3.744 128.178  0.00  0.00    +0.000 C 
BRANCH  13  14
ATOM     14  C   LIG A   1      -8.590  -2.722 127.047  0.00  0.00    +0.000 C 
BRANCH  14  15
ATOM     15  C   LIG A   1      -9.431  -2.943 125.778  0.00  0.00    +0.000 C 
BRANCH  15  16
ATOM     16  C   LIG A   1      -8.719  -3.551 124.563  0.00  0.00    +0.011 C 
BRANCH  16  17
ATOM     17  C   LIG A   1      -9.326  -3.159 123.220  0.00  0.00    +0.120 C 
BRANCH  17  18
ATOM     18  C   LIG A   1      -9.085  -1.699 122.952  0.00  0.00    +0.305 C 
ATOM     19  O   LIG A   1      -8.017  -1.161 122.875  0.00  0.00    -0.251 OA
BRANCH  18  20
ATOM     20  O   LIG A   1     -10.231  -1.019 122.730  0.00  0.00    -0.481 OA
ATOM     21  H   LIG A   1     -10.922  -1.713 122.735  0.00  0.00    +0.295 HD
ENDBRANCH  18  20
ENDBRANCH  17  18
ENDBRANCH  16  17
ENDBRANCH  15  16
ENDBRANCH  14  15
ENDBRANCH  13  14
ENDBRANCH  12  13
ENDBRANCH   1  12
TORSDOF 16
ENDMDL
