MODEL 1
REMARK VINA RESULT:      -7.4      0.000      0.000
REMARK  Name = NuBBE_1303
REMARK  12 active torsions:
REMARK  status: ('A' for Active; 'I' for Inactive)
REMARK    1  A    between atoms: C_2  and  C_3
REMARK    2  A    between atoms: C_2  and  C_15
REMARK    3  A    between atoms: C_4  and  C_5
REMARK    4  A    between atoms: C_8  and  O_13
REMARK    5  A    between atoms: C_9  and  O_10
REMARK    6  A    between atoms: O_10  and  C_11
REMARK    7  A    between atoms: O_13  and  C_14
REMARK    8  A    between atoms: C_18  and  C_19
REMARK    9  A    between atoms: C_18  and  C_29
REMARK   10  A    between atoms: C_23  and  O_27
REMARK   11  A    between atoms: C_25  and  O_26
REMARK   12  A    between atoms: O_27  and  C_28
REMARK                            x       y       z     vdW  Elec       q    Type
REMARK                         _______ _______ _______ _____ _____    ______ ____
ROOT
ATOM      1  C   LIG A   1      -8.534   4.852 129.634  0.00  0.00    +0.105 A 
ATOM      2  C   LIG A   1      -8.685   4.433 130.976  0.00  0.00    +0.147 A 
ATOM      3  O   LIG A   1      -7.814   3.498 131.479  0.00  0.00    -0.481 OA
ATOM      4  C   LIG A   1      -8.297   2.663 132.553  0.00  0.00    +0.123 C 
ATOM      5  C   LIG A   1      -9.100   1.498 131.960  0.00  0.00    +0.060 C 
ATOM      6  C   LIG A   1      -9.140   3.427 133.543  0.00  0.00    +0.020 C 
ATOM      7  C   LIG A   1      -9.783   4.548 133.195  0.00  0.00    +0.015 C 
ATOM      8  C   LIG A   1      -9.676   5.006 131.806  0.00  0.00    +0.059 A 
ATOM      9  C   LIG A   1     -10.528   6.002 131.297  0.00  0.00    +0.134 A 
ATOM     10  C   LIG A   1     -10.397   6.395 129.965  0.00  0.00    +0.092 A 
ATOM     11  C   LIG A   1      -9.427   5.813 129.146  0.00  0.00    +0.135 A 
ATOM     12  C   LIG A   1      -7.043   2.123 133.250  0.00  0.00    +0.060 C 
ENDROOT
BRANCH   1  14
ATOM     13  O   LIG A   1      -6.286   4.669 128.820  0.00  0.00    -0.287 OA
ATOM     14  C   LIG A   1      -7.452   4.258 128.782  0.00  0.00    +0.193 C 
BRANCH  14  15
ATOM     15  C   LIG A   1      -7.830   3.123 127.886  0.00  0.00    +0.052 C 
ATOM     16  C   LIG A   1      -7.625   1.843 128.220  0.00  0.00    +0.012 C 
BRANCH  16  17
ATOM     17  C   LIG A   1      -8.105   0.724 127.390  0.00  0.00    -0.021 A 
ATOM     18  C   LIG A   1      -7.780  -0.612 127.639  0.00  0.00    +0.012 A 
ATOM     19  C   LIG A   1      -8.263  -1.627 126.807  0.00  0.00    +0.050 A 
ATOM     20  C   LIG A   1      -9.068  -1.329 125.700  0.00  0.00    +0.162 A 
ATOM     21  C   LIG A   1      -9.403   0.009 125.441  0.00  0.00    +0.162 A 
ATOM     22  C   LIG A   1      -8.936   1.015 126.302  0.00  0.00    +0.057 A 
BRANCH  21  23
ATOM     23  O   LIG A   1     -10.243   0.294 124.397  0.00  0.00    -0.491 OA
ATOM     24  C   LIG A   1      -9.968   1.489 123.674  0.00  0.00    +0.277 C 
ENDBRANCH  21  23
BRANCH  20  25
ATOM     25  O   LIG A   1      -9.471  -2.440 125.004  0.00  0.00    -0.491 OA
ATOM     26  C   LIG A   1      -8.671  -2.827 123.892  0.00  0.00    +0.277 C 
ENDBRANCH  20  25
ENDBRANCH  16  17
ENDBRANCH  14  15
ENDBRANCH   1  14
BRANCH  11  27
ATOM     27  O   LIG A   1      -9.408   6.190 127.827  0.00  0.00    -0.506 OA
ATOM     28  H   LIG A   1     -10.189   5.844 127.362  0.00  0.00    +0.292 HD
ENDBRANCH  11  27
BRANCH   9  29
ATOM     29  O   LIG A   1     -11.467   6.515 132.157  0.00  0.00    -0.494 OA
ATOM     30  C   LIG A   1     -12.577   7.200 131.588  0.00  0.00    +0.277 C 
ENDBRANCH   9  29
TORSDOF 7
ENDMDL
MODEL 2
REMARK VINA RESULT:      -7.4      4.666      7.873
REMARK  Name = NuBBE_1303
REMARK  12 active torsions:
REMARK  status: ('A' for Active; 'I' for Inactive)
REMARK    1  A    between atoms: C_2  and  C_3
REMARK    2  A    between atoms: C_2  and  C_15
REMARK    3  A    between atoms: C_4  and  C_5
REMARK    4  A    between atoms: C_8  and  O_13
REMARK    5  A    between atoms: C_9  and  O_10
REMARK    6  A    between atoms: O_10  and  C_11
REMARK    7  A    between atoms: O_13  and  C_14
REMARK    8  A    between atoms: C_18  and  C_19
REMARK    9  A    between atoms: C_18  and  C_29
REMARK   10  A    between atoms: C_23  and  O_27
REMARK   11  A    between atoms: C_25  and  O_26
REMARK   12  A    between atoms: O_27  and  C_28
REMARK                            x       y       z     vdW  Elec       q    Type
REMARK                         _______ _______ _______ _____ _____    ______ ____
ROOT
ATOM      1  C   LIG A   1      -5.613   5.150 131.153  0.00  0.00    +0.105 A 
ATOM      2  C   LIG A   1      -4.666   5.364 130.125  0.00  0.00    +0.147 A 
ATOM      3  O   LIG A   1      -4.913   4.842 128.878  0.00  0.00    -0.481 OA
ATOM      4  C   LIG A   1      -3.767   4.535 128.057  0.00  0.00    +0.123 C 
ATOM      5  C   LIG A   1      -3.220   3.157 128.453  0.00  0.00    +0.060 C 
ATOM      6  C   LIG A   1      -2.682   5.577 128.169  0.00  0.00    +0.020 C 
ATOM      7  C   LIG A   1      -2.569   6.356 129.251  0.00  0.00    +0.015 C 
ATOM      8  C   LIG A   1      -3.514   6.150 130.354  0.00  0.00    +0.059 A 
ATOM      9  C   LIG A   1      -3.297   6.727 131.619  0.00  0.00    +0.134 A 
ATOM     10  C   LIG A   1      -4.218   6.492 132.640  0.00  0.00    +0.092 A 
ATOM     11  C   LIG A   1      -5.345   5.700 132.412  0.00  0.00    +0.135 A 
ATOM     12  C   LIG A   1      -4.292   4.487 126.618  0.00  0.00    +0.060 C 
ENDROOT
BRANCH   1  14
ATOM     13  O   LIG A   1      -6.885   3.119 131.052  0.00  0.00    -0.287 OA
ATOM     14  C   LIG A   1      -6.847   4.343 130.876  0.00  0.00    +0.193 C 
BRANCH  14  15
ATOM     15  C   LIG A   1      -8.053   5.080 130.390  0.00  0.00    +0.052 C 
ATOM     16  C   LIG A   1      -8.924   5.662 131.222  0.00  0.00    +0.012 C 
BRANCH  16  17
ATOM     17  C   LIG A   1     -10.046   6.488 130.739  0.00  0.00    -0.021 A 
ATOM     18  C   LIG A   1     -11.244   6.644 131.442  0.00  0.00    +0.012 A 
ATOM     19  C   LIG A   1     -12.273   7.436 130.924  0.00  0.00    +0.050 A 
ATOM     20  C   LIG A   1     -12.135   8.077 129.687  0.00  0.00    +0.162 A 
ATOM     21  C   LIG A   1     -10.936   7.930 128.972  0.00  0.00    +0.162 A 
ATOM     22  C   LIG A   1      -9.900   7.156 129.519  0.00  0.00    +0.057 A 
BRANCH  21  23
ATOM     23  O   LIG A   1     -10.777   8.609 127.793  0.00  0.00    -0.491 OA
ATOM     24  C   LIG A   1     -10.945   7.852 126.600  0.00  0.00    +0.277 C 
ENDBRANCH  21  23
BRANCH  20  25
ATOM     25  O   LIG A   1     -13.228   8.829 129.337  0.00  0.00    -0.491 OA
ATOM     26  C   LIG A   1     -13.210  10.202 129.712  0.00  0.00    +0.277 C 
ENDBRANCH  20  25
ENDBRANCH  16  17
ENDBRANCH  14  15
ENDBRANCH   1  14
BRANCH  11  27
ATOM     27  O   LIG A   1      -6.164   5.446 133.482  0.00  0.00    -0.506 OA
ATOM     28  H   LIG A   1      -5.638   5.229 134.270  0.00  0.00    +0.292 HD
ENDBRANCH  11  27
BRANCH   9  29
ATOM     29  O   LIG A   1      -2.159   7.478 131.772  0.00  0.00    -0.494 OA
ATOM     30  C   LIG A   1      -2.184   8.521 132.740  0.00  0.00    +0.277 C 
ENDBRANCH   9  29
TORSDOF 7
ENDMDL
MODEL 3
REMARK VINA RESULT:      -7.4      5.249      7.742
REMARK  Name = NuBBE_1303
REMARK  12 active torsions:
REMARK  status: ('A' for Active; 'I' for Inactive)
REMARK    1  A    between atoms: C_2  and  C_3
REMARK    2  A    between atoms: C_2  and  C_15
REMARK    3  A    between atoms: C_4  and  C_5
REMARK    4  A    between atoms: C_8  and  O_13
REMARK    5  A    between atoms: C_9  and  O_10
REMARK    6  A    between atoms: O_10  and  C_11
REMARK    7  A    between atoms: O_13  and  C_14
REMARK    8  A    between atoms: C_18  and  C_19
REMARK    9  A    between atoms: C_18  and  C_29
REMARK   10  A    between atoms: C_23  and  O_27
REMARK   11  A    between atoms: C_25  and  O_26
REMARK   12  A    between atoms: O_27  and  C_28
REMARK                            x       y       z     vdW  Elec       q    Type
REMARK                         _______ _______ _______ _____ _____    ______ ____
ROOT
ATOM      1  C   LIG A   1      -7.077   5.037 133.455  0.00  0.00    +0.105 A 
ATOM      2  C   LIG A   1      -5.786   5.613 133.434  0.00  0.00    +0.147 A 
ATOM      3  O   LIG A   1      -5.116   5.692 132.237  0.00  0.00    -0.481 OA
ATOM      4  C   LIG A   1      -3.673   5.697 132.293  0.00  0.00    +0.123 C 
ATOM      5  C   LIG A   1      -3.170   4.251 132.403  0.00  0.00    +0.060 C 
ATOM      6  C   LIG A   1      -3.143   6.522 133.439  0.00  0.00    +0.020 C 
ATOM      7  C   LIG A   1      -3.878   6.752 134.532  0.00  0.00    +0.015 C 
ATOM      8  C   LIG A   1      -5.214   6.152 134.608  0.00  0.00    +0.059 A 
ATOM      9  C   LIG A   1      -5.931   6.116 135.819  0.00  0.00    +0.134 A 
ATOM     10  C   LIG A   1      -7.194   5.523 135.844  0.00  0.00    +0.092 A 
ATOM     11  C   LIG A   1      -7.745   4.976 134.683  0.00  0.00    +0.135 A 
ATOM     12  C   LIG A   1      -3.212   6.303 130.962  0.00  0.00    +0.060 C 
ENDROOT
BRANCH   1  14
ATOM     13  O   LIG A   1      -7.458   3.353 131.789  0.00  0.00    -0.287 OA
ATOM     14  C   LIG A   1      -7.678   4.504 132.188  0.00  0.00    +0.193 C 
BRANCH  14  15
ATOM     15  C   LIG A   1      -8.578   5.417 131.419  0.00  0.00    +0.052 C 
ATOM     16  C   LIG A   1      -9.881   5.545 131.698  0.00  0.00    +0.012 C 
BRANCH  16  17
ATOM     17  C   LIG A   1     -10.740   6.531 131.019  0.00  0.00    -0.021 A 
ATOM     18  C   LIG A   1     -11.985   6.933 131.510  0.00  0.00    +0.012 A 
ATOM     19  C   LIG A   1     -12.756   7.868 130.812  0.00  0.00    +0.050 A 
ATOM     20  C   LIG A   1     -12.307   8.411 129.601  0.00  0.00    +0.162 A 
ATOM     21  C   LIG A   1     -11.057   8.016 129.098  0.00  0.00    +0.162 A 
ATOM     22  C   LIG A   1     -10.281   7.099 129.825  0.00  0.00    +0.057 A 
BRANCH  21  23
ATOM     23  O   LIG A   1     -10.590   8.596 127.948  0.00  0.00    -0.491 OA
ATOM     24  C   LIG A   1     -10.873   7.908 126.735  0.00  0.00    +0.277 C 
ENDBRANCH  21  23
BRANCH  20  25
ATOM     25  O   LIG A   1     -13.173   9.326 129.059  0.00  0.00    -0.491 OA
ATOM     26  C   LIG A   1     -13.360  10.539 129.780  0.00  0.00    +0.277 C 
ENDBRANCH  20  25
ENDBRANCH  16  17
ENDBRANCH  14  15
ENDBRANCH   1  14
BRANCH  11  27
ATOM     27  O   LIG A   1      -8.953   4.338 134.799  0.00  0.00    -0.506 OA
ATOM     28  H   LIG A   1      -9.467   4.429 133.979  0.00  0.00    +0.292 HD
ENDBRANCH  11  27
BRANCH   9  29
ATOM     29  O   LIG A   1      -5.318   6.657 136.921  0.00  0.00    -0.494 OA
ATOM     30  C   LIG A   1      -5.032   5.787 138.009  0.00  0.00    +0.277 C 
ENDBRANCH   9  29
TORSDOF 7
ENDMDL
MODEL 4
REMARK VINA RESULT:      -7.3      3.510      7.581
REMARK  Name = NuBBE_1303
REMARK  12 active torsions:
REMARK  status: ('A' for Active; 'I' for Inactive)
REMARK    1  A    between atoms: C_2  and  C_3
REMARK    2  A    between atoms: C_2  and  C_15
REMARK    3  A    between atoms: C_4  and  C_5
REMARK    4  A    between atoms: C_8  and  O_13
REMARK    5  A    between atoms: C_9  and  O_10
REMARK    6  A    between atoms: O_10  and  C_11
REMARK    7  A    between atoms: O_13  and  C_14
REMARK    8  A    between atoms: C_18  and  C_19
REMARK    9  A    between atoms: C_18  and  C_29
REMARK   10  A    between atoms: C_23  and  O_27
REMARK   11  A    between atoms: C_25  and  O_26
REMARK   12  A    between atoms: O_27  and  C_28
REMARK                            x       y       z     vdW  Elec       q    Type
REMARK                         _______ _______ _______ _____ _____    ______ ____
ROOT
ATOM      1  C   LIG A   1      -8.074   3.471 132.674  0.00  0.00    +0.105 A 
ATOM      2  C   LIG A   1      -6.750   3.748 132.262  0.00  0.00    +0.147 A 
ATOM      3  O   LIG A   1      -6.138   4.887 132.725  0.00  0.00    -0.481 OA
ATOM      4  C   LIG A   1      -5.109   5.463 131.892  0.00  0.00    +0.123 C 
ATOM      5  C   LIG A   1      -5.766   6.334 130.813  0.00  0.00    +0.060 C 
ATOM      6  C   LIG A   1      -4.231   4.416 131.252  0.00  0.00    +0.020 C 
ATOM      7  C   LIG A   1      -4.667   3.167 131.050  0.00  0.00    +0.015 C 
ATOM      8  C   LIG A   1      -6.044   2.842 131.438  0.00  0.00    +0.059 A 
ATOM      9  C   LIG A   1      -6.660   1.651 131.013  0.00  0.00    +0.134 A 
ATOM     10  C   LIG A   1      -7.976   1.392 131.397  0.00  0.00    +0.092 A 
ATOM     11  C   LIG A   1      -8.674   2.300 132.198  0.00  0.00    +0.135 A 
ATOM     12  C   LIG A   1      -4.269   6.343 132.824  0.00  0.00    +0.060 C 
ENDROOT
BRANCH   1  14
ATOM     13  O   LIG A   1      -8.703   4.356 134.812  0.00  0.00    -0.287 OA
ATOM     14  C   LIG A   1      -8.790   4.428 133.580  0.00  0.00    +0.193 C 
BRANCH  14  15
ATOM     15  C   LIG A   1      -9.612   5.497 132.936  0.00  0.00    +0.052 C 
ATOM     16  C   LIG A   1      -9.806   5.557 131.613  0.00  0.00    +0.012 C 
BRANCH  16  17
ATOM     17  C   LIG A   1     -10.711   6.540 130.991  0.00  0.00    -0.021 A 
ATOM     18  C   LIG A   1     -11.942   6.907 131.542  0.00  0.00    +0.012 A 
ATOM     19  C   LIG A   1     -12.759   7.842 130.896  0.00  0.00    +0.050 A 
ATOM     20  C   LIG A   1     -12.370   8.418 129.680  0.00  0.00    +0.162 A 
ATOM     21  C   LIG A   1     -11.134   8.059 129.119  0.00  0.00    +0.162 A 
ATOM     22  C   LIG A   1     -10.313   7.142 129.793  0.00  0.00    +0.057 A 
BRANCH  21  23
ATOM     23  O   LIG A   1     -10.726   8.672 127.963  0.00  0.00    -0.491 OA
ATOM     24  C   LIG A   1     -10.857   7.913 126.766  0.00  0.00    +0.277 C 
ENDBRANCH  21  23
BRANCH  20  25
ATOM     25  O   LIG A   1     -13.275   9.328 129.195  0.00  0.00    -0.491 OA
ATOM     26  C   LIG A   1     -13.309  10.601 129.829  0.00  0.00    +0.277 C 
ENDBRANCH  20  25
ENDBRANCH  16  17
ENDBRANCH  14  15
ENDBRANCH   1  14
BRANCH  11  27
ATOM     27  O   LIG A   1      -9.988   2.019 132.469  0.00  0.00    -0.506 OA
ATOM     28  H   LIG A   1     -10.211   2.274 133.380  0.00  0.00    +0.292 HD
ENDBRANCH  11  27
BRANCH   9  29
ATOM     29  O   LIG A   1      -5.918   0.817 130.214  0.00  0.00    -0.494 OA
ATOM     30  C   LIG A   1      -6.424   0.528 128.916  0.00  0.00    +0.277 C 
ENDBRANCH   9  29
TORSDOF 7
ENDMDL
MODEL 5
REMARK VINA RESULT:      -7.2      2.073      7.969
REMARK  Name = NuBBE_1303
REMARK  12 active torsions:
REMARK  status: ('A' for Active; 'I' for Inactive)
REMARK    1  A    between atoms: C_2  and  C_3
REMARK    2  A    between atoms: C_2  and  C_15
REMARK    3  A    between atoms: C_4  and  C_5
REMARK    4  A    between atoms: C_8  and  O_13
REMARK    5  A    between atoms: C_9  and  O_10
REMARK    6  A    between atoms: O_10  and  C_11
REMARK    7  A    between atoms: O_13  and  C_14
REMARK    8  A    between atoms: C_18  and  C_19
REMARK    9  A    between atoms: C_18  and  C_29
REMARK   10  A    between atoms: C_23  and  O_27
REMARK   11  A    between atoms: C_25  and  O_26
REMARK   12  A    between atoms: O_27  and  C_28
REMARK                            x       y       z     vdW  Elec       q    Type
REMARK                         _______ _______ _______ _____ _____    ______ ____
ROOT
ATOM      1  C   LIG A   1      -7.730   0.111 126.704  0.00  0.00    +0.105 A 
ATOM      2  C   LIG A   1      -7.964  -1.108 127.381  0.00  0.00    +0.147 A 
ATOM      3  O   LIG A   1      -7.605  -1.210 128.704  0.00  0.00    -0.481 OA
ATOM      4  C   LIG A   1      -7.282  -2.528 129.195  0.00  0.00    +0.123 C 
ATOM      5  C   LIG A   1      -5.823  -2.852 128.843  0.00  0.00    +0.060 C 
ATOM      6  C   LIG A   1      -8.199  -3.591 128.643  0.00  0.00    +0.020 C 
ATOM      7  C   LIG A   1      -8.842  -3.424 127.482  0.00  0.00    +0.015 C 
ATOM      8  C   LIG A   1      -8.609  -2.185 126.732  0.00  0.00    +0.059 A 
ATOM      9  C   LIG A   1      -9.023  -2.052 125.394  0.00  0.00    +0.134 A 
ATOM     10  C   LIG A   1      -8.767  -0.859 124.718  0.00  0.00    +0.092 A 
ATOM     11  C   LIG A   1      -8.113   0.195 125.361  0.00  0.00    +0.135 A 
ATOM     12  C   LIG A   1      -7.439  -2.449 130.718  0.00  0.00    +0.060 C 
ENDROOT
BRANCH   1  14
ATOM     13  O   LIG A   1      -5.848   1.348 127.528  0.00  0.00    -0.287 OA
ATOM     14  C   LIG A   1      -7.078   1.253 127.425  0.00  0.00    +0.193 C 
BRANCH  14  15
ATOM     15  C   LIG A   1      -7.973   2.297 128.009  0.00  0.00    +0.052 C 
ATOM     16  C   LIG A   1      -8.186   2.407 129.326  0.00  0.00    +0.012 C 
BRANCH  16  17
ATOM     17  C   LIG A   1      -8.973   3.508 129.909  0.00  0.00    -0.021 A 
ATOM     18  C   LIG A   1     -10.332   3.402 130.217  0.00  0.00    +0.012 A 
ATOM     19  C   LIG A   1     -11.023   4.489 130.763  0.00  0.00    +0.050 A 
ATOM     20  C   LIG A   1     -10.377   5.709 130.998  0.00  0.00    +0.162 A 
ATOM     21  C   LIG A   1      -9.011   5.827 130.695  0.00  0.00    +0.162 A 
ATOM     22  C   LIG A   1      -8.323   4.719 130.175  0.00  0.00    +0.057 A 
BRANCH  21  23
ATOM     23  O   LIG A   1      -8.364   6.999 130.985  0.00  0.00    -0.491 OA
ATOM     24  C   LIG A   1      -6.953   6.918 131.149  0.00  0.00    +0.277 C 
ENDBRANCH  21  23
BRANCH  20  25
ATOM     25  O   LIG A   1     -11.194   6.661 131.554  0.00  0.00    -0.491 OA
ATOM     26  C   LIG A   1     -12.415   6.933 130.877  0.00  0.00    +0.277 C 
ENDBRANCH  20  25
ENDBRANCH  16  17
ENDBRANCH  14  15
ENDBRANCH   1  14
BRANCH  11  27
ATOM     27  O   LIG A   1      -7.823   1.306 124.612  0.00  0.00    -0.506 OA
ATOM     28  H   LIG A   1      -7.940   2.114 125.140  0.00  0.00    +0.292 HD
ENDBRANCH  11  27
BRANCH   9  29
ATOM     29  O   LIG A   1      -9.642  -3.136 124.824  0.00  0.00    -0.494 OA
ATOM     30  C   LIG A   1      -9.531  -3.293 123.414  0.00  0.00    +0.277 C 
ENDBRANCH   9  29
TORSDOF 7
ENDMDL
MODEL 6
REMARK VINA RESULT:      -7.2      4.043      7.733
REMARK  Name = NuBBE_1303
REMARK  12 active torsions:
REMARK  status: ('A' for Active; 'I' for Inactive)
REMARK    1  A    between atoms: C_2  and  C_3
REMARK    2  A    between atoms: C_2  and  C_15
REMARK    3  A    between atoms: C_4  and  C_5
REMARK    4  A    between atoms: C_8  and  O_13
REMARK    5  A    between atoms: C_9  and  O_10
REMARK    6  A    between atoms: O_10  and  C_11
REMARK    7  A    between atoms: O_13  and  C_14
REMARK    8  A    between atoms: C_18  and  C_19
REMARK    9  A    between atoms: C_18  and  C_29
REMARK   10  A    between atoms: C_23  and  O_27
REMARK   11  A    between atoms: C_25  and  O_26
REMARK   12  A    between atoms: O_27  and  C_28
REMARK                            x       y       z     vdW  Elec       q    Type
REMARK                         _______ _______ _______ _____ _____    ______ ____
ROOT
ATOM      1  C   LIG A   1      -5.029   3.415 130.173  0.00  0.00    +0.105 A 
ATOM      2  C   LIG A   1      -4.146   4.519 130.200  0.00  0.00    +0.147 A 
ATOM      3  O   LIG A   1      -4.172   5.361 131.286  0.00  0.00    -0.481 OA
ATOM      4  C   LIG A   1      -3.762   6.728 131.065  0.00  0.00    +0.123 C 
ATOM      5  C   LIG A   1      -4.950   7.523 130.505  0.00  0.00    +0.060 C 
ATOM      6  C   LIG A   1      -2.579   6.833 130.135  0.00  0.00    +0.020 C 
ATOM      7  C   LIG A   1      -2.307   5.876 129.241  0.00  0.00    +0.015 C 
ATOM      8  C   LIG A   1      -3.211   4.725 129.160  0.00  0.00    +0.059 A 
ATOM      9  C   LIG A   1      -3.155   3.826 128.079  0.00  0.00    +0.134 A 
ATOM     10  C   LIG A   1      -4.045   2.752 128.039  0.00  0.00    +0.092 A 
ATOM     11  C   LIG A   1      -4.978   2.566 129.063  0.00  0.00    +0.135 A 
ATOM     12  C   LIG A   1      -3.384   7.272 132.447  0.00  0.00    +0.060 C 
ENDROOT
BRANCH   1  14
ATOM     13  O   LIG A   1      -5.655   2.605 132.342  0.00  0.00    -0.287 OA
ATOM     14  C   LIG A   1      -5.986   3.197 131.307  0.00  0.00    +0.193 C 
BRANCH  14  15
ATOM     15  C   LIG A   1      -7.370   3.739 131.150  0.00  0.00    +0.052 C 
ATOM     16  C   LIG A   1      -7.689   4.999 131.470  0.00  0.00    +0.012 C 
BRANCH  16  17
ATOM     17  C   LIG A   1      -9.023   5.568 131.205  0.00  0.00    -0.021 A 
ATOM     18  C   LIG A   1      -9.914   5.940 132.214  0.00  0.00    +0.012 A 
ATOM     19  C   LIG A   1     -11.170   6.467 131.894  0.00  0.00    +0.050 A 
ATOM     20  C   LIG A   1     -11.567   6.620 130.560  0.00  0.00    +0.162 A 
ATOM     21  C   LIG A   1     -10.679   6.251 129.537  0.00  0.00    +0.162 A 
ATOM     22  C   LIG A   1      -9.411   5.751 129.873  0.00  0.00    +0.057 A 
BRANCH  21  23
ATOM     23  O   LIG A   1     -11.043   6.461 128.233  0.00  0.00    -0.491 OA
ATOM     24  C   LIG A   1     -10.634   7.695 127.654  0.00  0.00    +0.277 C 
ENDBRANCH  21  23
BRANCH  20  25
ATOM     25  O   LIG A   1     -12.817   7.169 130.423  0.00  0.00    -0.491 OA
ATOM     26  C   LIG A   1     -12.897   8.590 130.414  0.00  0.00    +0.277 C 
ENDBRANCH  20  25
ENDBRANCH  16  17
ENDBRANCH  14  15
ENDBRANCH   1  14
BRANCH  11  27
ATOM     27  O   LIG A   1      -5.873   1.538 128.918  0.00  0.00    -0.506 OA
ATOM     28  H   LIG A   1      -5.431   0.680 129.033  0.00  0.00    +0.292 HD
ENDBRANCH  11  27
BRANCH   9  29
ATOM     29  O   LIG A   1      -2.224   4.084 127.104  0.00  0.00    -0.494 OA
ATOM     30  C   LIG A   1      -1.562   2.971 126.514  0.00  0.00    +0.277 C 
ENDBRANCH   9  29
TORSDOF 7
ENDMDL
MODEL 7
REMARK VINA RESULT:      -7.1      4.376      5.699
REMARK  Name = NuBBE_1303
REMARK  12 active torsions:
REMARK  status: ('A' for Active; 'I' for Inactive)
REMARK    1  A    between atoms: C_2  and  C_3
REMARK    2  A    between atoms: C_2  and  C_15
REMARK    3  A    between atoms: C_4  and  C_5
REMARK    4  A    between atoms: C_8  and  O_13
REMARK    5  A    between atoms: C_9  and  O_10
REMARK    6  A    between atoms: O_10  and  C_11
REMARK    7  A    between atoms: O_13  and  C_14
REMARK    8  A    between atoms: C_18  and  C_19
REMARK    9  A    between atoms: C_18  and  C_29
REMARK   10  A    between atoms: C_23  and  O_27
REMARK   11  A    between atoms: C_25  and  O_26
REMARK   12  A    between atoms: O_27  and  C_28
REMARK                            x       y       z     vdW  Elec       q    Type
REMARK                         _______ _______ _______ _____ _____    ______ ____
ROOT
ATOM      1  C   LIG A   1      -2.925   4.004 128.457  0.00  0.00    +0.105 A 
ATOM      2  C   LIG A   1      -3.564   3.229 129.452  0.00  0.00    +0.147 A 
ATOM      3  O   LIG A   1      -3.870   1.918 129.174  0.00  0.00    -0.481 OA
ATOM      4  C   LIG A   1      -4.989   1.343 129.882  0.00  0.00    +0.123 C 
ATOM      5  C   LIG A   1      -6.289   1.730 129.163  0.00  0.00    +0.060 C 
ATOM      6  C   LIG A   1      -5.044   1.777 131.325  0.00  0.00    +0.020 C 
ATOM      7  C   LIG A   1      -4.481   2.920 131.733  0.00  0.00    +0.015 C 
ATOM      8  C   LIG A   1      -3.831   3.769 130.730  0.00  0.00    +0.059 A 
ATOM      9  C   LIG A   1      -3.463   5.095 131.023  0.00  0.00    +0.134 A 
ATOM     10  C   LIG A   1      -2.859   5.868 130.032  0.00  0.00    +0.092 A 
ATOM     11  C   LIG A   1      -2.613   5.333 128.765  0.00  0.00    +0.135 A 
ATOM     12  C   LIG A   1      -4.789  -0.174 129.804  0.00  0.00    +0.060 C 
ENDROOT
BRANCH   1  14
ATOM     13  O   LIG A   1      -1.461   3.137 126.767  0.00  0.00    -0.287 OA
ATOM     14  C   LIG A   1      -2.618   3.398 127.120  0.00  0.00    +0.193 C 
BRANCH  14  15
ATOM     15  C   LIG A   1      -3.773   3.098 126.221  0.00  0.00    +0.052 C 
ATOM     16  C   LIG A   1      -4.754   3.979 125.992  0.00  0.00    +0.012 C 
BRANCH  16  17
ATOM     17  C   LIG A   1      -5.829   3.728 125.015  0.00  0.00    -0.021 A 
ATOM     18  C   LIG A   1      -5.686   3.947 123.642  0.00  0.00    +0.012 A 
ATOM     19  C   LIG A   1      -6.750   3.696 122.769  0.00  0.00    +0.050 A 
ATOM     20  C   LIG A   1      -7.982   3.235 123.249  0.00  0.00    +0.162 A 
ATOM     21  C   LIG A   1      -8.137   3.009 124.626  0.00  0.00    +0.162 A 
ATOM     22  C   LIG A   1      -7.052   3.238 125.487  0.00  0.00    +0.057 A 
BRANCH  21  23
ATOM     23  O   LIG A   1      -9.321   2.497 125.086  0.00  0.00    -0.491 OA
ATOM     24  C   LIG A   1      -9.289   1.152 125.550  0.00  0.00    +0.277 C 
ENDBRANCH  21  23
BRANCH  20  25
ATOM     25  O   LIG A   1      -8.907   3.022 122.259  0.00  0.00    -0.491 OA
ATOM     26  C   LIG A   1      -8.647   3.623 120.996  0.00  0.00    +0.277 C 
ENDBRANCH  20  25
ENDBRANCH  16  17
ENDBRANCH  14  15
ENDBRANCH   1  14
BRANCH  11  27
ATOM     27  O   LIG A   1      -2.090   6.174 127.817  0.00  0.00    -0.506 OA
ATOM     28  H   LIG A   1      -2.746   6.841 127.553  0.00  0.00    +0.292 HD
ENDBRANCH  11  27
BRANCH   9  29
ATOM     29  O   LIG A   1      -3.752   5.556 132.283  0.00  0.00    -0.494 OA
ATOM     30  C   LIG A   1      -3.352   6.883 132.606  0.00  0.00    +0.277 C 
ENDBRANCH   9  29
TORSDOF 7
ENDMDL
MODEL 8
REMARK VINA RESULT:      -7.1      4.549      7.651
REMARK  Name = NuBBE_1303
REMARK  12 active torsions:
REMARK  status: ('A' for Active; 'I' for Inactive)
REMARK    1  A    between atoms: C_2  and  C_3
REMARK    2  A    between atoms: C_2  and  C_15
REMARK    3  A    between atoms: C_4  and  C_5
REMARK    4  A    between atoms: C_8  and  O_13
REMARK    5  A    between atoms: C_9  and  O_10
REMARK    6  A    between atoms: O_10  and  C_11
REMARK    7  A    between atoms: O_13  and  C_14
REMARK    8  A    between atoms: C_18  and  C_19
REMARK    9  A    between atoms: C_18  and  C_29
REMARK   10  A    between atoms: C_23  and  O_27
REMARK   11  A    between atoms: C_25  and  O_26
REMARK   12  A    between atoms: O_27  and  C_28
REMARK                            x       y       z     vdW  Elec       q    Type
REMARK                         _______ _______ _______ _____ _____    ______ ____
ROOT
ATOM      1  C   LIG A   1      -8.904   0.207 123.753  0.00  0.00    +0.105 A 
ATOM      2  C   LIG A   1      -7.840   1.093 124.038  0.00  0.00    +0.147 A 
ATOM      3  O   LIG A   1      -6.890   0.714 124.956  0.00  0.00    -0.481 OA
ATOM      4  C   LIG A   1      -6.207   1.768 125.665  0.00  0.00    +0.123 C 
ATOM      5  C   LIG A   1      -7.073   2.220 126.849  0.00  0.00    +0.060 C 
ATOM      6  C   LIG A   1      -5.882   2.945 124.779  0.00  0.00    +0.020 C 
ATOM      7  C   LIG A   1      -6.588   3.201 123.672  0.00  0.00    +0.015 C 
ATOM      8  C   LIG A   1      -7.718   2.322 123.351  0.00  0.00    +0.059 A 
ATOM      9  C   LIG A   1      -8.665   2.678 122.374  0.00  0.00    +0.134 A 
ATOM     10  C   LIG A   1      -9.731   1.816 122.114  0.00  0.00    +0.092 A 
ATOM     11  C   LIG A   1      -9.854   0.610 122.808  0.00  0.00    +0.135 A 
ATOM     12  C   LIG A   1      -4.909   1.140 126.187  0.00  0.00    +0.060 C 
ENDROOT
BRANCH   1  14
ATOM     13  O   LIG A   1      -9.308  -2.154 123.884  0.00  0.00    -0.287 OA
ATOM     14  C   LIG A   1      -8.992  -1.109 124.468  0.00  0.00    +0.193 C 
BRANCH  14  15
ATOM     15  C   LIG A   1      -8.665  -1.121 125.926  0.00  0.00    +0.052 C 
ATOM     16  C   LIG A   1      -8.363  -2.245 126.586  0.00  0.00    +0.012 C 
BRANCH  16  17
ATOM     17  C   LIG A   1      -7.925  -2.242 127.993  0.00  0.00    -0.021 A 
ATOM     18  C   LIG A   1      -8.087  -3.333 128.852  0.00  0.00    +0.012 A 
ATOM     19  C   LIG A   1      -7.655  -3.261 130.180  0.00  0.00    +0.050 A 
ATOM     20  C   LIG A   1      -7.067  -2.094 130.684  0.00  0.00    +0.162 A 
ATOM     21  C   LIG A   1      -6.897  -0.992 129.831  0.00  0.00    +0.162 A 
ATOM     22  C   LIG A   1      -7.308  -1.089 128.492  0.00  0.00    +0.057 A 
BRANCH  21  23
ATOM     23  O   LIG A   1      -6.263   0.125 130.306  0.00  0.00    -0.491 OA
ATOM     24  C   LIG A   1      -4.925   0.328 129.864  0.00  0.00    +0.277 C 
ENDBRANCH  21  23
BRANCH  20  25
ATOM     25  O   LIG A   1      -6.684  -2.200 131.997  0.00  0.00    -0.491 OA
ATOM     26  C   LIG A   1      -7.577  -2.876 132.874  0.00  0.00    +0.277 C 
ENDBRANCH  20  25
ENDBRANCH  16  17
ENDBRANCH  14  15
ENDBRANCH   1  14
BRANCH  11  27
ATOM     27  O   LIG A   1     -10.968  -0.149 122.559  0.00  0.00    -0.506 OA
ATOM     28  H   LIG A   1     -10.770  -1.094 122.673  0.00  0.00    +0.292 HD
ENDBRANCH  11  27
BRANCH   9  29
ATOM     29  O   LIG A   1      -8.487   3.885 121.746  0.00  0.00    -0.494 OA
ATOM     30  C   LIG A   1      -8.725   3.940 120.344  0.00  0.00    +0.277 C 
ENDBRANCH   9  29
TORSDOF 7
ENDMDL
MODEL 9
REMARK VINA RESULT:      -6.9      4.672      5.740
REMARK  Name = NuBBE_1303
REMARK  12 active torsions:
REMARK  status: ('A' for Active; 'I' for Inactive)
REMARK    1  A    between atoms: C_2  and  C_3
REMARK    2  A    between atoms: C_2  and  C_15
REMARK    3  A    between atoms: C_4  and  C_5
REMARK    4  A    between atoms: C_8  and  O_13
REMARK    5  A    between atoms: C_9  and  O_10
REMARK    6  A    between atoms: O_10  and  C_11
REMARK    7  A    between atoms: O_13  and  C_14
REMARK    8  A    between atoms: C_18  and  C_19
REMARK    9  A    between atoms: C_18  and  C_29
REMARK   10  A    between atoms: C_23  and  O_27
REMARK   11  A    between atoms: C_25  and  O_26
REMARK   12  A    between atoms: O_27  and  C_28
REMARK                            x       y       z     vdW  Elec       q    Type
REMARK                         _______ _______ _______ _____ _____    ______ ____
ROOT
ATOM      1  C   LIG A   1      -2.890   4.116 128.413  0.00  0.00    +0.105 A 
ATOM      2  C   LIG A   1      -3.489   3.350 129.439  0.00  0.00    +0.147 A 
ATOM      3  O   LIG A   1      -3.783   2.030 129.194  0.00  0.00    -0.481 OA
ATOM      4  C   LIG A   1      -4.873   1.452 129.943  0.00  0.00    +0.123 C 
ATOM      5  C   LIG A   1      -6.198   1.806 129.254  0.00  0.00    +0.060 C 
ATOM      6  C   LIG A   1      -4.894   1.911 131.380  0.00  0.00    +0.020 C 
ATOM      7  C   LIG A   1      -4.338   3.070 131.751  0.00  0.00    +0.015 C 
ATOM      8  C   LIG A   1      -3.728   3.909 130.715  0.00  0.00    +0.059 A 
ATOM      9  C   LIG A   1      -3.373   5.246 130.973  0.00  0.00    +0.134 A 
ATOM     10  C   LIG A   1      -2.808   6.009 129.951  0.00  0.00    +0.092 A 
ATOM     11  C   LIG A   1      -2.590   5.454 128.688  0.00  0.00    +0.135 A 
ATOM     12  C   LIG A   1      -4.653  -0.064 129.888  0.00  0.00    +0.060 C 
ENDROOT
BRANCH   1  14
ATOM     13  O   LIG A   1      -1.459   3.270 126.683  0.00  0.00    -0.287 OA
ATOM     14  C   LIG A   1      -2.611   3.489 127.079  0.00  0.00    +0.193 C 
BRANCH  14  15
ATOM     15  C   LIG A   1      -3.788   3.116 126.237  0.00  0.00    +0.052 C 
ATOM     16  C   LIG A   1      -4.827   3.939 126.048  0.00  0.00    +0.012 C 
BRANCH  16  17
ATOM     17  C   LIG A   1      -5.930   3.619 125.124  0.00  0.00    -0.021 A 
ATOM     18  C   LIG A   1      -7.150   3.080 125.540  0.00  0.00    +0.012 A 
ATOM     19  C   LIG A   1      -8.154   2.792 124.610  0.00  0.00    +0.050 A 
ATOM     20  C   LIG A   1      -7.955   3.022 123.243  0.00  0.00    +0.162 A 
ATOM     21  C   LIG A   1      -6.735   3.566 122.812  0.00  0.00    +0.162 A 
ATOM     22  C   LIG A   1      -5.748   3.878 123.761  0.00  0.00    +0.057 A 
BRANCH  21  23
ATOM     23  O   LIG A   1      -6.566   3.851 121.483  0.00  0.00    -0.491 OA
ATOM     24  C   LIG A   1      -5.296   3.530 120.925  0.00  0.00    +0.277 C 
ENDBRANCH  21  23
BRANCH  20  25
ATOM     25  O   LIG A   1      -9.045   2.705 122.472  0.00  0.00    -0.491 OA
ATOM     26  C   LIG A   1      -9.712   1.485 122.775  0.00  0.00    +0.277 C 
ENDBRANCH  20  25
ENDBRANCH  16  17
ENDBRANCH  14  15
ENDBRANCH   1  14
BRANCH  11  27
ATOM     27  O   LIG A   1      -2.106   6.285 127.710  0.00  0.00    -0.506 OA
ATOM     28  H   LIG A   1      -1.182   6.526 127.892  0.00  0.00    +0.292 HD
ENDBRANCH  11  27
BRANCH   9  29
ATOM     29  O   LIG A   1      -3.633   5.726 132.232  0.00  0.00    -0.494 OA
ATOM     30  C   LIG A   1      -3.272   7.075 132.510  0.00  0.00    +0.277 C 
ENDBRANCH   9  29
TORSDOF 7
ENDMDL
