MODEL 1
REMARK VINA RESULT:      -7.8      0.000      0.000
REMARK  Name = NuBBE_867
REMARK  12 active torsions:
REMARK  status: ('A' for Active; 'I' for Inactive)
REMARK    1  A    between atoms: C_1  and  C_2
REMARK    2  A    between atoms: C_2  and  O_3
REMARK    3  A    between atoms: O_3  and  C_4
REMARK    4  A    between atoms: C_6  and  O_7
REMARK    5  A    between atoms: O_7  and  C_8
REMARK    6  A    between atoms: C_8  and  C_9
REMARK    7  A    between atoms: C_14  and  C_22
REMARK    8  A    between atoms: C_15  and  O_18
REMARK    9  A    between atoms: O_18  and  C_19
REMARK   10  A    between atoms: C_19  and  C_20
REMARK   11  A    between atoms: C_25  and  O_29
REMARK   12  A    between atoms: C_26  and  O_27
REMARK                            x       y       z     vdW  Elec       q    Type
REMARK                         _______ _______ _______ _____ _____    ______ ____
ROOT
ATOM      1  C   LIG A   1      -6.167   3.890 121.861  0.00  0.00    +0.139 A 
ATOM      2  C   LIG A   1      -7.399   3.248 121.939  0.00  0.00    +0.093 A 
ATOM      3  C   LIG A   1      -7.925   2.929 123.195  0.00  0.00    +0.142 A 
ATOM      4  C   LIG A   1      -7.239   3.279 124.379  0.00  0.00    +0.040 A 
ATOM      5  C   LIG A   1      -6.040   3.996 124.266  0.00  0.00    +0.132 A 
ATOM      6  O   LIG A   1      -5.284   4.414 125.330  0.00  0.00    -0.480 OA
ATOM      7  C   LIG A   1      -5.918   4.324 126.618  0.00  0.00    +0.244 C 
ATOM      8  C   LIG A   1      -6.626   2.969 126.802  0.00  0.00    +0.226 C 
ATOM      9  C   LIG A   1      -7.742   2.883 125.747  0.00  0.00    +0.091 C 
ATOM     10  C   LIG A   1      -5.491   4.272 123.016  0.00  0.00    +0.092 A 
ENDROOT
BRANCH   7  11
ATOM     11  C   LIG A   1      -4.903   4.625 127.716  0.00  0.00    -0.000 A 
ATOM     12  C   LIG A   1      -5.026   4.065 129.001  0.00  0.00    +0.011 A 
ATOM     13  C   LIG A   1      -4.094   4.347 130.008  0.00  0.00    +0.049 A 
ATOM     14  C   LIG A   1      -3.035   5.200 129.733  0.00  0.00    +0.158 A 
ATOM     15  C   LIG A   1      -2.902   5.763 128.468  0.00  0.00    +0.159 A 
ATOM     16  C   LIG A   1      -3.818   5.484 127.460  0.00  0.00    +0.056 A 
BRANCH  15  17
ATOM     17  O   LIG A   1      -1.858   6.607 128.210  0.00  0.00    -0.503 OA
ATOM     18  H   LIG A   1      -2.159   7.476 128.546  0.00  0.00    +0.292 HD
ENDBRANCH  15  17
BRANCH  14  19
ATOM     19  O   LIG A   1      -2.097   5.518 130.677  0.00  0.00    -0.503 OA
ATOM     20  H   LIG A   1      -1.284   5.026 130.469  0.00  0.00    +0.292 HD
ENDBRANCH  14  19
ENDBRANCH   7  11
BRANCH   1  21
ATOM     21  O   LIG A   1      -5.549   3.954 120.594  0.00  0.00    -0.426 OA
BRANCH  21  23
ATOM     22  C   LIG A   1      -6.305   5.155 118.716  0.00  0.00    +0.136 C 
ATOM     23  C   LIG A   1      -5.449   5.181 119.947  0.00  0.00    +0.309 C 
ATOM     24  O   LIG A   1      -4.727   6.118 120.267  0.00  0.00    -0.251 OA
ENDBRANCH  21  23
ENDBRANCH   1  21
BRANCH   3  25
ATOM     25  O   LIG A   1      -9.188   2.291 123.339  0.00  0.00    -0.425 OA
BRANCH  25  26
ATOM     26  C   LIG A   1      -9.476   0.990 122.897  0.00  0.00    +0.309 C 
ATOM     27  C   LIG A   1      -8.456   0.045 123.460  0.00  0.00    +0.136 C 
ATOM     28  O   LIG A   1     -10.379   0.644 122.157  0.00  0.00    -0.251 OA
ENDBRANCH  25  26
ENDBRANCH   3  25
BRANCH   8  29
ATOM     29  O   LIG A   1      -5.733   1.849 126.556  0.00  0.00    -0.457 OA
BRANCH  29  30
ATOM     30  C   LIG A   1      -6.041   0.657 127.115  0.00  0.00    +0.304 C 
ATOM     31  C   LIG A   1      -5.594  -0.465 126.223  0.00  0.00    +0.136 C 
ATOM     32  O   LIG A   1      -6.633   0.494 128.179  0.00  0.00    -0.251 OA
ENDBRANCH  29  30
ENDBRANCH   8  29
TORSDOF 9
ENDMDL
MODEL 2
REMARK VINA RESULT:      -7.2      2.931      6.509
REMARK  Name = NuBBE_867
REMARK  12 active torsions:
REMARK  status: ('A' for Active; 'I' for Inactive)
REMARK    1  A    between atoms: C_1  and  C_2
REMARK    2  A    between atoms: C_2  and  O_3
REMARK    3  A    between atoms: O_3  and  C_4
REMARK    4  A    between atoms: C_6  and  O_7
REMARK    5  A    between atoms: O_7  and  C_8
REMARK    6  A    between atoms: C_8  and  C_9
REMARK    7  A    between atoms: C_14  and  C_22
REMARK    8  A    between atoms: C_15  and  O_18
REMARK    9  A    between atoms: O_18  and  C_19
REMARK   10  A    between atoms: C_19  and  C_20
REMARK   11  A    between atoms: C_25  and  O_29
REMARK   12  A    between atoms: C_26  and  O_27
REMARK                            x       y       z     vdW  Elec       q    Type
REMARK                         _______ _______ _______ _____ _____    ______ ____
ROOT
ATOM      1  C   LIG A   1      -7.655  -1.984 128.444  0.00  0.00    +0.139 A 
ATOM      2  C   LIG A   1      -8.171  -2.332 127.200  0.00  0.00    +0.093 A 
ATOM      3  C   LIG A   1      -7.834  -1.565 126.081  0.00  0.00    +0.142 A 
ATOM      4  C   LIG A   1      -6.955  -0.465 126.193  0.00  0.00    +0.040 A 
ATOM      5  C   LIG A   1      -6.390  -0.190 127.446  0.00  0.00    +0.132 A 
ATOM      6  O   LIG A   1      -5.510   0.831 127.691  0.00  0.00    -0.480 OA
ATOM      7  C   LIG A   1      -4.958   1.471 126.528  0.00  0.00    +0.244 C 
ATOM      8  C   LIG A   1      -6.047   1.774 125.482  0.00  0.00    +0.226 C 
ATOM      9  C   LIG A   1      -6.631   0.429 125.019  0.00  0.00    +0.091 C 
ATOM     10  C   LIG A   1      -6.761  -0.924 128.571  0.00  0.00    +0.092 A 
ENDROOT
BRANCH   7  11
ATOM     11  C   LIG A   1      -4.164   2.705 126.943  0.00  0.00    -0.000 A 
ATOM     12  C   LIG A   1      -2.804   2.849 126.610  0.00  0.00    +0.011 A 
ATOM     13  C   LIG A   1      -2.078   3.982 126.997  0.00  0.00    +0.049 A 
ATOM     14  C   LIG A   1      -2.711   4.977 127.728  0.00  0.00    +0.158 A 
ATOM     15  C   LIG A   1      -4.054   4.848 128.066  0.00  0.00    +0.159 A 
ATOM     16  C   LIG A   1      -4.786   3.730 127.681  0.00  0.00    +0.056 A 
BRANCH  15  17
ATOM     17  O   LIG A   1      -4.667   5.832 128.791  0.00  0.00    -0.503 OA
ATOM     18  H   LIG A   1      -4.550   5.555 129.723  0.00  0.00    +0.292 HD
ENDBRANCH  15  17
BRANCH  14  19
ATOM     19  O   LIG A   1      -2.053   6.104 128.139  0.00  0.00    -0.503 OA
ATOM     20  H   LIG A   1      -2.386   6.853 127.616  0.00  0.00    +0.292 HD
ENDBRANCH  14  19
ENDBRANCH   7  11
BRANCH   1  21
ATOM     21  O   LIG A   1      -8.219  -2.605 129.578  0.00  0.00    -0.426 OA
BRANCH  21  23
ATOM     22  C   LIG A   1      -6.475  -4.039 130.244  0.00  0.00    +0.136 C 
ATOM     23  C   LIG A   1      -7.400  -2.932 130.654  0.00  0.00    +0.309 C 
ATOM     24  O   LIG A   1      -7.458  -2.462 131.784  0.00  0.00    -0.251 OA
ENDBRANCH  21  23
ENDBRANCH   1  21
BRANCH   3  25
ATOM     25  O   LIG A   1      -8.315  -1.884 124.781  0.00  0.00    -0.425 OA
BRANCH  25  26
ATOM     26  C   LIG A   1      -8.245  -3.159 124.198  0.00  0.00    +0.309 C 
ATOM     27  C   LIG A   1      -9.535  -3.445 123.489  0.00  0.00    +0.136 C 
ATOM     28  O   LIG A   1      -7.318  -3.948 124.256  0.00  0.00    -0.251 OA
ENDBRANCH  25  26
ENDBRANCH   3  25
BRANCH   8  29
ATOM     29  O   LIG A   1      -7.150   2.533 126.049  0.00  0.00    -0.457 OA
BRANCH  29  30
ATOM     30  C   LIG A   1      -7.712   3.499 125.287  0.00  0.00    +0.304 C 
ATOM     31  C   LIG A   1      -6.645   4.316 124.615  0.00  0.00    +0.136 C 
ATOM     32  O   LIG A   1      -8.915   3.719 125.178  0.00  0.00    -0.251 OA
ENDBRANCH  29  30
ENDBRANCH   8  29
TORSDOF 9
ENDMDL
MODEL 3
REMARK VINA RESULT:      -7.1      5.636      8.686
REMARK  Name = NuBBE_867
REMARK  12 active torsions:
REMARK  status: ('A' for Active; 'I' for Inactive)
REMARK    1  A    between atoms: C_1  and  C_2
REMARK    2  A    between atoms: C_2  and  O_3
REMARK    3  A    between atoms: O_3  and  C_4
REMARK    4  A    between atoms: C_6  and  O_7
REMARK    5  A    between atoms: O_7  and  C_8
REMARK    6  A    between atoms: C_8  and  C_9
REMARK    7  A    between atoms: C_14  and  C_22
REMARK    8  A    between atoms: C_15  and  O_18
REMARK    9  A    between atoms: O_18  and  C_19
REMARK   10  A    between atoms: C_19  and  C_20
REMARK   11  A    between atoms: C_25  and  O_29
REMARK   12  A    between atoms: C_26  and  O_27
REMARK                            x       y       z     vdW  Elec       q    Type
REMARK                         _______ _______ _______ _____ _____    ______ ____
ROOT
ATOM      1  C   LIG A   1      -8.027   1.229 129.037  0.00  0.00    +0.139 A 
ATOM      2  C   LIG A   1      -7.814   0.735 130.320  0.00  0.00    +0.093 A 
ATOM      3  C   LIG A   1      -8.288   1.458 131.419  0.00  0.00    +0.142 A 
ATOM      4  C   LIG A   1      -9.005   2.662 131.241  0.00  0.00    +0.040 A 
ATOM      5  C   LIG A   1      -9.272   3.090 129.933  0.00  0.00    +0.132 A 
ATOM      6  O   LIG A   1      -9.970   4.225 129.617  0.00  0.00    -0.480 OA
ATOM      7  C   LIG A   1     -10.677   4.845 130.705  0.00  0.00    +0.244 C 
ATOM      8  C   LIG A   1      -9.796   4.940 131.965  0.00  0.00    +0.226 C 
ATOM      9  C   LIG A   1      -9.464   3.505 132.407  0.00  0.00    +0.091 C 
ATOM     10  C   LIG A   1      -8.759   2.396 128.838  0.00  0.00    +0.092 A 
ENDROOT
BRANCH   7  11
ATOM     11  C   LIG A   1     -11.234   6.193 130.259  0.00  0.00    -0.000 A 
ATOM     12  C   LIG A   1     -12.306   6.803 130.937  0.00  0.00    +0.011 A 
ATOM     13  C   LIG A   1     -12.818   8.039 130.521  0.00  0.00    +0.049 A 
ATOM     14  C   LIG A   1     -12.261   8.669 129.418  0.00  0.00    +0.158 A 
ATOM     15  C   LIG A   1     -11.202   8.077 128.737  0.00  0.00    +0.159 A 
ATOM     16  C   LIG A   1     -10.682   6.853 129.146  0.00  0.00    +0.056 A 
BRANCH  15  17
ATOM     17  O   LIG A   1     -10.664   8.703 127.648  0.00  0.00    -0.503 OA
ATOM     18  H   LIG A   1     -11.439   9.013 127.138  0.00  0.00    +0.292 HD
ENDBRANCH  15  17
BRANCH  14  19
ATOM     19  O   LIG A   1     -12.721   9.874 128.962  0.00  0.00    -0.503 OA
ATOM     20  H   LIG A   1     -11.962  10.373 128.616  0.00  0.00    +0.292 HD
ENDBRANCH  14  19
ENDBRANCH   7  11
BRANCH   1  21
ATOM     21  O   LIG A   1      -7.313   0.623 127.982  0.00  0.00    -0.426 OA
BRANCH  21  23
ATOM     22  C   LIG A   1      -8.590  -0.061 126.126  0.00  0.00    +0.136 C 
ATOM     23  C   LIG A   1      -7.847  -0.498 127.353  0.00  0.00    +0.309 C 
ATOM     24  O   LIG A   1      -7.799  -1.653 127.758  0.00  0.00    -0.251 OA
ENDBRANCH  21  23
ENDBRANCH   1  21
BRANCH   3  25
ATOM     25  O   LIG A   1      -8.117   0.994 132.752  0.00  0.00    -0.425 OA
BRANCH  25  26
ATOM     26  C   LIG A   1      -6.874   0.825 133.382  0.00  0.00    +0.309 C 
ATOM     27  C   LIG A   1      -6.466   2.122 134.015  0.00  0.00    +0.136 C 
ATOM     28  O   LIG A   1      -6.193  -0.184 133.413  0.00  0.00    -0.251 OA
ENDBRANCH  25  26
ENDBRANCH   3  25
BRANCH   8  29
ATOM     29  O   LIG A   1      -8.528   5.597 131.695  0.00  0.00    -0.457 OA
BRANCH  29  30
ATOM     30  C   LIG A   1      -7.713   5.859 132.743  0.00  0.00    +0.304 C 
ATOM     31  C   LIG A   1      -6.283   5.911 132.287  0.00  0.00    +0.136 C 
ATOM     32  O   LIG A   1      -8.067   6.000 133.910  0.00  0.00    -0.251 OA
ENDBRANCH  29  30
ENDBRANCH   8  29
TORSDOF 9
ENDMDL
MODEL 4
REMARK VINA RESULT:      -7.1      4.206      7.125
REMARK  Name = NuBBE_867
REMARK  12 active torsions:
REMARK  status: ('A' for Active; 'I' for Inactive)
REMARK    1  A    between atoms: C_1  and  C_2
REMARK    2  A    between atoms: C_2  and  O_3
REMARK    3  A    between atoms: O_3  and  C_4
REMARK    4  A    between atoms: C_6  and  O_7
REMARK    5  A    between atoms: O_7  and  C_8
REMARK    6  A    between atoms: C_8  and  C_9
REMARK    7  A    between atoms: C_14  and  C_22
REMARK    8  A    between atoms: C_15  and  O_18
REMARK    9  A    between atoms: O_18  and  C_19
REMARK   10  A    between atoms: C_19  and  C_20
REMARK   11  A    between atoms: C_25  and  O_29
REMARK   12  A    between atoms: C_26  and  O_27
REMARK                            x       y       z     vdW  Elec       q    Type
REMARK                         _______ _______ _______ _____ _____    ______ ____
ROOT
ATOM      1  C   LIG A   1      -8.829  -0.647 125.291  0.00  0.00    +0.139 A 
ATOM      2  C   LIG A   1      -8.955   0.719 125.523  0.00  0.00    +0.093 A 
ATOM      3  C   LIG A   1      -8.423   1.265 126.695  0.00  0.00    +0.142 A 
ATOM      4  C   LIG A   1      -7.736   0.456 127.627  0.00  0.00    +0.040 A 
ATOM      5  C   LIG A   1      -7.558  -0.901 127.324  0.00  0.00    +0.132 A 
ATOM      6  O   LIG A   1      -6.896  -1.793 128.127  0.00  0.00    -0.480 OA
ATOM      7  C   LIG A   1      -6.133  -1.217 129.201  0.00  0.00    +0.244 C 
ATOM      8  C   LIG A   1      -6.934  -0.130 129.941  0.00  0.00    +0.226 C 
ATOM      9  C   LIG A   1      -7.218   1.000 128.937  0.00  0.00    +0.091 C 
ATOM     10  C   LIG A   1      -8.127  -1.456 126.180  0.00  0.00    +0.092 A 
ENDROOT
BRANCH   7  11
ATOM     11  C   LIG A   1      -5.624  -2.320 130.123  0.00  0.00    -0.000 A 
ATOM     12  C   LIG A   1      -6.228  -3.591 130.150  0.00  0.00    +0.011 A 
ATOM     13  C   LIG A   1      -5.761  -4.600 131.001  0.00  0.00    +0.049 A 
ATOM     14  C   LIG A   1      -4.685  -4.338 131.837  0.00  0.00    +0.158 A 
ATOM     15  C   LIG A   1      -4.078  -3.086 131.824  0.00  0.00    +0.159 A 
ATOM     16  C   LIG A   1      -4.531  -2.080 130.977  0.00  0.00    +0.056 A 
BRANCH  15  17
ATOM     17  O   LIG A   1      -3.023  -2.837 132.656  0.00  0.00    -0.503 OA
ATOM     18  H   LIG A   1      -3.213  -1.953 133.030  0.00  0.00    +0.292 HD
ENDBRANCH  15  17
BRANCH  14  19
ATOM     19  O   LIG A   1      -4.187  -5.281 132.694  0.00  0.00    -0.503 OA
ATOM     20  H   LIG A   1      -3.217  -5.227 132.669  0.00  0.00    +0.292 HD
ENDBRANCH  14  19
ENDBRANCH   7  11
BRANCH   1  21
ATOM     21  O   LIG A   1      -9.599  -1.201 124.247  0.00  0.00    -0.426 OA
BRANCH  21  23
ATOM     22  C   LIG A   1      -9.616  -3.413 123.439  0.00  0.00    +0.136 C 
ATOM     23  C   LIG A   1      -8.990  -2.054 123.331  0.00  0.00    +0.309 C 
ATOM     24  O   LIG A   1      -8.044  -1.784 122.601  0.00  0.00    -0.251 OA
ENDBRANCH  21  23
ENDBRANCH   1  21
BRANCH   3  25
ATOM     25  O   LIG A   1      -8.504   2.657 126.977  0.00  0.00    -0.425 OA
BRANCH  25  26
ATOM     26  C   LIG A   1      -8.056   3.670 126.115  0.00  0.00    +0.309 C 
ATOM     27  C   LIG A   1      -6.596   3.910 126.357  0.00  0.00    +0.136 C 
ATOM     28  O   LIG A   1      -8.716   4.296 125.305  0.00  0.00    -0.251 OA
ENDBRANCH  25  26
ENDBRANCH   3  25
BRANCH   8  29
ATOM     29  O   LIG A   1      -8.226  -0.618 130.393  0.00  0.00    -0.457 OA
BRANCH  29  30
ATOM     30  C   LIG A   1      -8.646  -0.254 131.626  0.00  0.00    +0.304 C 
ATOM     31  C   LIG A   1      -7.664  -0.716 132.665  0.00  0.00    +0.136 C 
ATOM     32  O   LIG A   1      -9.692   0.334 131.885  0.00  0.00    -0.251 OA
ENDBRANCH  29  30
ENDBRANCH   8  29
TORSDOF 9
ENDMDL
MODEL 5
REMARK VINA RESULT:      -7.1      2.698      4.541
REMARK  Name = NuBBE_867
REMARK  12 active torsions:
REMARK  status: ('A' for Active; 'I' for Inactive)
REMARK    1  A    between atoms: C_1  and  C_2
REMARK    2  A    between atoms: C_2  and  O_3
REMARK    3  A    between atoms: O_3  and  C_4
REMARK    4  A    between atoms: C_6  and  O_7
REMARK    5  A    between atoms: O_7  and  C_8
REMARK    6  A    between atoms: C_8  and  C_9
REMARK    7  A    between atoms: C_14  and  C_22
REMARK    8  A    between atoms: C_15  and  O_18
REMARK    9  A    between atoms: O_18  and  C_19
REMARK   10  A    between atoms: C_19  and  C_20
REMARK   11  A    between atoms: C_25  and  O_29
REMARK   12  A    between atoms: C_26  and  O_27
REMARK                            x       y       z     vdW  Elec       q    Type
REMARK                         _______ _______ _______ _____ _____    ______ ____
ROOT
ATOM      1  C   LIG A   1      -5.944  -1.257 125.282  0.00  0.00    +0.139 A 
ATOM      2  C   LIG A   1      -6.896  -0.799 124.376  0.00  0.00    +0.093 A 
ATOM      3  C   LIG A   1      -7.169   0.570 124.305  0.00  0.00    +0.142 A 
ATOM      4  C   LIG A   1      -6.471   1.493 125.115  0.00  0.00    +0.040 A 
ATOM      5  C   LIG A   1      -5.462   1.007 125.959  0.00  0.00    +0.132 A 
ATOM      6  O   LIG A   1      -4.697   1.791 126.782  0.00  0.00    -0.480 OA
ATOM      7  C   LIG A   1      -4.780   3.207 126.548  0.00  0.00    +0.244 C 
ATOM      8  C   LIG A   1      -6.241   3.663 126.373  0.00  0.00    +0.226 C 
ATOM      9  C   LIG A   1      -6.795   2.968 125.117  0.00  0.00    +0.091 C 
ATOM     10  C   LIG A   1      -5.222  -0.361 126.066  0.00  0.00    +0.092 A 
ENDROOT
BRANCH   7  11
ATOM     11  C   LIG A   1      -4.046   3.958 127.653  0.00  0.00    -0.000 A 
ATOM     12  C   LIG A   1      -4.101   3.529 128.993  0.00  0.00    +0.011 A 
ATOM     13  C   LIG A   1      -3.429   4.224 130.006  0.00  0.00    +0.049 A 
ATOM     14  C   LIG A   1      -2.700   5.359 129.682  0.00  0.00    +0.158 A 
ATOM     15  C   LIG A   1      -2.637   5.796 128.363  0.00  0.00    +0.159 A 
ATOM     16  C   LIG A   1      -3.296   5.110 127.349  0.00  0.00    +0.056 A 
BRANCH  15  17
ATOM     17  O   LIG A   1      -1.921   6.919 128.056  0.00  0.00    -0.503 OA
ATOM     18  H   LIG A   1      -1.580   6.750 127.154  0.00  0.00    +0.292 HD
ENDBRANCH  15  17
BRANCH  14  19
ATOM     19  O   LIG A   1      -2.026   6.082 130.629  0.00  0.00    -0.503 OA
ATOM     20  H   LIG A   1      -1.995   5.553 131.444  0.00  0.00    +0.292 HD
ENDBRANCH  14  19
ENDBRANCH   7  11
BRANCH   1  21
ATOM     21  O   LIG A   1      -5.887  -2.647 125.515  0.00  0.00    -0.426 OA
BRANCH  21  23
ATOM     22  C   LIG A   1      -4.854  -3.661 123.658  0.00  0.00    +0.136 C 
ATOM     23  C   LIG A   1      -6.114  -3.524 124.459  0.00  0.00    +0.309 C 
ATOM     24  O   LIG A   1      -7.181  -4.051 124.166  0.00  0.00    -0.251 OA
ENDBRANCH  21  23
ENDBRANCH   1  21
BRANCH   3  25
ATOM     25  O   LIG A   1      -8.117   1.099 123.385  0.00  0.00    -0.425 OA
BRANCH  25  26
ATOM     26  C   LIG A   1      -9.465   0.711 123.322  0.00  0.00    +0.309 C 
ATOM     27  C   LIG A   1     -10.243   1.475 124.352  0.00  0.00    +0.136 C 
ATOM     28  O   LIG A   1      -9.959  -0.123 122.585  0.00  0.00    -0.251 OA
ENDBRANCH  25  26
ENDBRANCH   3  25
BRANCH   8  29
ATOM     29  O   LIG A   1      -7.079   3.244 127.484  0.00  0.00    -0.457 OA
BRANCH  29  30
ATOM     30  C   LIG A   1      -7.837   4.183 128.096  0.00  0.00    +0.304 C 
ATOM     31  C   LIG A   1      -7.705   4.064 129.587  0.00  0.00    +0.136 C 
ATOM     32  O   LIG A   1      -8.564   4.997 127.534  0.00  0.00    -0.251 OA
ENDBRANCH  29  30
ENDBRANCH   8  29
TORSDOF 9
ENDMDL
MODEL 6
REMARK VINA RESULT:      -6.9      4.920      6.979
REMARK  Name = NuBBE_867
REMARK  12 active torsions:
REMARK  status: ('A' for Active; 'I' for Inactive)
REMARK    1  A    between atoms: C_1  and  C_2
REMARK    2  A    between atoms: C_2  and  O_3
REMARK    3  A    between atoms: O_3  and  C_4
REMARK    4  A    between atoms: C_6  and  O_7
REMARK    5  A    between atoms: O_7  and  C_8
REMARK    6  A    between atoms: C_8  and  C_9
REMARK    7  A    between atoms: C_14  and  C_22
REMARK    8  A    between atoms: C_15  and  O_18
REMARK    9  A    between atoms: O_18  and  C_19
REMARK   10  A    between atoms: C_19  and  C_20
REMARK   11  A    between atoms: C_25  and  O_29
REMARK   12  A    between atoms: C_26  and  O_27
REMARK                            x       y       z     vdW  Elec       q    Type
REMARK                         _______ _______ _______ _____ _____    ______ ____
ROOT
ATOM      1  C   LIG A   1      -9.288   6.419 130.504  0.00  0.00    +0.139 A 
ATOM      2  C   LIG A   1      -9.474   5.301 129.697  0.00  0.00    +0.093 A 
ATOM      3  C   LIG A   1      -8.370   4.512 129.358  0.00  0.00    +0.142 A 
ATOM      4  C   LIG A   1      -7.082   4.816 129.848  0.00  0.00    +0.040 A 
ATOM      5  C   LIG A   1      -6.943   5.903 130.723  0.00  0.00    +0.132 A 
ATOM      6  O   LIG A   1      -5.758   6.297 131.287  0.00  0.00    -0.480 OA
ATOM      7  C   LIG A   1      -4.667   5.368 131.159  0.00  0.00    +0.244 C 
ATOM      8  C   LIG A   1      -4.566   4.814 129.726  0.00  0.00    +0.226 C 
ATOM      9  C   LIG A   1      -5.858   4.030 129.440  0.00  0.00    +0.091 C 
ATOM     10  C   LIG A   1      -8.032   6.718 131.024  0.00  0.00    +0.092 A 
ENDROOT
BRANCH   7  11
ATOM     11  C   LIG A   1      -3.376   6.016 131.645  0.00  0.00    -0.000 A 
ATOM     12  C   LIG A   1      -2.186   5.275 131.773  0.00  0.00    +0.011 A 
ATOM     13  C   LIG A   1      -1.003   5.873 132.223  0.00  0.00    +0.049 A 
ATOM     14  C   LIG A   1      -1.006   7.220 132.555  0.00  0.00    +0.158 A 
ATOM     15  C   LIG A   1      -2.175   7.965 132.436  0.00  0.00    +0.159 A 
ATOM     16  C   LIG A   1      -3.353   7.382 131.983  0.00  0.00    +0.056 A 
BRANCH  15  17
ATOM     17  O   LIG A   1      -2.169   9.290 132.771  0.00  0.00    -0.503 OA
ATOM     18  H   LIG A   1      -1.451   9.675 132.228  0.00  0.00    +0.292 HD
ENDBRANCH  15  17
BRANCH  14  19
ATOM     19  O   LIG A   1       0.117   7.858 133.006  0.00  0.00    -0.503 OA
ATOM     20  H   LIG A   1      -0.163   8.575 133.599  0.00  0.00    +0.292 HD
ENDBRANCH  14  19
ENDBRANCH   7  11
BRANCH   1  21
ATOM     21  O   LIG A   1     -10.359   7.331 130.604  0.00  0.00    -0.426 OA
BRANCH  21  23
ATOM     22  C   LIG A   1     -10.414   8.400 128.507  0.00  0.00    +0.136 C 
ATOM     23  C   LIG A   1     -11.167   7.558 129.494  0.00  0.00    +0.309 C 
ATOM     24  O   LIG A   1     -12.332   7.204 129.355  0.00  0.00    -0.251 OA
ENDBRANCH  21  23
ENDBRANCH   1  21
BRANCH   3  25
ATOM     25  O   LIG A   1      -8.501   3.346 128.553  0.00  0.00    -0.425 OA
BRANCH  25  26
ATOM     26  C   LIG A   1      -8.572   2.037 129.055  0.00  0.00    +0.309 C 
ATOM     27  C   LIG A   1      -8.250   1.072 127.953  0.00  0.00    +0.136 C 
ATOM     28  O   LIG A   1      -8.867   1.695 130.186  0.00  0.00    -0.251 OA
ENDBRANCH  25  26
ENDBRANCH   3  25
BRANCH   8  29
ATOM     29  O   LIG A   1      -4.496   5.875 128.735  0.00  0.00    -0.457 OA
BRANCH  29  30
ATOM     30  C   LIG A   1      -3.287   6.165 128.201  0.00  0.00    +0.304 C 
ATOM     31  C   LIG A   1      -2.585   4.901 127.791  0.00  0.00    +0.136 C 
ATOM     32  O   LIG A   1      -2.800   7.286 128.092  0.00  0.00    -0.251 OA
ENDBRANCH  29  30
ENDBRANCH   8  29
TORSDOF 9
ENDMDL
MODEL 7
REMARK VINA RESULT:      -6.9      3.953      5.709
REMARK  Name = NuBBE_867
REMARK  12 active torsions:
REMARK  status: ('A' for Active; 'I' for Inactive)
REMARK    1  A    between atoms: C_1  and  C_2
REMARK    2  A    between atoms: C_2  and  O_3
REMARK    3  A    between atoms: O_3  and  C_4
REMARK    4  A    between atoms: C_6  and  O_7
REMARK    5  A    between atoms: O_7  and  C_8
REMARK    6  A    between atoms: C_8  and  C_9
REMARK    7  A    between atoms: C_14  and  C_22
REMARK    8  A    between atoms: C_15  and  O_18
REMARK    9  A    between atoms: O_18  and  C_19
REMARK   10  A    between atoms: C_19  and  C_20
REMARK   11  A    between atoms: C_25  and  O_29
REMARK   12  A    between atoms: C_26  and  O_27
REMARK                            x       y       z     vdW  Elec       q    Type
REMARK                         _______ _______ _______ _____ _____    ______ ____
ROOT
ATOM      1  C   LIG A   1      -8.011   1.044 125.064  0.00  0.00    +0.139 A 
ATOM      2  C   LIG A   1      -7.672  -0.269 125.375  0.00  0.00    +0.093 A 
ATOM      3  C   LIG A   1      -7.635  -0.667 126.715  0.00  0.00    +0.142 A 
ATOM      4  C   LIG A   1      -7.967   0.236 127.749  0.00  0.00    +0.040 A 
ATOM      5  C   LIG A   1      -8.381   1.528 127.397  0.00  0.00    +0.132 A 
ATOM      6  O   LIG A   1      -8.749   2.495 128.295  0.00  0.00    -0.480 OA
ATOM      7  C   LIG A   1      -8.960   2.045 129.645  0.00  0.00    +0.244 C 
ATOM      8  C   LIG A   1      -7.829   1.108 130.108  0.00  0.00    +0.226 C 
ATOM      9  C   LIG A   1      -7.863  -0.140 129.209  0.00  0.00    +0.091 C 
ATOM     10  C   LIG A   1      -8.373   1.940 126.066  0.00  0.00    +0.092 A 
ENDROOT
BRANCH   7  11
ATOM     11  C   LIG A   1      -9.161   3.244 130.565  0.00  0.00    -0.000 A 
ATOM     12  C   LIG A   1      -9.153   4.560 130.066  0.00  0.00    +0.011 A 
ATOM     13  C   LIG A   1      -9.334   5.659 130.915  0.00  0.00    +0.049 A 
ATOM     14  C   LIG A   1      -9.519   5.445 132.273  0.00  0.00    +0.158 A 
ATOM     15  C   LIG A   1      -9.527   4.150 132.781  0.00  0.00    +0.159 A 
ATOM     16  C   LIG A   1      -9.355   3.052 131.945  0.00  0.00    +0.056 A 
BRANCH  15  17
ATOM     17  O   LIG A   1      -9.704   3.950 134.122  0.00  0.00    -0.503 OA
ATOM     18  H   LIG A   1      -8.933   3.412 134.391  0.00  0.00    +0.292 HD
ENDBRANCH  15  17
BRANCH  14  19
ATOM     19  O   LIG A   1      -9.696   6.478 133.152  0.00  0.00    -0.503 OA
ATOM     20  H   LIG A   1     -10.047   6.110 133.980  0.00  0.00    +0.292 HD
ENDBRANCH  14  19
ENDBRANCH   7  11
BRANCH   1  21
ATOM     21  O   LIG A   1      -7.780   1.477 123.742  0.00  0.00    -0.426 OA
BRANCH  21  23
ATOM     22  C   LIG A   1      -9.908   1.038 122.836  0.00  0.00    +0.136 C 
ATOM     23  C   LIG A   1      -8.822   2.055 123.023  0.00  0.00    +0.309 C 
ATOM     24  O   LIG A   1      -8.840   3.182 122.544  0.00  0.00    -0.251 OA
ENDBRANCH  21  23
ENDBRANCH   1  21
BRANCH   3  25
ATOM     25  O   LIG A   1      -7.315  -2.000 127.093  0.00  0.00    -0.425 OA
BRANCH  25  26
ATOM     26  C   LIG A   1      -8.158  -3.106 126.898  0.00  0.00    +0.309 C 
ATOM     27  C   LIG A   1      -8.620  -3.611 128.232  0.00  0.00    +0.136 C 
ATOM     28  O   LIG A   1      -8.469  -3.620 125.838  0.00  0.00    -0.251 OA
ENDBRANCH  25  26
ENDBRANCH   3  25
BRANCH   8  29
ATOM     29  O   LIG A   1      -6.518   1.710 129.935  0.00  0.00    -0.457 OA
BRANCH  29  30
ATOM     30  C   LIG A   1      -5.653   1.657 130.974  0.00  0.00    +0.304 C 
ATOM     31  C   LIG A   1      -4.353   1.046 130.535  0.00  0.00    +0.136 C 
ATOM     32  O   LIG A   1      -5.889   2.016 132.124  0.00  0.00    -0.251 OA
ENDBRANCH  29  30
ENDBRANCH   8  29
TORSDOF 9
ENDMDL
MODEL 8
REMARK VINA RESULT:      -6.8      2.680      7.823
REMARK  Name = NuBBE_867
REMARK  12 active torsions:
REMARK  status: ('A' for Active; 'I' for Inactive)
REMARK    1  A    between atoms: C_1  and  C_2
REMARK    2  A    between atoms: C_2  and  O_3
REMARK    3  A    between atoms: O_3  and  C_4
REMARK    4  A    between atoms: C_6  and  O_7
REMARK    5  A    between atoms: O_7  and  C_8
REMARK    6  A    between atoms: C_8  and  C_9
REMARK    7  A    between atoms: C_14  and  C_22
REMARK    8  A    between atoms: C_15  and  O_18
REMARK    9  A    between atoms: O_18  and  C_19
REMARK   10  A    between atoms: C_19  and  C_20
REMARK   11  A    between atoms: C_25  and  O_29
REMARK   12  A    between atoms: C_26  and  O_27
REMARK                            x       y       z     vdW  Elec       q    Type
REMARK                         _______ _______ _______ _____ _____    ______ ____
ROOT
ATOM      1  C   LIG A   1      -7.442  -0.965 127.832  0.00  0.00    +0.139 A 
ATOM      2  C   LIG A   1      -7.639  -0.147 128.941  0.00  0.00    +0.093 A 
ATOM      3  C   LIG A   1      -7.745   1.235 128.760  0.00  0.00    +0.142 A 
ATOM      4  C   LIG A   1      -7.688   1.806 127.470  0.00  0.00    +0.040 A 
ATOM      5  C   LIG A   1      -7.569   0.947 126.368  0.00  0.00    +0.132 A 
ATOM      6  O   LIG A   1      -7.521   1.363 125.064  0.00  0.00    -0.480 OA
ATOM      7  C   LIG A   1      -7.877   2.738 124.834  0.00  0.00    +0.244 C 
ATOM      8  C   LIG A   1      -7.196   3.672 125.852  0.00  0.00    +0.226 C 
ATOM      9  C   LIG A   1      -7.723   3.299 127.248  0.00  0.00    +0.091 C 
ATOM     10  C   LIG A   1      -7.415  -0.426 126.549  0.00  0.00    +0.092 A 
ENDROOT
BRANCH   7  11
ATOM     11  C   LIG A   1      -7.585   3.113 123.386  0.00  0.00    -0.000 A 
ATOM     12  C   LIG A   1      -6.285   3.449 122.963  0.00  0.00    +0.011 A 
ATOM     13  C   LIG A   1      -6.022   3.797 121.632  0.00  0.00    +0.049 A 
ATOM     14  C   LIG A   1      -7.063   3.817 120.716  0.00  0.00    +0.158 A 
ATOM     15  C   LIG A   1      -8.354   3.489 121.120  0.00  0.00    +0.159 A 
ATOM     16  C   LIG A   1      -8.624   3.135 122.437  0.00  0.00    +0.056 A 
BRANCH  15  17
ATOM     17  O   LIG A   1      -9.374   3.516 120.211  0.00  0.00    -0.503 OA
ATOM     18  H   LIG A   1      -9.990   2.819 120.516  0.00  0.00    +0.292 HD
ENDBRANCH  15  17
BRANCH  14  19
ATOM     19  O   LIG A   1      -6.869   4.154 119.405  0.00  0.00    -0.503 OA
ATOM     20  H   LIG A   1      -5.947   4.445 119.304  0.00  0.00    +0.292 HD
ENDBRANCH  14  19
ENDBRANCH   7  11
BRANCH   1  21
ATOM     21  O   LIG A   1      -7.075  -2.305 128.072  0.00  0.00    -0.426 OA
BRANCH  21  23
ATOM     22  C   LIG A   1      -8.879  -3.774 127.709  0.00  0.00    +0.136 C 
ATOM     23  C   LIG A   1      -7.968  -3.150 128.724  0.00  0.00    +0.309 C 
ATOM     24  O   LIG A   1      -8.065  -3.314 129.935  0.00  0.00    -0.251 OA
ENDBRANCH  21  23
ENDBRANCH   1  21
BRANCH   3  25
ATOM     25  O   LIG A   1      -7.966   2.119 129.853  0.00  0.00    -0.425 OA
BRANCH  25  26
ATOM     26  C   LIG A   1      -9.231   2.449 130.365  0.00  0.00    +0.309 C 
ATOM     27  C   LIG A   1      -9.442   1.719 131.658  0.00  0.00    +0.136 C 
ATOM     28  O   LIG A   1     -10.064   3.183 129.862  0.00  0.00    -0.251 OA
ENDBRANCH  25  26
ENDBRANCH   3  25
BRANCH   8  29
ATOM     29  O   LIG A   1      -5.755   3.481 125.887  0.00  0.00    -0.457 OA
BRANCH  29  30
ATOM     30  C   LIG A   1      -5.006   4.422 126.507  0.00  0.00    +0.304 C 
ATOM     31  C   LIG A   1      -3.844   3.778 127.210  0.00  0.00    +0.136 C 
ATOM     32  O   LIG A   1      -5.243   5.626 126.535  0.00  0.00    -0.251 OA
ENDBRANCH  29  30
ENDBRANCH   8  29
TORSDOF 9
ENDMDL
MODEL 9
REMARK VINA RESULT:      -6.8      3.812      8.429
REMARK  Name = NuBBE_867
REMARK  12 active torsions:
REMARK  status: ('A' for Active; 'I' for Inactive)
REMARK    1  A    between atoms: C_1  and  C_2
REMARK    2  A    between atoms: C_2  and  O_3
REMARK    3  A    between atoms: O_3  and  C_4
REMARK    4  A    between atoms: C_6  and  O_7
REMARK    5  A    between atoms: O_7  and  C_8
REMARK    6  A    between atoms: C_8  and  C_9
REMARK    7  A    between atoms: C_14  and  C_22
REMARK    8  A    between atoms: C_15  and  O_18
REMARK    9  A    between atoms: O_18  and  C_19
REMARK   10  A    between atoms: C_19  and  C_20
REMARK   11  A    between atoms: C_25  and  O_29
REMARK   12  A    between atoms: C_26  and  O_27
REMARK                            x       y       z     vdW  Elec       q    Type
REMARK                         _______ _______ _______ _____ _____    ______ ____
ROOT
ATOM      1  C   LIG A   1      -8.185  -0.167 130.657  0.00  0.00    +0.139 A 
ATOM      2  C   LIG A   1      -7.619  -1.438 130.644  0.00  0.00    +0.093 A 
ATOM      3  C   LIG A   1      -7.180  -1.977 129.430  0.00  0.00    +0.142 A 
ATOM      4  C   LIG A   1      -7.274  -1.238 128.231  0.00  0.00    +0.040 A 
ATOM      5  C   LIG A   1      -7.775   0.070 128.293  0.00  0.00    +0.132 A 
ATOM      6  O   LIG A   1      -7.903   0.902 127.213  0.00  0.00    -0.480 OA
ATOM      7  C   LIG A   1      -7.235   0.474 126.013  0.00  0.00    +0.244 C 
ATOM      8  C   LIG A   1      -7.489  -1.019 125.731  0.00  0.00    +0.226 C 
ATOM      9  C   LIG A   1      -6.880  -1.820 126.894  0.00  0.00    +0.091 C 
ATOM     10  C   LIG A   1      -8.257   0.591 129.492  0.00  0.00    +0.092 A 
ENDROOT
BRANCH   7  11
ATOM     11  C   LIG A   1      -7.627   1.379 124.851  0.00  0.00    -0.000 A 
ATOM     12  C   LIG A   1      -8.801   1.151 124.107  0.00  0.00    +0.011 A 
ATOM     13  C   LIG A   1      -9.155   1.983 123.037  0.00  0.00    +0.049 A 
ATOM     14  C   LIG A   1      -8.331   3.047 122.702  0.00  0.00    +0.158 A 
ATOM     15  C   LIG A   1      -7.167   3.284 123.427  0.00  0.00    +0.159 A 
ATOM     16  C   LIG A   1      -6.810   2.468 124.495  0.00  0.00    +0.056 A 
BRANCH  15  17
ATOM     17  O   LIG A   1      -6.358   4.332 123.085  0.00  0.00    -0.503 OA
ATOM     18  H   LIG A   1      -6.866   4.818 122.405  0.00  0.00    +0.292 HD
ENDBRANCH  15  17
BRANCH  14  19
ATOM     19  O   LIG A   1      -8.621   3.891 121.665  0.00  0.00    -0.503 OA
ATOM     20  H   LIG A   1      -7.804   4.035 121.158  0.00  0.00    +0.292 HD
ENDBRANCH  14  19
ENDBRANCH   7  11
BRANCH   1  21
ATOM     21  O   LIG A   1      -8.853   0.233 131.834  0.00  0.00    -0.426 OA
BRANCH  21  23
ATOM     22  C   LIG A   1      -7.668   1.943 132.936  0.00  0.00    +0.136 C 
ATOM     23  C   LIG A   1      -8.902   1.583 132.163  0.00  0.00    +0.309 C 
ATOM     24  O   LIG A   1      -9.827   2.355 131.938  0.00  0.00    -0.251 OA
ENDBRANCH  21  23
ENDBRANCH   1  21
BRANCH   3  25
ATOM     25  O   LIG A   1      -6.576  -3.263 129.356  0.00  0.00    -0.425 OA
BRANCH  25  26
ATOM     26  C   LIG A   1      -5.331  -3.590 129.917  0.00  0.00    +0.309 C 
ATOM     27  C   LIG A   1      -5.517  -4.702 130.906  0.00  0.00    +0.136 C 
ATOM     28  O   LIG A   1      -4.257  -3.065 129.686  0.00  0.00    -0.251 OA
ENDBRANCH  25  26
ENDBRANCH   3  25
BRANCH   8  29
ATOM     29  O   LIG A   1      -8.908  -1.335 125.707  0.00  0.00    -0.457 OA
BRANCH  29  30
ATOM     30  C   LIG A   1      -9.271  -2.603 125.406  0.00  0.00    +0.304 C 
ATOM     31  C   LIG A   1      -8.889  -2.929 123.990  0.00  0.00    +0.136 C 
ATOM     32  O   LIG A   1      -9.861  -3.378 126.153  0.00  0.00    -0.251 OA
ENDBRANCH  29  30
ENDBRANCH   8  29
TORSDOF 9
ENDMDL
