MODEL 1
REMARK VINA RESULT:      -9.2      0.000      0.000
REMARK  Name = NuBBE_1139
REMARK  7 active torsions:
REMARK  status: ('A' for Active; 'I' for Inactive)
REMARK    1  A    between atoms: C_1  and  C_2
REMARK    2  A    between atoms: C_2  and  C_3
REMARK    3  A    between atoms: C_4  and  C_5
REMARK    4  A    between atoms: C_18  and  C_19
REMARK    5  A    between atoms: C_18  and  C_21
REMARK    6  A    between atoms: C_19  and  O_20
REMARK    7  A    between atoms: C_22  and  C_23
REMARK                            x       y       z     vdW  Elec       q    Type
REMARK                         _______ _______ _______ _____ _____    ______ ____
ROOT
ATOM      1  C   LIG A   1      -2.917   7.190 131.076  0.00  0.00    +0.043 C 
ATOM      2  C   LIG A   1      -4.286   7.241 131.799  0.00  0.00    +0.030 C 
ATOM      3  C   LIG A   1      -3.125   6.099 130.061  0.00  0.00    -0.035 A 
ATOM      4  C   LIG A   1      -2.248   5.761 129.031  0.00  0.00    +0.030 A 
ATOM      5  C   LIG A   1      -2.640   4.703 128.201  0.00  0.00    +0.047 A 
ATOM      6  C   LIG A   1      -3.838   4.001 128.373  0.00  0.00    -0.000 A 
ATOM      7  C   LIG A   1      -3.884   3.000 127.362  0.00  0.00    +0.027 A 
ATOM      8  C   LIG A   1      -2.742   3.115 126.603  0.00  0.00    +0.083 A 
ATOM      9  N   LIG A   1      -2.002   4.147 127.114  0.00  0.00    -0.361 N 
ATOM     10  H   LIG A   1      -1.112   4.462 126.752  0.00  0.00    +0.165 HD
ATOM     11  C   LIG A   1      -4.709   4.369 129.418  0.00  0.00    +0.015 A 
ATOM     12  C   LIG A   1      -4.336   5.427 130.250  0.00  0.00    -0.031 A 
ATOM     13  C   LIG A   1      -5.098   5.952 131.455  0.00  0.00    +0.038 C 
ENDROOT
BRANCH   1  17
ATOM     14  C   LIG A   1      -0.112   7.321 133.824  0.00  0.00    +0.038 C 
ATOM     15  C   LIG A   1      -1.212   7.785 132.903  0.00  0.00    -0.079 C 
ATOM     16  C   LIG A   1      -1.601   9.224 133.083  0.00  0.00    +0.038 C 
ATOM     17  C   LIG A   1      -1.770   6.931 132.019  0.00  0.00    -0.020 C 
ENDBRANCH   1  17
BRANCH  13  18
ATOM     18  C   LIG A   1      -6.527   6.328 131.073  0.00  0.00    -0.013 C 
ATOM     19  C   LIG A   1      -7.643   6.107 131.801  0.00  0.00    +0.005 C 
BRANCH  19  20
ATOM     20  C   LIG A   1      -8.997   6.475 131.367  0.00  0.00    -0.025 A 
ATOM     21  C   LIG A   1     -10.122   6.155 132.135  0.00  0.00    +0.010 A 
ATOM     22  C   LIG A   1     -11.411   6.507 131.731  0.00  0.00    +0.027 A 
ATOM     23  C   LIG A   1     -11.541   7.222 130.538  0.00  0.00    +0.046 A 
ATOM     24  C   LIG A   1     -10.447   7.589 129.756  0.00  0.00    +0.000 A 
ATOM     25  C   LIG A   1     -10.957   8.304 128.637  0.00  0.00    +0.027 A 
ATOM     26  C   LIG A   1     -12.327   8.355 128.761  0.00  0.00    +0.083 A 
ATOM     27  N   LIG A   1     -12.668   7.696 129.911  0.00  0.00    -0.361 N 
ATOM     28  H   LIG A   1     -13.608   7.572 130.260  0.00  0.00    +0.165 HD
ATOM     29  C   LIG A   1      -9.154   7.216 130.180  0.00  0.00    +0.018 A 
ENDBRANCH  19  20
ENDBRANCH  13  18
BRANCH  13  30
ATOM     30  C   LIG A   1      -5.055   4.915 132.608  0.00  0.00    +0.171 C 
BRANCH  30  31
ATOM     31  O   LIG A   1      -4.685   5.455 133.871  0.00  0.00    -0.394 OA
ATOM     32  H   LIG A   1      -5.308   5.085 134.523  0.00  0.00    +0.209 HD
ENDBRANCH  30  31
ENDBRANCH  13  30
TORSDOF 5
ENDMDL
MODEL 2
REMARK VINA RESULT:      -8.4      4.884      7.781
REMARK  Name = NuBBE_1139
REMARK  7 active torsions:
REMARK  status: ('A' for Active; 'I' for Inactive)
REMARK    1  A    between atoms: C_1  and  C_2
REMARK    2  A    between atoms: C_2  and  C_3
REMARK    3  A    between atoms: C_4  and  C_5
REMARK    4  A    between atoms: C_18  and  C_19
REMARK    5  A    between atoms: C_18  and  C_21
REMARK    6  A    between atoms: C_19  and  O_20
REMARK    7  A    between atoms: C_22  and  C_23
REMARK                            x       y       z     vdW  Elec       q    Type
REMARK                         _______ _______ _______ _____ _____    ______ ____
ROOT
ATOM      1  C   LIG A   1      -7.274   3.114 123.530  0.00  0.00    +0.043 C 
ATOM      2  C   LIG A   1      -6.994   4.071 124.716  0.00  0.00    +0.030 C 
ATOM      3  C   LIG A   1      -6.866   1.777 124.088  0.00  0.00    -0.035 A 
ATOM      4  C   LIG A   1      -7.074   0.539 123.481  0.00  0.00    +0.030 A 
ATOM      5  C   LIG A   1      -6.605  -0.582 124.178  0.00  0.00    +0.047 A 
ATOM      6  C   LIG A   1      -5.957  -0.497 125.415  0.00  0.00    -0.000 A 
ATOM      7  C   LIG A   1      -5.619  -1.825 125.800  0.00  0.00    +0.027 A 
ATOM      8  C   LIG A   1      -6.068  -2.677 124.817  0.00  0.00    +0.083 A 
ATOM      9  N   LIG A   1      -6.665  -1.918 123.846  0.00  0.00    -0.361 N 
ATOM     10  H   LIG A   1      -7.089  -2.279 123.003  0.00  0.00    +0.165 HD
ATOM     11  C   LIG A   1      -5.767   0.767 126.008  0.00  0.00    +0.015 A 
ATOM     12  C   LIG A   1      -6.235   1.895 125.329  0.00  0.00    -0.031 A 
ATOM     13  C   LIG A   1      -6.093   3.344 125.764  0.00  0.00    +0.038 C 
ENDROOT
BRANCH   1  17
ATOM     14  C   LIG A   1      -6.134   4.249 119.945  0.00  0.00    +0.038 C 
ATOM     15  C   LIG A   1      -7.039   3.806 121.068  0.00  0.00    -0.079 C 
ATOM     16  C   LIG A   1      -8.494   3.759 120.704  0.00  0.00    +0.038 C 
ATOM     17  C   LIG A   1      -6.528   3.503 122.280  0.00  0.00    -0.020 C 
ENDBRANCH   1  17
BRANCH  13  18
ATOM     18  C   LIG A   1      -6.661   3.549 127.165  0.00  0.00    -0.013 C 
ATOM     19  C   LIG A   1      -7.915   3.261 127.579  0.00  0.00    +0.005 C 
BRANCH  19  20
ATOM     20  C   LIG A   1      -8.408   3.502 128.941  0.00  0.00    -0.025 A 
ATOM     21  C   LIG A   1      -8.820   2.449 129.766  0.00  0.00    +0.010 A 
ATOM     22  C   LIG A   1      -9.284   2.671 131.063  0.00  0.00    +0.027 A 
ATOM     23  C   LIG A   1      -9.297   3.988 131.527  0.00  0.00    +0.046 A 
ATOM     24  C   LIG A   1      -8.869   5.065 130.753  0.00  0.00    +0.000 A 
ATOM     25  C   LIG A   1      -9.017   6.235 131.549  0.00  0.00    +0.027 A 
ATOM     26  C   LIG A   1      -9.525   5.850 132.770  0.00  0.00    +0.083 A 
ATOM     27  N   LIG A   1      -9.692   4.492 132.743  0.00  0.00    -0.361 N 
ATOM     28  H   LIG A   1     -10.051   3.930 133.503  0.00  0.00    +0.165 HD
ATOM     29  C   LIG A   1      -8.410   4.818 129.441  0.00  0.00    +0.018 A 
ENDBRANCH  19  20
ENDBRANCH  13  18
BRANCH  13  30
ATOM     30  C   LIG A   1      -4.610   3.790 125.662  0.00  0.00    +0.171 C 
BRANCH  30  31
ATOM     31  O   LIG A   1      -4.117   4.458 126.817  0.00  0.00    -0.394 OA
ATOM     32  H   LIG A   1      -3.177   4.651 126.644  0.00  0.00    +0.209 HD
ENDBRANCH  30  31
ENDBRANCH  13  30
TORSDOF 5
ENDMDL
MODEL 3
REMARK VINA RESULT:      -8.3      2.981      4.474
REMARK  Name = NuBBE_1139
REMARK  7 active torsions:
REMARK  status: ('A' for Active; 'I' for Inactive)
REMARK    1  A    between atoms: C_1  and  C_2
REMARK    2  A    between atoms: C_2  and  C_3
REMARK    3  A    between atoms: C_4  and  C_5
REMARK    4  A    between atoms: C_18  and  C_19
REMARK    5  A    between atoms: C_18  and  C_21
REMARK    6  A    between atoms: C_19  and  O_20
REMARK    7  A    between atoms: C_22  and  C_23
REMARK                            x       y       z     vdW  Elec       q    Type
REMARK                         _______ _______ _______ _____ _____    ______ ____
ROOT
ATOM      1  C   LIG A   1      -6.389   5.599 135.641  0.00  0.00    +0.043 C 
ATOM      2  C   LIG A   1      -7.628   5.043 134.895  0.00  0.00    +0.030 C 
ATOM      3  C   LIG A   1      -5.407   5.821 134.522  0.00  0.00    -0.035 A 
ATOM      4  C   LIG A   1      -4.179   6.472 134.628  0.00  0.00    +0.030 A 
ATOM      5  C   LIG A   1      -3.419   6.562 133.455  0.00  0.00    +0.047 A 
ATOM      6  C   LIG A   1      -3.839   6.034 132.230  0.00  0.00    -0.000 A 
ATOM      7  C   LIG A   1      -2.810   6.303 131.284  0.00  0.00    +0.027 A 
ATOM      8  C   LIG A   1      -1.807   6.984 131.935  0.00  0.00    +0.083 A 
ATOM      9  N   LIG A   1      -2.186   7.139 133.242  0.00  0.00    -0.361 N 
ATOM     10  H   LIG A   1      -1.644   7.608 133.955  0.00  0.00    +0.165 HD
ATOM     11  C   LIG A   1      -5.089   5.387 132.150  0.00  0.00    +0.015 A 
ATOM     12  C   LIG A   1      -5.863   5.296 133.310  0.00  0.00    -0.031 A 
ATOM     13  C   LIG A   1      -7.208   4.605 133.456  0.00  0.00    +0.038 C 
ENDROOT
BRANCH   1  17
ATOM     14  C   LIG A   1      -5.053   3.892 138.919  0.00  0.00    +0.038 C 
ATOM     15  C   LIG A   1      -5.449   4.978 137.950  0.00  0.00    -0.079 C 
ATOM     16  C   LIG A   1      -5.321   6.370 138.498  0.00  0.00    +0.038 C 
ATOM     17  C   LIG A   1      -5.887   4.665 136.711  0.00  0.00    -0.020 C 
ENDBRANCH   1  17
BRANCH  13  18
ATOM     18  C   LIG A   1      -8.209   5.145 132.439  0.00  0.00    -0.013 C 
ATOM     19  C   LIG A   1      -9.196   6.039 132.672  0.00  0.00    +0.005 C 
BRANCH  19  20
ATOM     20  C   LIG A   1     -10.144   6.505 131.652  0.00  0.00    -0.025 A 
ATOM     21  C   LIG A   1     -11.527   6.449 131.860  0.00  0.00    +0.010 A 
ATOM     22  C   LIG A   1     -12.434   6.895 130.898  0.00  0.00    +0.027 A 
ATOM     23  C   LIG A   1     -11.910   7.433 129.719  0.00  0.00    +0.046 A 
ATOM     24  C   LIG A   1     -10.541   7.537 129.481  0.00  0.00    +0.000 A 
ATOM     25  C   LIG A   1     -10.387   8.133 128.198  0.00  0.00    +0.027 A 
ATOM     26  C   LIG A   1     -11.645   8.374 127.693  0.00  0.00    +0.083 A 
ATOM     27  N   LIG A   1     -12.556   7.945 128.620  0.00  0.00    -0.361 N 
ATOM     28  H   LIG A   1     -13.561   7.994 128.521  0.00  0.00    +0.165 HD
ATOM     29  C   LIG A   1      -9.643   7.072 130.465  0.00  0.00    +0.018 A 
ENDBRANCH  19  20
ENDBRANCH  13  18
BRANCH  13  30
ATOM     30  C   LIG A   1      -7.034   3.067 133.345  0.00  0.00    +0.171 C 
BRANCH  30  31
ATOM     31  O   LIG A   1      -8.231   2.324 133.542  0.00  0.00    -0.394 OA
ATOM     32  H   LIG A   1      -8.678   2.287 132.676  0.00  0.00    +0.209 HD
ENDBRANCH  30  31
ENDBRANCH  13  30
TORSDOF 5
ENDMDL
MODEL 4
REMARK VINA RESULT:      -8.2      5.952     10.244
REMARK  Name = NuBBE_1139
REMARK  7 active torsions:
REMARK  status: ('A' for Active; 'I' for Inactive)
REMARK    1  A    between atoms: C_1  and  C_2
REMARK    2  A    between atoms: C_2  and  C_3
REMARK    3  A    between atoms: C_4  and  C_5
REMARK    4  A    between atoms: C_18  and  C_19
REMARK    5  A    between atoms: C_18  and  C_21
REMARK    6  A    between atoms: C_19  and  O_20
REMARK    7  A    between atoms: C_22  and  C_23
REMARK                            x       y       z     vdW  Elec       q    Type
REMARK                         _______ _______ _______ _____ _____    ______ ____
ROOT
ATOM      1  C   LIG A   1      -8.245  -1.321 126.352  0.00  0.00    +0.043 C 
ATOM      2  C   LIG A   1      -7.250  -0.446 125.550  0.00  0.00    +0.030 C 
ATOM      3  C   LIG A   1      -7.360  -1.952 127.393  0.00  0.00    -0.035 A 
ATOM      4  C   LIG A   1      -7.787  -2.708 128.483  0.00  0.00    +0.030 A 
ATOM      5  C   LIG A   1      -6.786  -3.205 129.328  0.00  0.00    +0.047 A 
ATOM      6  C   LIG A   1      -5.423  -2.977 129.113  0.00  0.00    -0.000 A 
ATOM      7  C   LIG A   1      -4.719  -3.643 130.155  0.00  0.00    +0.027 A 
ATOM      8  C   LIG A   1      -5.648  -4.243 130.975  0.00  0.00    +0.083 A 
ATOM      9  N   LIG A   1      -6.891  -3.969 130.469  0.00  0.00    -0.361 N 
ATOM     10  H   LIG A   1      -7.765  -4.281 130.870  0.00  0.00    +0.165 HD
ATOM     11  C   LIG A   1      -5.019  -2.203 128.006  0.00  0.00    +0.015 A 
ATOM     12  C   LIG A   1      -6.006  -1.693 127.159  0.00  0.00    -0.031 A 
ATOM     13  C   LIG A   1      -5.790  -0.880 125.894  0.00  0.00    +0.038 C 
ENDROOT
BRANCH   1  17
ATOM     14  C   LIG A   1      -9.790  -3.459 123.439  0.00  0.00    +0.038 C 
ATOM     15  C   LIG A   1      -9.085  -2.326 124.142  0.00  0.00    -0.079 C 
ATOM     16  C   LIG A   1      -8.545  -1.270 123.221  0.00  0.00    +0.038 C 
ATOM     17  C   LIG A   1      -8.969  -2.321 125.487  0.00  0.00    -0.020 C 
ENDBRANCH   1  17
BRANCH  13  18
ATOM     18  C   LIG A   1      -4.938   0.353 126.179  0.00  0.00    -0.013 C 
ATOM     19  C   LIG A   1      -5.231   1.358 127.034  0.00  0.00    +0.005 C 
BRANCH  19  20
ATOM     20  C   LIG A   1      -4.376   2.532 127.249  0.00  0.00    -0.025 A 
ATOM     21  C   LIG A   1      -3.147   2.670 126.593  0.00  0.00    +0.010 A 
ATOM     22  C   LIG A   1      -2.332   3.786 126.788  0.00  0.00    +0.027 A 
ATOM     23  C   LIG A   1      -2.800   4.786 127.644  0.00  0.00    +0.046 A 
ATOM     24  C   LIG A   1      -4.031   4.706 128.294  0.00  0.00    +0.000 A 
ATOM     25  C   LIG A   1      -4.172   5.894 129.065  0.00  0.00    +0.027 A 
ATOM     26  C   LIG A   1      -3.042   6.657 128.869  0.00  0.00    +0.083 A 
ATOM     27  N   LIG A   1      -2.221   5.976 128.012  0.00  0.00    -0.361 N 
ATOM     28  H   LIG A   1      -1.318   6.295 127.687  0.00  0.00    +0.165 HD
ATOM     29  C   LIG A   1      -4.834   3.565 128.089  0.00  0.00    +0.018 A 
ENDBRANCH  19  20
ENDBRANCH  13  18
BRANCH  13  30
ATOM     30  C   LIG A   1      -5.174  -1.773 124.784  0.00  0.00    +0.171 C 
BRANCH  30  31
ATOM     31  O   LIG A   1      -5.677  -3.103 124.753  0.00  0.00    -0.394 OA
ATOM     32  H   LIG A   1      -5.086  -3.635 125.317  0.00  0.00    +0.209 HD
ENDBRANCH  30  31
ENDBRANCH  13  30
TORSDOF 5
ENDMDL
MODEL 5
REMARK VINA RESULT:      -8.2      4.553      7.691
REMARK  Name = NuBBE_1139
REMARK  7 active torsions:
REMARK  status: ('A' for Active; 'I' for Inactive)
REMARK    1  A    between atoms: C_1  and  C_2
REMARK    2  A    between atoms: C_2  and  C_3
REMARK    3  A    between atoms: C_4  and  C_5
REMARK    4  A    between atoms: C_18  and  C_19
REMARK    5  A    between atoms: C_18  and  C_21
REMARK    6  A    between atoms: C_19  and  O_20
REMARK    7  A    between atoms: C_22  and  C_23
REMARK                            x       y       z     vdW  Elec       q    Type
REMARK                         _______ _______ _______ _____ _____    ______ ____
ROOT
ATOM      1  C   LIG A   1      -7.161   5.942 131.095  0.00  0.00    +0.043 C 
ATOM      2  C   LIG A   1      -6.877   5.657 132.592  0.00  0.00    +0.030 C 
ATOM      3  C   LIG A   1      -8.625   6.290 131.101  0.00  0.00    -0.035 A 
ATOM      4  C   LIG A   1      -9.351   6.794 130.023  0.00  0.00    +0.030 A 
ATOM      5  C   LIG A   1     -10.711   7.043 130.250  0.00  0.00    +0.047 A 
ATOM      6  C   LIG A   1     -11.336   6.807 131.479  0.00  0.00    -0.000 A 
ATOM      7  C   LIG A   1     -12.706   7.161 131.325  0.00  0.00    +0.027 A 
ATOM      8  C   LIG A   1     -12.883   7.608 130.036  0.00  0.00    +0.083 A 
ATOM      9  N   LIG A   1     -11.674   7.537 129.397  0.00  0.00    -0.361 N 
ATOM     10  H   LIG A   1     -11.504   7.806 128.438  0.00  0.00    +0.165 HD
ATOM     11  C   LIG A   1     -10.576   6.303 132.554  0.00  0.00    +0.015 A 
ATOM     12  C   LIG A   1      -9.216   6.056 132.345  0.00  0.00    -0.031 A 
ATOM     13  C   LIG A   1      -8.232   5.475 133.346  0.00  0.00    +0.038 C 
ENDROOT
BRANCH   1  17
ATOM     14  C   LIG A   1      -5.488   3.292 128.724  0.00  0.00    +0.038 C 
ATOM     15  C   LIG A   1      -5.683   4.567 129.506  0.00  0.00    -0.079 C 
ATOM     16  C   LIG A   1      -4.524   5.519 129.432  0.00  0.00    +0.038 C 
ATOM     17  C   LIG A   1      -6.819   4.774 130.206  0.00  0.00    -0.020 C 
ENDBRANCH   1  17
BRANCH  13  18
ATOM     18  C   LIG A   1      -8.220   6.292 134.635  0.00  0.00    -0.013 C 
ATOM     19  C   LIG A   1      -7.656   5.939 135.811  0.00  0.00    +0.005 C 
BRANCH  19  20
ATOM     20  C   LIG A   1      -7.698   6.764 137.025  0.00  0.00    -0.025 A 
ATOM     21  C   LIG A   1      -6.805   6.553 138.082  0.00  0.00    +0.010 A 
ATOM     22  C   LIG A   1      -6.834   7.337 139.236  0.00  0.00    +0.027 A 
ATOM     23  C   LIG A   1      -7.774   8.369 139.291  0.00  0.00    +0.046 A 
ATOM     24  C   LIG A   1      -8.662   8.636 138.250  0.00  0.00    +0.000 A 
ATOM     25  C   LIG A   1      -9.452   9.750 138.653  0.00  0.00    +0.027 A 
ATOM     26  C   LIG A   1      -9.033  10.128 139.909  0.00  0.00    +0.083 A 
ATOM     27  N   LIG A   1      -8.022   9.286 140.284  0.00  0.00    -0.361 N 
ATOM     28  H   LIG A   1      -7.520   9.325 141.161  0.00  0.00    +0.165 HD
ATOM     29  C   LIG A   1      -8.620   7.826 137.096  0.00  0.00    +0.018 A 
ENDBRANCH  19  20
ENDBRANCH  13  18
BRANCH  13  30
ATOM     30  C   LIG A   1      -8.554   3.979 133.605  0.00  0.00    +0.171 C 
BRANCH  30  31
ATOM     31  O   LIG A   1      -9.861   3.738 134.112  0.00  0.00    -0.394 OA
ATOM     32  H   LIG A   1     -10.484   4.075 133.442  0.00  0.00    +0.209 HD
ENDBRANCH  30  31
ENDBRANCH  13  30
TORSDOF 5
ENDMDL
MODEL 6
REMARK VINA RESULT:      -8.1      4.872      8.643
REMARK  Name = NuBBE_1139
REMARK  7 active torsions:
REMARK  status: ('A' for Active; 'I' for Inactive)
REMARK    1  A    between atoms: C_1  and  C_2
REMARK    2  A    between atoms: C_2  and  C_3
REMARK    3  A    between atoms: C_4  and  C_5
REMARK    4  A    between atoms: C_18  and  C_19
REMARK    5  A    between atoms: C_18  and  C_21
REMARK    6  A    between atoms: C_19  and  O_20
REMARK    7  A    between atoms: C_22  and  C_23
REMARK                            x       y       z     vdW  Elec       q    Type
REMARK                         _______ _______ _______ _____ _____    ______ ____
ROOT
ATOM      1  C   LIG A   1      -8.385   1.251 129.532  0.00  0.00    +0.043 C 
ATOM      2  C   LIG A   1      -7.337   1.386 128.399  0.00  0.00    +0.030 C 
ATOM      3  C   LIG A   1      -8.890   2.661 129.679  0.00  0.00    -0.035 A 
ATOM      4  C   LIG A   1      -9.973   3.066 130.457  0.00  0.00    +0.030 A 
ATOM      5  C   LIG A   1     -10.267   4.436 130.451  0.00  0.00    +0.047 A 
ATOM      6  C   LIG A   1      -9.529   5.372 129.719  0.00  0.00    -0.000 A 
ATOM      7  C   LIG A   1     -10.108   6.648 129.971  0.00  0.00    +0.027 A 
ATOM      8  C   LIG A   1     -11.172   6.467 130.825  0.00  0.00    +0.083 A 
ATOM      9  N   LIG A   1     -11.262   5.130 131.105  0.00  0.00    -0.361 N 
ATOM     10  H   LIG A   1     -11.955   4.705 131.705  0.00  0.00    +0.165 HD
ATOM     11  C   LIG A   1      -8.443   4.934 128.936  0.00  0.00    +0.015 A 
ATOM     12  C   LIG A   1      -8.142   3.569 128.924  0.00  0.00    -0.031 A 
ATOM     13  C   LIG A   1      -6.994   2.895 128.192  0.00  0.00    +0.038 C 
ENDROOT
BRANCH   1  17
ATOM     14  C   LIG A   1      -6.917  -0.994 132.404  0.00  0.00    +0.038 C 
ATOM     15  C   LIG A   1      -7.587  -0.615 131.107  0.00  0.00    -0.079 C 
ATOM     16  C   LIG A   1      -7.954  -1.784 130.239  0.00  0.00    +0.038 C 
ATOM     17  C   LIG A   1      -7.800   0.682 130.800  0.00  0.00    -0.020 C 
ENDBRANCH   1  17
BRANCH  13  18
ATOM     18  C   LIG A   1      -7.026   3.233 126.704  0.00  0.00    -0.013 C 
ATOM     19  C   LIG A   1      -7.407   2.416 125.697  0.00  0.00    +0.005 C 
BRANCH  19  20
ATOM     20  C   LIG A   1      -7.395   2.795 124.279  0.00  0.00    -0.025 A 
ATOM     21  C   LIG A   1      -8.542   2.686 123.484  0.00  0.00    +0.010 A 
ATOM     22  C   LIG A   1      -8.540   3.050 122.137  0.00  0.00    +0.027 A 
ATOM     23  C   LIG A   1      -7.352   3.561 121.609  0.00  0.00    +0.046 A 
ATOM     24  C   LIG A   1      -6.194   3.717 122.370  0.00  0.00    +0.000 A 
ATOM     25  C   LIG A   1      -5.202   4.265 121.509  0.00  0.00    +0.027 A 
ATOM     26  C   LIG A   1      -5.769   4.427 120.265  0.00  0.00    +0.083 A 
ATOM     27  N   LIG A   1      -7.066   3.997 120.338  0.00  0.00    -0.361 N 
ATOM     28  H   LIG A   1      -7.728   3.997 119.573  0.00  0.00    +0.165 HD
ATOM     29  C   LIG A   1      -6.217   3.334 123.727  0.00  0.00    +0.018 A 
ENDBRANCH  19  20
ENDBRANCH  13  18
BRANCH  13  30
ATOM     30  C   LIG A   1      -5.642   3.278 128.850  0.00  0.00    +0.171 C 
BRANCH  30  31
ATOM     31  O   LIG A   1      -4.799   4.084 128.036  0.00  0.00    -0.394 OA
ATOM     32  H   LIG A   1      -4.002   3.553 127.853  0.00  0.00    +0.209 HD
ENDBRANCH  30  31
ENDBRANCH  13  30
TORSDOF 5
ENDMDL
MODEL 7
REMARK VINA RESULT:      -8.1      5.014      8.641
REMARK  Name = NuBBE_1139
REMARK  7 active torsions:
REMARK  status: ('A' for Active; 'I' for Inactive)
REMARK    1  A    between atoms: C_1  and  C_2
REMARK    2  A    between atoms: C_2  and  C_3
REMARK    3  A    between atoms: C_4  and  C_5
REMARK    4  A    between atoms: C_18  and  C_19
REMARK    5  A    between atoms: C_18  and  C_21
REMARK    6  A    between atoms: C_19  and  O_20
REMARK    7  A    between atoms: C_22  and  C_23
REMARK                            x       y       z     vdW  Elec       q    Type
REMARK                         _______ _______ _______ _____ _____    ______ ____
ROOT
ATOM      1  C   LIG A   1     -10.255   4.825 130.381  0.00  0.00    +0.043 C 
ATOM      2  C   LIG A   1     -10.432   3.326 130.729  0.00  0.00    +0.030 C 
ATOM      3  C   LIG A   1      -8.831   5.089 130.789  0.00  0.00    -0.035 A 
ATOM      4  C   LIG A   1      -8.108   6.253 130.533  0.00  0.00    +0.030 A 
ATOM      5  C   LIG A   1      -6.791   6.286 131.011  0.00  0.00    +0.047 A 
ATOM      6  C   LIG A   1      -6.207   5.227 131.713  0.00  0.00    -0.000 A 
ATOM      7  C   LIG A   1      -4.882   5.627 132.044  0.00  0.00    +0.027 A 
ATOM      8  C   LIG A   1      -4.684   6.891 131.539  0.00  0.00    +0.083 A 
ATOM      9  N   LIG A   1      -5.840   7.277 130.914  0.00  0.00    -0.361 N 
ATOM     10  H   LIG A   1      -5.983   8.162 130.447  0.00  0.00    +0.165 HD
ATOM     11  C   LIG A   1      -6.959   4.059 131.952  0.00  0.00    +0.015 A 
ATOM     12  C   LIG A   1      -8.271   4.007 131.475  0.00  0.00    -0.031 A 
ATOM     13  C   LIG A   1      -9.264   2.872 131.661  0.00  0.00    +0.038 C 
ENDROOT
BRANCH   1  17
ATOM     14  C   LIG A   1     -12.830   7.591 131.460  0.00  0.00    +0.038 C 
ATOM     15  C   LIG A   1     -11.771   6.881 130.654  0.00  0.00    -0.079 C 
ATOM     16  C   LIG A   1     -11.385   7.587 129.386  0.00  0.00    +0.038 C 
ATOM     17  C   LIG A   1     -11.259   5.707 131.079  0.00  0.00    -0.020 C 
ENDBRANCH   1  17
BRANCH  13  18
ATOM     18  C   LIG A   1      -8.684   1.554 131.158  0.00  0.00    -0.013 C 
ATOM     19  C   LIG A   1      -8.517   0.419 131.872  0.00  0.00    +0.005 C 
BRANCH  19  20
ATOM     20  C   LIG A   1      -7.930  -0.815 131.333  0.00  0.00    -0.025 A 
ATOM     21  C   LIG A   1      -7.972  -1.106 129.965  0.00  0.00    +0.010 A 
ATOM     22  C   LIG A   1      -7.412  -2.274 129.445  0.00  0.00    +0.027 A 
ATOM     23  C   LIG A   1      -6.774  -3.137 130.339  0.00  0.00    +0.046 A 
ATOM     24  C   LIG A   1      -6.680  -2.873 131.705  0.00  0.00    +0.000 A 
ATOM     25  C   LIG A   1      -5.965  -3.956 132.289  0.00  0.00    +0.027 A 
ATOM     26  C   LIG A   1      -5.645  -4.839 131.282  0.00  0.00    +0.083 A 
ATOM     27  N   LIG A   1      -6.141  -4.335 130.111  0.00  0.00    -0.361 N 
ATOM     28  H   LIG A   1      -6.058  -4.771 129.202  0.00  0.00    +0.165 HD
ATOM     29  C   LIG A   1      -7.261  -1.691 132.209  0.00  0.00    +0.018 A 
ENDBRANCH  19  20
ENDBRANCH  13  18
BRANCH  13  30
ATOM     30  C   LIG A   1      -9.707   2.788 133.146  0.00  0.00    +0.171 C 
BRANCH  30  31
ATOM     31  O   LIG A   1      -9.909   4.048 133.772  0.00  0.00    -0.394 OA
ATOM     32  H   LIG A   1     -10.104   4.683 133.058  0.00  0.00    +0.209 HD
ENDBRANCH  30  31
ENDBRANCH  13  30
TORSDOF 5
ENDMDL
MODEL 8
REMARK VINA RESULT:      -8.0      2.340      3.188
REMARK  Name = NuBBE_1139
REMARK  7 active torsions:
REMARK  status: ('A' for Active; 'I' for Inactive)
REMARK    1  A    between atoms: C_1  and  C_2
REMARK    2  A    between atoms: C_2  and  C_3
REMARK    3  A    between atoms: C_4  and  C_5
REMARK    4  A    between atoms: C_18  and  C_19
REMARK    5  A    between atoms: C_18  and  C_21
REMARK    6  A    between atoms: C_19  and  O_20
REMARK    7  A    between atoms: C_22  and  C_23
REMARK                            x       y       z     vdW  Elec       q    Type
REMARK                         _______ _______ _______ _____ _____    ______ ____
ROOT
ATOM      1  C   LIG A   1      -4.121   5.551 131.790  0.00  0.00    +0.043 C 
ATOM      2  C   LIG A   1      -5.297   6.452 132.244  0.00  0.00    +0.030 C 
ATOM      3  C   LIG A   1      -4.674   4.166 131.992  0.00  0.00    -0.035 A 
ATOM      4  C   LIG A   1      -4.076   2.977 131.577  0.00  0.00    +0.030 A 
ATOM      5  C   LIG A   1      -4.767   1.795 131.876  0.00  0.00    +0.047 A 
ATOM      6  C   LIG A   1      -5.990   1.776 132.555  0.00  0.00    -0.000 A 
ATOM      7  C   LIG A   1      -6.373   0.412 132.686  0.00  0.00    +0.027 A 
ATOM      8  C   LIG A   1      -5.403  -0.358 132.087  0.00  0.00    +0.083 A 
ATOM      9  N   LIG A   1      -4.442   0.486 131.598  0.00  0.00    -0.361 N 
ATOM     10  H   LIG A   1      -3.608   0.197 131.103  0.00  0.00    +0.165 HD
ATOM     11  C   LIG A   1      -6.575   2.994 132.957  0.00  0.00    +0.015 A 
ATOM     12  C   LIG A   1      -5.902   4.182 132.660  0.00  0.00    -0.031 A 
ATOM     13  C   LIG A   1      -6.328   5.590 133.039  0.00  0.00    +0.038 C 
ENDROOT
BRANCH   1  17
ATOM     14  C   LIG A   1      -0.509   6.492 133.021  0.00  0.00    +0.038 C 
ATOM     15  C   LIG A   1      -1.652   6.199 132.081  0.00  0.00    -0.079 C 
ATOM     16  C   LIG A   1      -1.319   6.388 130.629  0.00  0.00    +0.038 C 
ATOM     17  C   LIG A   1      -2.854   5.816 132.562  0.00  0.00    -0.020 C 
ENDBRANCH   1  17
BRANCH  13  18
ATOM     18  C   LIG A   1      -7.740   5.884 132.541  0.00  0.00    -0.013 C 
ATOM     19  C   LIG A   1      -8.079   6.459 131.366  0.00  0.00    +0.005 C 
BRANCH  19  20
ATOM     20  C   LIG A   1      -9.461   6.735 130.952  0.00  0.00    -0.025 A 
ATOM     21  C   LIG A   1     -10.551   6.314 131.722  0.00  0.00    +0.010 A 
ATOM     22  C   LIG A   1     -11.867   6.577 131.339  0.00  0.00    +0.027 A 
ATOM     23  C   LIG A   1     -12.062   7.308 130.164  0.00  0.00    +0.046 A 
ATOM     24  C   LIG A   1     -11.007   7.774 129.382  0.00  0.00    +0.000 A 
ATOM     25  C   LIG A   1     -11.581   8.475 128.284  0.00  0.00    +0.027 A 
ATOM     26  C   LIG A   1     -12.950   8.419 128.422  0.00  0.00    +0.083 A 
ATOM     27  N   LIG A   1     -13.228   7.711 129.558  0.00  0.00    -0.361 N 
ATOM     28  H   LIG A   1     -14.153   7.509 129.912  0.00  0.00    +0.165 HD
ATOM     29  C   LIG A   1      -9.685   7.489 129.785  0.00  0.00    +0.018 A 
ENDBRANCH  19  20
ENDBRANCH  13  18
BRANCH  13  30
ATOM     30  C   LIG A   1      -6.194   5.794 134.572  0.00  0.00    +0.171 C 
BRANCH  30  31
ATOM     31  O   LIG A   1      -7.376   5.508 135.309  0.00  0.00    -0.394 OA
ATOM     32  H   LIG A   1      -7.593   4.574 135.132  0.00  0.00    +0.209 HD
ENDBRANCH  30  31
ENDBRANCH  13  30
TORSDOF 5
ENDMDL
MODEL 9
REMARK VINA RESULT:      -8.0      6.142      8.739
REMARK  Name = NuBBE_1139
REMARK  7 active torsions:
REMARK  status: ('A' for Active; 'I' for Inactive)
REMARK    1  A    between atoms: C_1  and  C_2
REMARK    2  A    between atoms: C_2  and  C_3
REMARK    3  A    between atoms: C_4  and  C_5
REMARK    4  A    between atoms: C_18  and  C_19
REMARK    5  A    between atoms: C_18  and  C_21
REMARK    6  A    between atoms: C_19  and  O_20
REMARK    7  A    between atoms: C_22  and  C_23
REMARK                            x       y       z     vdW  Elec       q    Type
REMARK                         _______ _______ _______ _____ _____    ______ ____
ROOT
ATOM      1  C   LIG A   1      -7.830  -2.355 128.072  0.00  0.00    +0.043 C 
ATOM      2  C   LIG A   1      -7.825  -0.806 128.055  0.00  0.00    +0.030 C 
ATOM      3  C   LIG A   1      -6.926  -2.671 129.234  0.00  0.00    -0.035 A 
ATOM      4  C   LIG A   1      -6.719  -3.932 129.791  0.00  0.00    +0.030 A 
ATOM      5  C   LIG A   1      -5.827  -3.997 130.869  0.00  0.00    +0.047 A 
ATOM      6  C   LIG A   1      -5.162  -2.878 131.379  0.00  0.00    -0.000 A 
ATOM      7  C   LIG A   1      -4.339  -3.333 132.448  0.00  0.00    +0.027 A 
ATOM      8  C   LIG A   1      -4.524  -4.690 132.574  0.00  0.00    +0.083 A 
ATOM      9  N   LIG A   1      -5.425  -5.081 131.620  0.00  0.00    -0.361 N 
ATOM     10  H   LIG A   1      -5.754  -6.026 131.480  0.00  0.00    +0.165 HD
ATOM     11  C   LIG A   1      -5.395  -1.614 130.801  0.00  0.00    +0.015 A 
ATOM     12  C   LIG A   1      -6.288  -1.530 129.730  0.00  0.00    -0.031 A 
ATOM     13  C   LIG A   1      -6.646  -0.285 128.936  0.00  0.00    +0.038 C 
ENDROOT
BRANCH   1  17
ATOM     14  C   LIG A   1      -7.451  -3.734 124.412  0.00  0.00    +0.038 C 
ATOM     15  C   LIG A   1      -8.104  -3.197 125.661  0.00  0.00    -0.079 C 
ATOM     16  C   LIG A   1      -9.582  -2.963 125.531  0.00  0.00    +0.038 C 
ATOM     17  C   LIG A   1      -7.370  -2.953 126.767  0.00  0.00    -0.020 C 
ENDBRANCH   1  17
BRANCH  13  18
ATOM     18  C   LIG A   1      -7.143   0.824 129.860  0.00  0.00    -0.013 C 
ATOM     19  C   LIG A   1      -8.424   1.068 130.213  0.00  0.00    +0.005 C 
BRANCH  19  20
ATOM     20  C   LIG A   1      -8.841   2.168 131.093  0.00  0.00    -0.025 A 
ATOM     21  C   LIG A   1      -8.626   2.119 132.475  0.00  0.00    +0.010 A 
ATOM     22  C   LIG A   1      -9.013   3.163 133.316  0.00  0.00    +0.027 A 
ATOM     23  C   LIG A   1      -9.602   4.283 132.725  0.00  0.00    +0.046 A 
ATOM     24  C   LIG A   1      -9.809   4.389 131.350  0.00  0.00    +0.000 A 
ATOM     25  C   LIG A   1     -10.415   5.655 131.118  0.00  0.00    +0.027 A 
ATOM     26  C   LIG A   1     -10.562   6.280 132.336  0.00  0.00    +0.083 A 
ATOM     27  N   LIG A   1     -10.070   5.441 133.298  0.00  0.00    -0.361 N 
ATOM     28  H   LIG A   1     -10.047   5.635 134.290  0.00  0.00    +0.165 HD
ATOM     29  C   LIG A   1      -9.416   3.318 130.520  0.00  0.00    +0.018 A 
ENDBRANCH  19  20
ENDBRANCH  13  18
BRANCH  13  30
ATOM     30  C   LIG A   1      -5.436   0.168 128.077  0.00  0.00    +0.171 C 
BRANCH  30  31
ATOM     31  O   LIG A   1      -4.527   1.030 128.750  0.00  0.00    -0.394 OA
ATOM     32  H   LIG A   1      -3.807   0.465 129.086  0.00  0.00    +0.209 HD
ENDBRANCH  30  31
ENDBRANCH  13  30
TORSDOF 5
ENDMDL
