MODEL 1
REMARK VINA RESULT:      -6.4      0.000      0.000
REMARK  Name = NuBBE_1537
REMARK  4 active torsions:
REMARK  status: ('A' for Active; 'I' for Inactive)
REMARK    1  A    between atoms: C_1  and  C_2
REMARK    2  A    between atoms: C_13  and  C_17
REMARK    3  A    between atoms: C_17  and  C_18
REMARK    4  A    between atoms: C_17  and  C_19
REMARK                            x       y       z     vdW  Elec       q    Type
REMARK                         _______ _______ _______ _____ _____    ______ ____
ROOT
ATOM      1  C   LIG A   1      -7.562  -4.465 124.634  0.00  0.00    +0.012 C 
ATOM      2  C   LIG A   1      -8.617  -3.405 124.980  0.00  0.00    -0.025 C 
ATOM      3  C   LIG A   1      -8.354  -1.832 125.248  0.00  0.00    +0.006 C 
ATOM      4  C   LIG A   1      -7.745  -2.307 126.560  0.00  0.00    +0.022 C 
ATOM      5  C   LIG A   1      -8.945  -3.390 126.514  0.00  0.00    +0.003 C 
ATOM      6  C   LIG A   1      -8.592  -4.074 127.824  0.00  0.00    +0.009 C 
ATOM      7  C   LIG A   1      -8.470  -2.868 128.798  0.00  0.00    +0.031 C 
ATOM      8  C   LIG A   1      -7.900  -1.775 127.923  0.00  0.00    -0.073 C 
ATOM      9  C   LIG A   1      -7.558  -0.532 128.261  0.00  0.00    +0.008 C 
ATOM     10  C   LIG A   1      -7.797  -1.445 123.891  0.00  0.00    -0.004 C 
ATOM     11  C   LIG A   1      -8.827  -2.112 122.941  0.00  0.00    +0.004 C 
ATOM     12  C   LIG A   1      -9.554  -3.186 123.790  0.00  0.00    +0.007 C 
ENDROOT
BRANCH  10  13
ATOM     13  C   LIG A   1      -7.569   0.068 123.722  0.00  0.00    -0.014 C 
ATOM     14  C   LIG A   1      -8.912   0.799 123.628  0.00  0.00    +0.007 C 
ATOM     15  C   LIG A   1      -6.707   0.728 124.803  0.00  0.00    +0.007 C 
ENDBRANCH  10  13
TORSDOF 1
ENDMDL
MODEL 2
REMARK VINA RESULT:      -6.3      1.823      3.366
REMARK  Name = NuBBE_1537
REMARK  4 active torsions:
REMARK  status: ('A' for Active; 'I' for Inactive)
REMARK    1  A    between atoms: C_1  and  C_2
REMARK    2  A    between atoms: C_13  and  C_17
REMARK    3  A    between atoms: C_17  and  C_18
REMARK    4  A    between atoms: C_17  and  C_19
REMARK                            x       y       z     vdW  Elec       q    Type
REMARK                         _______ _______ _______ _____ _____    ______ ____
ROOT
ATOM      1  C   LIG A   1      -5.237  -0.255 125.917  0.00  0.00    +0.012 C 
ATOM      2  C   LIG A   1      -5.579  -1.751 125.893  0.00  0.00    -0.025 C 
ATOM      3  C   LIG A   1      -7.040  -2.411 126.110  0.00  0.00    +0.006 C 
ATOM      4  C   LIG A   1      -6.841  -2.016 127.567  0.00  0.00    +0.022 C 
ATOM      5  C   LIG A   1      -5.305  -2.432 127.280  0.00  0.00    +0.003 C 
ATOM      6  C   LIG A   1      -4.797  -2.139 128.682  0.00  0.00    +0.009 C 
ATOM      7  C   LIG A   1      -5.816  -2.913 129.565  0.00  0.00    +0.031 C 
ATOM      8  C   LIG A   1      -7.111  -2.774 128.798  0.00  0.00    -0.073 C 
ATOM      9  C   LIG A   1      -8.325  -3.220 129.126  0.00  0.00    +0.008 C 
ATOM     10  C   LIG A   1      -7.761  -1.794 124.926  0.00  0.00    -0.004 C 
ATOM     11  C   LIG A   1      -6.739  -2.045 123.785  0.00  0.00    +0.004 C 
ATOM     12  C   LIG A   1      -5.381  -2.316 124.485  0.00  0.00    +0.007 C 
ENDROOT
BRANCH  10  13
ATOM     13  C   LIG A   1      -9.187  -2.337 124.717  0.00  0.00    -0.014 C 
ATOM     14  C   LIG A   1      -9.280  -3.080 123.380  0.00  0.00    +0.007 C 
ATOM     15  C   LIG A   1      -9.718  -3.237 125.836  0.00  0.00    +0.007 C 
ENDBRANCH  10  13
TORSDOF 1
ENDMDL
MODEL 3
REMARK VINA RESULT:      -6.3      1.775      3.829
REMARK  Name = NuBBE_1537
REMARK  4 active torsions:
REMARK  status: ('A' for Active; 'I' for Inactive)
REMARK    1  A    between atoms: C_1  and  C_2
REMARK    2  A    between atoms: C_13  and  C_17
REMARK    3  A    between atoms: C_17  and  C_18
REMARK    4  A    between atoms: C_17  and  C_19
REMARK                            x       y       z     vdW  Elec       q    Type
REMARK                         _______ _______ _______ _____ _____    ______ ____
ROOT
ATOM      1  C   LIG A   1      -8.329  -2.271 127.128  0.00  0.00    +0.012 C 
ATOM      2  C   LIG A   1      -8.551  -2.046 125.625  0.00  0.00    -0.025 C 
ATOM      3  C   LIG A   1      -7.448  -1.552 124.550  0.00  0.00    +0.006 C 
ATOM      4  C   LIG A   1      -7.597  -0.201 125.236  0.00  0.00    +0.022 C 
ATOM      5  C   LIG A   1      -9.154  -0.627 125.333  0.00  0.00    +0.003 C 
ATOM      6  C   LIG A   1      -9.624   0.643 126.023  0.00  0.00    +0.009 C 
ATOM      7  C   LIG A   1      -9.022   1.749 125.110  0.00  0.00    +0.031 C 
ATOM      8  C   LIG A   1      -7.711   1.146 124.657  0.00  0.00    -0.073 C 
ATOM      9  C   LIG A   1      -6.769   1.688 123.884  0.00  0.00    +0.008 C 
ATOM     10  C   LIG A   1      -6.468  -2.704 124.664  0.00  0.00    -0.004 C 
ATOM     11  C   LIG A   1      -7.424  -3.924 124.587  0.00  0.00    +0.004 C 
ATOM     12  C   LIG A   1      -8.835  -3.378 124.929  0.00  0.00    +0.007 C 
ENDROOT
BRANCH  10  13
ATOM     13  C   LIG A   1      -5.324  -2.649 123.635  0.00  0.00    -0.014 C 
ATOM     14  C   LIG A   1      -4.640  -4.016 123.528  0.00  0.00    +0.007 C 
ATOM     15  C   LIG A   1      -5.721  -2.170 122.235  0.00  0.00    +0.007 C 
ENDBRANCH  10  13
TORSDOF 1
ENDMDL
MODEL 4
REMARK VINA RESULT:      -6.1      1.874      4.005
REMARK  Name = NuBBE_1537
REMARK  4 active torsions:
REMARK  status: ('A' for Active; 'I' for Inactive)
REMARK    1  A    between atoms: C_1  and  C_2
REMARK    2  A    between atoms: C_13  and  C_17
REMARK    3  A    between atoms: C_17  and  C_18
REMARK    4  A    between atoms: C_17  and  C_19
REMARK                            x       y       z     vdW  Elec       q    Type
REMARK                         _______ _______ _______ _____ _____    ______ ____
ROOT
ATOM      1  C   LIG A   1      -8.760  -2.750 123.015  0.00  0.00    +0.012 C 
ATOM      2  C   LIG A   1      -7.810  -1.562 123.224  0.00  0.00    -0.025 C 
ATOM      3  C   LIG A   1      -7.283  -0.986 124.640  0.00  0.00    +0.006 C 
ATOM      4  C   LIG A   1      -8.704  -0.459 124.789  0.00  0.00    +0.022 C 
ATOM      5  C   LIG A   1      -8.577  -0.194 123.199  0.00  0.00    +0.003 C 
ATOM      6  C   LIG A   1      -9.964   0.402 123.026  0.00  0.00    +0.009 C 
ATOM      7  C   LIG A   1      -9.996   1.481 124.145  0.00  0.00    +0.031 C 
ATOM      8  C   LIG A   1      -9.184   0.851 125.254  0.00  0.00    -0.073 C 
ATOM      9  C   LIG A   1      -8.922   1.332 126.470  0.00  0.00    +0.008 C 
ATOM     10  C   LIG A   1      -6.541  -2.211 125.139  0.00  0.00    -0.004 C 
ATOM     11  C   LIG A   1      -5.721  -2.601 123.881  0.00  0.00    +0.004 C 
ATOM     12  C   LIG A   1      -6.418  -1.899 122.686  0.00  0.00    +0.007 C 
ENDROOT
BRANCH  10  13
ATOM     13  C   LIG A   1      -5.753  -1.972 126.440  0.00  0.00    -0.014 C 
ATOM     14  C   LIG A   1      -5.310  -0.508 126.530  0.00  0.00    +0.007 C 
ATOM     15  C   LIG A   1      -6.479  -2.362 127.731  0.00  0.00    +0.007 C 
ENDBRANCH  10  13
TORSDOF 1
ENDMDL
MODEL 5
REMARK VINA RESULT:      -5.9      1.052      5.075
REMARK  Name = NuBBE_1537
REMARK  4 active torsions:
REMARK  status: ('A' for Active; 'I' for Inactive)
REMARK    1  A    between atoms: C_1  and  C_2
REMARK    2  A    between atoms: C_13  and  C_17
REMARK    3  A    between atoms: C_17  and  C_18
REMARK    4  A    between atoms: C_17  and  C_19
REMARK                            x       y       z     vdW  Elec       q    Type
REMARK                         _______ _______ _______ _____ _____    ______ ____
ROOT
ATOM      1  C   LIG A   1      -6.021   0.333 126.026  0.00  0.00    +0.012 C 
ATOM      2  C   LIG A   1      -7.485  -0.019 126.322  0.00  0.00    -0.025 C 
ATOM      3  C   LIG A   1      -8.099  -1.502 126.525  0.00  0.00    +0.006 C 
ATOM      4  C   LIG A   1      -7.898  -1.632 125.022  0.00  0.00    +0.022 C 
ATOM      5  C   LIG A   1      -8.345  -0.078 125.011  0.00  0.00    +0.003 C 
ATOM      6  C   LIG A   1      -8.253   0.104 123.505  0.00  0.00    +0.009 C 
ATOM      7  C   LIG A   1      -9.084  -1.101 122.981  0.00  0.00    +0.031 C 
ATOM      8  C   LIG A   1      -8.791  -2.186 123.992  0.00  0.00    -0.073 C 
ATOM      9  C   LIG A   1      -9.218  -3.450 124.004  0.00  0.00    +0.008 C 
ATOM     10  C   LIG A   1      -7.307  -1.926 127.748  0.00  0.00    -0.004 C 
ATOM     11  C   LIG A   1      -7.460  -0.676 128.655  0.00  0.00    +0.004 C 
ATOM     12  C   LIG A   1      -7.878   0.483 127.713  0.00  0.00    +0.007 C 
ENDROOT
BRANCH  10  13
ATOM     13  C   LIG A   1      -7.754  -3.276 128.338  0.00  0.00    -0.014 C 
ATOM     14  C   LIG A   1      -7.902  -3.166 129.859  0.00  0.00    +0.007 C 
ATOM     15  C   LIG A   1      -9.038  -3.861 127.744  0.00  0.00    +0.007 C 
ENDBRANCH  10  13
TORSDOF 1
ENDMDL
MODEL 6
REMARK VINA RESULT:      -5.8      1.183      4.259
REMARK  Name = NuBBE_1537
REMARK  4 active torsions:
REMARK  status: ('A' for Active; 'I' for Inactive)
REMARK    1  A    between atoms: C_1  and  C_2
REMARK    2  A    between atoms: C_13  and  C_17
REMARK    3  A    between atoms: C_17  and  C_18
REMARK    4  A    between atoms: C_17  and  C_19
REMARK                            x       y       z     vdW  Elec       q    Type
REMARK                         _______ _______ _______ _____ _____    ______ ____
ROOT
ATOM      1  C   LIG A   1      -9.108  -1.549 123.036  0.00  0.00    +0.012 C 
ATOM      2  C   LIG A   1      -7.810  -1.607 123.853  0.00  0.00    -0.025 C 
ATOM      3  C   LIG A   1      -7.663  -1.383 125.448  0.00  0.00    +0.006 C 
ATOM      4  C   LIG A   1      -7.924   0.080 125.120  0.00  0.00    +0.022 C 
ATOM      5  C   LIG A   1      -7.034  -0.244 123.809  0.00  0.00    +0.003 C 
ATOM      6  C   LIG A   1      -7.099   1.156 123.222  0.00  0.00    +0.009 C 
ATOM      7  C   LIG A   1      -6.677   2.036 124.433  0.00  0.00    +0.031 C 
ATOM      8  C   LIG A   1      -7.260   1.295 125.616  0.00  0.00    -0.073 C 
ATOM      9  C   LIG A   1      -7.230   1.632 126.906  0.00  0.00    +0.008 C 
ATOM     10  C   LIG A   1      -8.520  -2.537 125.934  0.00  0.00    -0.004 C 
ATOM     11  C   LIG A   1      -7.982  -3.701 125.061  0.00  0.00    +0.004 C 
ATOM     12  C   LIG A   1      -7.257  -3.033 123.864  0.00  0.00    +0.007 C 
ENDROOT
BRANCH  10  13
ATOM     13  C   LIG A   1      -8.485  -2.735 127.461  0.00  0.00    -0.014 C 
ATOM     14  C   LIG A   1      -9.019  -4.124 127.827  0.00  0.00    +0.007 C 
ATOM     15  C   LIG A   1      -7.119  -2.527 128.120  0.00  0.00    +0.007 C 
ENDBRANCH  10  13
TORSDOF 1
ENDMDL
MODEL 7
REMARK VINA RESULT:      -5.8      1.502      3.899
REMARK  Name = NuBBE_1537
REMARK  4 active torsions:
REMARK  status: ('A' for Active; 'I' for Inactive)
REMARK    1  A    between atoms: C_1  and  C_2
REMARK    2  A    between atoms: C_13  and  C_17
REMARK    3  A    between atoms: C_17  and  C_18
REMARK    4  A    between atoms: C_17  and  C_19
REMARK                            x       y       z     vdW  Elec       q    Type
REMARK                         _______ _______ _______ _____ _____    ______ ____
ROOT
ATOM      1  C   LIG A   1      -7.321  -1.868 127.156  0.00  0.00    +0.012 C 
ATOM      2  C   LIG A   1      -6.751  -1.642 125.749  0.00  0.00    -0.025 C 
ATOM      3  C   LIG A   1      -7.167  -0.469 124.716  0.00  0.00    +0.006 C 
ATOM      4  C   LIG A   1      -8.455  -1.265 124.559  0.00  0.00    +0.022 C 
ATOM      5  C   LIG A   1      -7.467  -2.540 124.680  0.00  0.00    +0.003 C 
ATOM      6  C   LIG A   1      -8.550  -3.596 124.530  0.00  0.00    +0.009 C 
ATOM      7  C   LIG A   1      -9.293  -3.119 123.250  0.00  0.00    +0.031 C 
ATOM      8  C   LIG A   1      -9.211  -1.612 123.345  0.00  0.00    -0.073 C 
ATOM      9  C   LIG A   1      -9.723  -0.697 122.521  0.00  0.00    +0.008 C 
ATOM     10  C   LIG A   1      -6.751   0.736 125.539  0.00  0.00    -0.004 C 
ATOM     11  C   LIG A   1      -5.335   0.308 126.007  0.00  0.00    +0.004 C 
ATOM     12  C   LIG A   1      -5.279  -1.232 125.836  0.00  0.00    +0.007 C 
ENDROOT
BRANCH  10  13
ATOM     13  C   LIG A   1      -6.863   2.072 124.781  0.00  0.00    -0.014 C 
ATOM     14  C   LIG A   1      -5.684   2.983 125.139  0.00  0.00    +0.007 C 
ATOM     15  C   LIG A   1      -6.972   1.957 123.258  0.00  0.00    +0.007 C 
ENDBRANCH  10  13
TORSDOF 1
ENDMDL
MODEL 8
REMARK VINA RESULT:      -5.7     16.199     19.299
REMARK  Name = NuBBE_1537
REMARK  4 active torsions:
REMARK  status: ('A' for Active; 'I' for Inactive)
REMARK    1  A    between atoms: C_1  and  C_2
REMARK    2  A    between atoms: C_13  and  C_17
REMARK    3  A    between atoms: C_17  and  C_18
REMARK    4  A    between atoms: C_17  and  C_19
REMARK                            x       y       z     vdW  Elec       q    Type
REMARK                         _______ _______ _______ _____ _____    ______ ____
ROOT
ATOM      1  C   LIG A   1      -6.635  10.042 140.656  0.00  0.00    +0.012 C 
ATOM      2  C   LIG A   1      -7.303  10.817 139.512  0.00  0.00    -0.025 C 
ATOM      3  C   LIG A   1      -8.876  11.161 139.369  0.00  0.00    +0.006 C 
ATOM      4  C   LIG A   1      -9.023   9.679 139.055  0.00  0.00    +0.022 C 
ATOM      5  C   LIG A   1      -7.616   9.889 138.286  0.00  0.00    +0.003 C 
ATOM      6  C   LIG A   1      -7.484   8.455 137.801  0.00  0.00    +0.009 C 
ATOM      7  C   LIG A   1      -8.870   8.205 137.143  0.00  0.00    +0.031 C 
ATOM      8  C   LIG A   1      -9.813   9.005 138.013  0.00  0.00    -0.073 C 
ATOM      9  C   LIG A   1     -11.139   9.114 137.923  0.00  0.00    +0.008 C 
ATOM     10  C   LIG A   1      -9.052  12.011 140.613  0.00  0.00    -0.004 C 
ATOM     11  C   LIG A   1      -7.833  12.965 140.502  0.00  0.00    +0.004 C 
ATOM     12  C   LIG A   1      -6.844  12.276 139.525  0.00  0.00    +0.007 C 
ENDROOT
BRANCH  10  13
ATOM     13  C   LIG A   1     -10.441  12.665 140.727  0.00  0.00    -0.014 C 
ATOM     14  C   LIG A   1     -10.500  13.572 141.960  0.00  0.00    +0.007 C 
ATOM     15  C   LIG A   1     -10.901  13.451 139.495  0.00  0.00    +0.007 C 
ENDBRANCH  10  13
TORSDOF 1
ENDMDL
MODEL 9
REMARK VINA RESULT:      -5.6      6.609      9.279
REMARK  Name = NuBBE_1537
REMARK  4 active torsions:
REMARK  status: ('A' for Active; 'I' for Inactive)
REMARK    1  A    between atoms: C_1  and  C_2
REMARK    2  A    between atoms: C_13  and  C_17
REMARK    3  A    between atoms: C_17  and  C_18
REMARK    4  A    between atoms: C_17  and  C_19
REMARK                            x       y       z     vdW  Elec       q    Type
REMARK                         _______ _______ _______ _____ _____    ______ ____
ROOT
ATOM      1  C   LIG A   1      -4.482   6.402 130.467  0.00  0.00    +0.012 C 
ATOM      2  C   LIG A   1      -3.272   5.476 130.286  0.00  0.00    -0.025 C 
ATOM      3  C   LIG A   1      -3.148   4.241 129.249  0.00  0.00    +0.006 C 
ATOM      4  C   LIG A   1      -4.115   3.541 130.193  0.00  0.00    +0.022 C 
ATOM      5  C   LIG A   1      -3.270   4.311 131.337  0.00  0.00    +0.003 C 
ATOM      6  C   LIG A   1      -4.052   3.755 132.515  0.00  0.00    +0.009 C 
ATOM      7  C   LIG A   1      -4.037   2.228 132.223  0.00  0.00    +0.031 C 
ATOM      8  C   LIG A   1      -4.101   2.165 130.713  0.00  0.00    -0.073 C 
ATOM      9  C   LIG A   1      -4.154   1.090 129.926  0.00  0.00    +0.008 C 
ATOM     10  C   LIG A   1      -3.293   5.005 127.946  0.00  0.00    -0.004 C 
ATOM     11  C   LIG A   1      -2.312   6.185 128.176  0.00  0.00    +0.004 C 
ATOM     12  C   LIG A   1      -2.090   6.258 129.710  0.00  0.00    +0.007 C 
ENDROOT
BRANCH  10  13
ATOM     13  C   LIG A   1      -3.063   4.141 126.692  0.00  0.00    -0.014 C 
ATOM     14  C   LIG A   1      -1.915   3.155 126.931  0.00  0.00    +0.007 C 
ATOM     15  C   LIG A   1      -4.291   3.378 126.186  0.00  0.00    +0.007 C 
ENDBRANCH  10  13
TORSDOF 1
ENDMDL
