MODEL 1
REMARK VINA RESULT:      -7.4      0.000      0.000
REMARK  Name = NuBBE_70
REMARK  14 active torsions:
REMARK  status: ('A' for Active; 'I' for Inactive)
REMARK    1  A    between atoms: C_1  and  C_2
REMARK    2  A    between atoms: C_2  and  C_3
REMARK    3  A    between atoms: C_4  and  C_5
REMARK    4  A    between atoms: C_5  and  C_6
REMARK    5  A    between atoms: C_6  and  C_7
REMARK    6  A    between atoms: C_7  and  C_8
REMARK    7  A    between atoms: C_9  and  C_10
REMARK    8  A    between atoms: C_10  and  C_11
REMARK    9  A    between atoms: C_11  and  C_12
REMARK   10  A    between atoms: C_12  and  C_13
REMARK   11  A    between atoms: C_12  and  C_14
REMARK   12  A    between atoms: C_12  and  C_22
REMARK   13  A    between atoms: C_16  and  O_17
REMARK   14  A    between atoms: C_18  and  O_19
REMARK                            x       y       z     vdW  Elec       q    Type
REMARK                         _______ _______ _______ _____ _____    ______ ____
ROOT
ATOM      1  C   LIG A   1      -7.985   2.446 123.636  0.00  0.00    +0.011 C 
ATOM      2  C   LIG A   1      -8.293   3.411 124.814  0.00  0.00    +0.020 C 
ENDROOT
BRANCH   1   3
ATOM      3  C   LIG A   1      -7.238   3.186 122.490  0.00  0.00    -0.034 A 
ATOM      4  C   LIG A   1      -5.947   3.723 122.686  0.00  0.00    +0.053 A 
ATOM      5  C   LIG A   1      -5.294   4.400 121.655  0.00  0.00    +0.159 A 
ATOM      6  C   LIG A   1      -5.904   4.561 120.417  0.00  0.00    +0.158 A 
ATOM      7  C   LIG A   1      -7.169   4.055 120.191  0.00  0.00    +0.049 A 
ATOM      8  C   LIG A   1      -7.830   3.376 121.220  0.00  0.00    +0.008 A 
BRANCH   5   9
ATOM      9  O   LIG A   1      -4.047   4.939 121.819  0.00  0.00    -0.503 OA
ATOM     10  H   LIG A   1      -3.781   4.801 122.744  0.00  0.00    +0.292 HD
ENDBRANCH   5   9
BRANCH   6  11
ATOM     11  O   LIG A   1      -5.262   5.231 119.416  0.00  0.00    -0.503 OA
ATOM     12  H   LIG A   1      -5.606   6.143 119.474  0.00  0.00    +0.292 HD
ENDBRANCH   6  11
ENDBRANCH   1   3
BRANCH   1  13
ATOM     13  C   LIG A   1      -9.367   1.970 123.133  0.00  0.00    -0.023 C 
ATOM     14  C   LIG A   1     -10.367   1.402 123.848  0.00  0.00    +0.005 C 
ENDBRANCH   1  13
BRANCH   1  15
ATOM     15  C   LIG A   1      -7.135   1.238 124.167  0.00  0.00    +0.019 C 
BRANCH  15  16
ATOM     16  C   LIG A   1      -6.893   0.096 123.173  0.00  0.00    +0.028 C 
BRANCH  16  19
ATOM     17  C   LIG A   1      -7.101  -2.379 123.799  0.00  0.00    -0.076 C 
ATOM     18  C   LIG A   1      -5.630  -2.695 123.704  0.00  0.00    +0.038 C 
ATOM     19  C   LIG A   1      -7.637  -1.173 123.510  0.00  0.00    -0.028 C 
BRANCH  17  20
ATOM     20  C   LIG A   1      -7.982  -3.543 124.232  0.00  0.00    +0.034 C 
BRANCH  20  21
ATOM     21  C   LIG A   1      -9.138  -3.097 125.141  0.00  0.00    +0.031 C 
BRANCH  21  25
ATOM     22  C   LIG A   1      -8.220  -3.257 128.947  0.00  0.00    +0.038 C 
ATOM     23  C   LIG A   1      -8.327  -2.750 127.533  0.00  0.00    -0.080 C 
ATOM     24  C   LIG A   1      -7.706  -1.396 127.317  0.00  0.00    +0.038 C 
ATOM     25  C   LIG A   1      -8.931  -3.485 126.579  0.00  0.00    -0.028 C 
ENDBRANCH  21  25
ENDBRANCH  20  21
ENDBRANCH  17  20
ENDBRANCH  16  19
ENDBRANCH  15  16
ENDBRANCH   1  15
TORSDOF 10
ENDMDL
MODEL 2
REMARK VINA RESULT:      -7.2      3.269      5.848
REMARK  Name = NuBBE_70
REMARK  14 active torsions:
REMARK  status: ('A' for Active; 'I' for Inactive)
REMARK    1  A    between atoms: C_1  and  C_2
REMARK    2  A    between atoms: C_2  and  C_3
REMARK    3  A    between atoms: C_4  and  C_5
REMARK    4  A    between atoms: C_5  and  C_6
REMARK    5  A    between atoms: C_6  and  C_7
REMARK    6  A    between atoms: C_7  and  C_8
REMARK    7  A    between atoms: C_9  and  C_10
REMARK    8  A    between atoms: C_10  and  C_11
REMARK    9  A    between atoms: C_11  and  C_12
REMARK   10  A    between atoms: C_12  and  C_13
REMARK   11  A    between atoms: C_12  and  C_14
REMARK   12  A    between atoms: C_12  and  C_22
REMARK   13  A    between atoms: C_16  and  O_17
REMARK   14  A    between atoms: C_18  and  O_19
REMARK                            x       y       z     vdW  Elec       q    Type
REMARK                         _______ _______ _______ _____ _____    ______ ____
ROOT
ATOM      1  C   LIG A   1      -8.810  -2.613 124.835  0.00  0.00    +0.011 C 
ATOM      2  C   LIG A   1      -9.426  -3.244 123.556  0.00  0.00    +0.020 C 
ENDROOT
BRANCH   1   3
ATOM      3  C   LIG A   1      -8.914  -1.061 124.797  0.00  0.00    -0.034 A 
ATOM      4  C   LIG A   1      -8.854  -0.296 125.983  0.00  0.00    +0.053 A 
ATOM      5  C   LIG A   1      -8.966   1.095 125.937  0.00  0.00    +0.159 A 
ATOM      6  C   LIG A   1      -9.143   1.752 124.726  0.00  0.00    +0.158 A 
ATOM      7  C   LIG A   1      -9.213   1.035 123.547  0.00  0.00    +0.049 A 
ATOM      8  C   LIG A   1      -9.102  -0.359 123.584  0.00  0.00    +0.008 A 
BRANCH   5   9
ATOM      9  O   LIG A   1      -8.921   1.861 127.070  0.00  0.00    -0.503 OA
ATOM     10  H   LIG A   1      -8.979   2.794 126.803  0.00  0.00    +0.292 HD
ENDBRANCH   5   9
BRANCH   6  11
ATOM     11  O   LIG A   1      -9.259   3.111 124.691  0.00  0.00    -0.503 OA
ATOM     12  H   LIG A   1      -8.380   3.423 124.403  0.00  0.00    +0.292 HD
ENDBRANCH   6  11
ENDBRANCH   1   3
BRANCH   1  13
ATOM     13  C   LIG A   1      -7.323  -3.034 124.816  0.00  0.00    -0.023 C 
ATOM     14  C   LIG A   1      -6.376  -2.724 123.899  0.00  0.00    +0.005 C 
ENDBRANCH   1  13
BRANCH   1  15
ATOM     15  C   LIG A   1      -9.539  -3.189 126.099  0.00  0.00    +0.019 C 
BRANCH  15  16
ATOM     16  C   LIG A   1      -8.670  -3.999 127.069  0.00  0.00    +0.028 C 
BRANCH  16  19
ATOM     17  C   LIG A   1      -7.669  -2.587 128.956  0.00  0.00    -0.076 C 
ATOM     18  C   LIG A   1      -6.418  -2.189 128.216  0.00  0.00    +0.038 C 
ATOM     19  C   LIG A   1      -8.610  -3.419 128.461  0.00  0.00    -0.028 C 
BRANCH  17  20
ATOM     20  C   LIG A   1      -7.806  -1.994 130.352  0.00  0.00    +0.034 C 
BRANCH  20  21
ATOM     21  C   LIG A   1      -6.460  -1.916 131.091  0.00  0.00    +0.031 C 
BRANCH  21  25
ATOM     22  C   LIG A   1      -5.744  -5.118 133.233  0.00  0.00    +0.038 C 
ATOM     23  C   LIG A   1      -5.844  -4.198 132.045  0.00  0.00    -0.080 C 
ATOM     24  C   LIG A   1      -5.369  -4.810 130.754  0.00  0.00    +0.038 C 
ATOM     25  C   LIG A   1      -6.330  -2.949 132.176  0.00  0.00    -0.028 C 
ENDBRANCH  21  25
ENDBRANCH  20  21
ENDBRANCH  17  20
ENDBRANCH  16  19
ENDBRANCH  15  16
ENDBRANCH   1  15
TORSDOF 10
ENDMDL
MODEL 3
REMARK VINA RESULT:      -7.2      1.598      3.217
REMARK  Name = NuBBE_70
REMARK  14 active torsions:
REMARK  status: ('A' for Active; 'I' for Inactive)
REMARK    1  A    between atoms: C_1  and  C_2
REMARK    2  A    between atoms: C_2  and  C_3
REMARK    3  A    between atoms: C_4  and  C_5
REMARK    4  A    between atoms: C_5  and  C_6
REMARK    5  A    between atoms: C_6  and  C_7
REMARK    6  A    between atoms: C_7  and  C_8
REMARK    7  A    between atoms: C_9  and  C_10
REMARK    8  A    between atoms: C_10  and  C_11
REMARK    9  A    between atoms: C_11  and  C_12
REMARK   10  A    between atoms: C_12  and  C_13
REMARK   11  A    between atoms: C_12  and  C_14
REMARK   12  A    between atoms: C_12  and  C_22
REMARK   13  A    between atoms: C_16  and  O_17
REMARK   14  A    between atoms: C_18  and  O_19
REMARK                            x       y       z     vdW  Elec       q    Type
REMARK                         _______ _______ _______ _____ _____    ______ ____
ROOT
ATOM      1  C   LIG A   1      -7.799   2.413 123.773  0.00  0.00    +0.011 C 
ATOM      2  C   LIG A   1      -8.342   3.446 124.798  0.00  0.00    +0.020 C 
ENDROOT
BRANCH   1   3
ATOM      3  C   LIG A   1      -7.635   3.056 122.366  0.00  0.00    -0.034 A 
ATOM      4  C   LIG A   1      -8.751   3.285 121.532  0.00  0.00    +0.053 A 
ATOM      5  C   LIG A   1      -8.588   3.846 120.264  0.00  0.00    +0.159 A 
ATOM      6  C   LIG A   1      -7.324   4.187 119.798  0.00  0.00    +0.158 A 
ATOM      7  C   LIG A   1      -6.208   3.972 120.584  0.00  0.00    +0.049 A 
ATOM      8  C   LIG A   1      -6.364   3.409 121.855  0.00  0.00    +0.008 A 
BRANCH   5   9
ATOM      9  O   LIG A   1      -9.650   4.070 119.430  0.00  0.00    -0.503 OA
ATOM     10  H   LIG A   1     -10.309   3.374 119.592  0.00  0.00    +0.292 HD
ENDBRANCH   5   9
BRANCH   6  11
ATOM     11  O   LIG A   1      -7.173   4.728 118.555  0.00  0.00    -0.503 OA
ATOM     12  H   LIG A   1      -6.337   5.232 118.609  0.00  0.00    +0.292 HD
ENDBRANCH   6  11
ENDBRANCH   1   3
BRANCH   1  13
ATOM     13  C   LIG A   1      -8.871   1.301 123.714  0.00  0.00    -0.023 C 
ATOM     14  C   LIG A   1     -10.044   1.233 124.386  0.00  0.00    +0.005 C 
ENDBRANCH   1  13
BRANCH   1  15
ATOM     15  C   LIG A   1      -6.430   1.845 124.289  0.00  0.00    +0.019 C 
BRANCH  15  16
ATOM     16  C   LIG A   1      -6.234   1.833 125.810  0.00  0.00    +0.028 C 
BRANCH  16  19
ATOM     17  C   LIG A   1      -7.519   0.154 127.256  0.00  0.00    -0.076 C 
ATOM     18  C   LIG A   1      -8.540   1.134 127.775  0.00  0.00    +0.038 C 
ATOM     19  C   LIG A   1      -6.491   0.489 126.446  0.00  0.00    -0.028 C 
BRANCH  17  20
ATOM     20  C   LIG A   1      -7.704  -1.280 127.732  0.00  0.00    +0.034 C 
BRANCH  20  21
ATOM     21  C   LIG A   1      -7.238  -2.309 126.689  0.00  0.00    +0.031 C 
BRANCH  21  25
ATOM     22  C   LIG A   1      -9.321  -2.860 123.417  0.00  0.00    +0.038 C 
ATOM     23  C   LIG A   1      -8.185  -2.478 124.329  0.00  0.00    -0.080 C 
ATOM     24  C   LIG A   1      -6.976  -1.940 123.611  0.00  0.00    +0.038 C 
ATOM     25  C   LIG A   1      -8.294  -2.618 125.664  0.00  0.00    -0.028 C 
ENDBRANCH  21  25
ENDBRANCH  20  21
ENDBRANCH  17  20
ENDBRANCH  16  19
ENDBRANCH  15  16
ENDBRANCH   1  15
TORSDOF 10
ENDMDL
MODEL 4
REMARK VINA RESULT:      -7.0      3.145      5.634
REMARK  Name = NuBBE_70
REMARK  14 active torsions:
REMARK  status: ('A' for Active; 'I' for Inactive)
REMARK    1  A    between atoms: C_1  and  C_2
REMARK    2  A    between atoms: C_2  and  C_3
REMARK    3  A    between atoms: C_4  and  C_5
REMARK    4  A    between atoms: C_5  and  C_6
REMARK    5  A    between atoms: C_6  and  C_7
REMARK    6  A    between atoms: C_7  and  C_8
REMARK    7  A    between atoms: C_9  and  C_10
REMARK    8  A    between atoms: C_10  and  C_11
REMARK    9  A    between atoms: C_11  and  C_12
REMARK   10  A    between atoms: C_12  and  C_13
REMARK   11  A    between atoms: C_12  and  C_14
REMARK   12  A    between atoms: C_12  and  C_22
REMARK   13  A    between atoms: C_16  and  O_17
REMARK   14  A    between atoms: C_18  and  O_19
REMARK                            x       y       z     vdW  Elec       q    Type
REMARK                         _______ _______ _______ _____ _____    ______ ____
ROOT
ATOM      1  C   LIG A   1      -8.821  -2.492 124.670  0.00  0.00    +0.011 C 
ATOM      2  C   LIG A   1      -9.462  -3.072 123.380  0.00  0.00    +0.020 C 
ENDROOT
BRANCH   1   3
ATOM      3  C   LIG A   1      -8.949  -0.943 124.710  0.00  0.00    -0.034 A 
ATOM      4  C   LIG A   1      -9.104  -0.191 123.525  0.00  0.00    +0.053 A 
ATOM      5  C   LIG A   1      -9.199   1.200 123.573  0.00  0.00    +0.159 A 
ATOM      6  C   LIG A   1      -9.142   1.873 124.787  0.00  0.00    +0.158 A 
ATOM      7  C   LIG A   1      -8.984   1.171 125.967  0.00  0.00    +0.049 A 
ATOM      8  C   LIG A   1      -8.887  -0.224 125.926  0.00  0.00    +0.008 A 
BRANCH   5   9
ATOM      9  O   LIG A   1      -9.340   1.955 122.439  0.00  0.00    -0.503 OA
ATOM     10  H   LIG A   1      -9.390   2.889 122.707  0.00  0.00    +0.292 HD
ENDBRANCH   5   9
BRANCH   6  11
ATOM     11  O   LIG A   1      -9.228   3.234 124.825  0.00  0.00    -0.503 OA
ATOM     12  H   LIG A   1      -8.505   3.540 124.244  0.00  0.00    +0.292 HD
ENDBRANCH   6  11
ENDBRANCH   1   3
BRANCH   1  13
ATOM     13  C   LIG A   1      -7.329  -2.889 124.593  0.00  0.00    -0.023 C 
ATOM     14  C   LIG A   1      -6.259  -2.084 124.392  0.00  0.00    +0.005 C 
ENDBRANCH   1  13
BRANCH   1  15
ATOM     15  C   LIG A   1      -9.509  -3.140 125.924  0.00  0.00    +0.019 C 
BRANCH  15  16
ATOM     16  C   LIG A   1      -8.591  -3.933 126.862  0.00  0.00    +0.028 C 
BRANCH  16  19
ATOM     17  C   LIG A   1      -7.730  -2.586 128.864  0.00  0.00    -0.076 C 
ATOM     18  C   LIG A   1      -6.484  -2.071 128.190  0.00  0.00    +0.038 C 
ATOM     19  C   LIG A   1      -8.605  -3.439 128.288  0.00  0.00    -0.028 C 
BRANCH  17  20
ATOM     20  C   LIG A   1      -7.942  -2.091 130.288  0.00  0.00    +0.034 C 
BRANCH  20  21
ATOM     21  C   LIG A   1      -7.236  -0.752 130.555  0.00  0.00    +0.031 C 
BRANCH  21  25
ATOM     22  C   LIG A   1      -8.958   2.605 129.494  0.00  0.00    +0.038 C 
ATOM     23  C   LIG A   1      -7.936   1.502 129.593  0.00  0.00    -0.080 C 
ATOM     24  C   LIG A   1      -6.707   1.729 128.754  0.00  0.00    +0.038 C 
ATOM     25  C   LIG A   1      -8.148   0.432 130.381  0.00  0.00    -0.028 C 
ENDBRANCH  21  25
ENDBRANCH  20  21
ENDBRANCH  17  20
ENDBRANCH  16  19
ENDBRANCH  15  16
ENDBRANCH   1  15
TORSDOF 10
ENDMDL
MODEL 5
REMARK VINA RESULT:      -7.0      3.137      5.542
REMARK  Name = NuBBE_70
REMARK  14 active torsions:
REMARK  status: ('A' for Active; 'I' for Inactive)
REMARK    1  A    between atoms: C_1  and  C_2
REMARK    2  A    between atoms: C_2  and  C_3
REMARK    3  A    between atoms: C_4  and  C_5
REMARK    4  A    between atoms: C_5  and  C_6
REMARK    5  A    between atoms: C_6  and  C_7
REMARK    6  A    between atoms: C_7  and  C_8
REMARK    7  A    between atoms: C_9  and  C_10
REMARK    8  A    between atoms: C_10  and  C_11
REMARK    9  A    between atoms: C_11  and  C_12
REMARK   10  A    between atoms: C_12  and  C_13
REMARK   11  A    between atoms: C_12  and  C_14
REMARK   12  A    between atoms: C_12  and  C_22
REMARK   13  A    between atoms: C_16  and  O_17
REMARK   14  A    between atoms: C_18  and  O_19
REMARK                            x       y       z     vdW  Elec       q    Type
REMARK                         _______ _______ _______ _____ _____    ______ ____
ROOT
ATOM      1  C   LIG A   1      -7.554  -2.097 124.091  0.00  0.00    +0.011 C 
ATOM      2  C   LIG A   1      -8.584  -2.854 123.210  0.00  0.00    +0.020 C 
ENDROOT
BRANCH   1   3
ATOM      3  C   LIG A   1      -8.002  -0.629 124.340  0.00  0.00    -0.034 A 
ATOM      4  C   LIG A   1      -9.331  -0.219 124.093  0.00  0.00    +0.053 A 
ATOM      5  C   LIG A   1      -9.717   1.106 124.304  0.00  0.00    +0.159 A 
ATOM      6  C   LIG A   1      -8.800   2.047 124.757  0.00  0.00    +0.158 A 
ATOM      7  C   LIG A   1      -7.490   1.683 125.002  0.00  0.00    +0.049 A 
ATOM      8  C   LIG A   1      -7.096   0.357 124.793  0.00  0.00    +0.008 A 
BRANCH   5   9
ATOM      9  O   LIG A   1     -10.994   1.534 124.064  0.00  0.00    -0.503 OA
ATOM     10  H   LIG A   1     -11.562   1.197 124.778  0.00  0.00    +0.292 HD
ENDBRANCH   5   9
BRANCH   6  11
ATOM     11  O   LIG A   1      -9.184   3.342 124.952  0.00  0.00    -0.503 OA
ATOM     12  H   LIG A   1      -9.996   3.276 125.491  0.00  0.00    +0.292 HD
ENDBRANCH   6  11
ENDBRANCH   1   3
BRANCH   1  13
ATOM     13  C   LIG A   1      -6.240  -2.108 123.276  0.00  0.00    -0.023 C 
ATOM     14  C   LIG A   1      -5.211  -2.983 123.360  0.00  0.00    +0.005 C 
ENDBRANCH   1  13
BRANCH   1  15
ATOM     15  C   LIG A   1      -7.375  -2.863 125.450  0.00  0.00    +0.019 C 
BRANCH  15  16
ATOM     16  C   LIG A   1      -8.628  -2.983 126.326  0.00  0.00    +0.028 C 
BRANCH  16  19
ATOM     17  C   LIG A   1      -7.944  -2.560 128.758  0.00  0.00    -0.076 C 
ATOM     18  C   LIG A   1      -7.599  -1.104 128.579  0.00  0.00    +0.038 C 
ATOM     19  C   LIG A   1      -8.337  -3.375 127.754  0.00  0.00    -0.028 C 
BRANCH  17  20
ATOM     20  C   LIG A   1      -7.797  -3.086 130.179  0.00  0.00    +0.034 C 
BRANCH  20  21
ATOM     21  C   LIG A   1      -6.547  -3.962 130.354  0.00  0.00    +0.031 C 
BRANCH  21  25
ATOM     22  C   LIG A   1      -3.207  -1.914 130.457  0.00  0.00    +0.038 C 
ATOM     23  C   LIG A   1      -4.357  -2.729 129.925  0.00  0.00    -0.080 C 
ATOM     24  C   LIG A   1      -4.292  -2.989 128.444  0.00  0.00    +0.038 C 
ATOM     25  C   LIG A   1      -5.330  -3.168 130.746  0.00  0.00    -0.028 C 
ENDBRANCH  21  25
ENDBRANCH  20  21
ENDBRANCH  17  20
ENDBRANCH  16  19
ENDBRANCH  15  16
ENDBRANCH   1  15
TORSDOF 10
ENDMDL
MODEL 6
REMARK VINA RESULT:      -6.9      8.059     10.665
REMARK  Name = NuBBE_70
REMARK  14 active torsions:
REMARK  status: ('A' for Active; 'I' for Inactive)
REMARK    1  A    between atoms: C_1  and  C_2
REMARK    2  A    between atoms: C_2  and  C_3
REMARK    3  A    between atoms: C_4  and  C_5
REMARK    4  A    between atoms: C_5  and  C_6
REMARK    5  A    between atoms: C_6  and  C_7
REMARK    6  A    between atoms: C_7  and  C_8
REMARK    7  A    between atoms: C_9  and  C_10
REMARK    8  A    between atoms: C_10  and  C_11
REMARK    9  A    between atoms: C_11  and  C_12
REMARK   10  A    between atoms: C_12  and  C_13
REMARK   11  A    between atoms: C_12  and  C_14
REMARK   12  A    between atoms: C_12  and  C_22
REMARK   13  A    between atoms: C_16  and  O_17
REMARK   14  A    between atoms: C_18  and  O_19
REMARK                            x       y       z     vdW  Elec       q    Type
REMARK                         _______ _______ _______ _____ _____    ______ ____
ROOT
ATOM      1  C   LIG A   1      -9.260   6.143 131.220  0.00  0.00    +0.011 C 
ATOM      2  C   LIG A   1      -9.589   5.978 132.729  0.00  0.00    +0.020 C 
ENDROOT
BRANCH   1   3
ATOM      3  C   LIG A   1     -10.409   6.882 130.476  0.00  0.00    -0.034 A 
ATOM      4  C   LIG A   1     -10.186   7.513 129.232  0.00  0.00    +0.053 A 
ATOM      5  C   LIG A   1     -11.221   8.189 128.583  0.00  0.00    +0.159 A 
ATOM      6  C   LIG A   1     -12.488   8.256 129.149  0.00  0.00    +0.158 A 
ATOM      7  C   LIG A   1     -12.740   7.656 130.368  0.00  0.00    +0.049 A 
ATOM      8  C   LIG A   1     -11.708   6.978 131.025  0.00  0.00    +0.008 A 
BRANCH   5   9
ATOM      9  O   LIG A   1     -11.032   8.818 127.382  0.00  0.00    -0.503 OA
ATOM     10  H   LIG A   1     -10.375   8.309 126.878  0.00  0.00    +0.292 HD
ENDBRANCH   5   9
BRANCH   6  11
ATOM     11  O   LIG A   1     -13.492   8.925 128.512  0.00  0.00    -0.503 OA
ATOM     12  H   LIG A   1     -13.963   9.395 129.227  0.00  0.00    +0.292 HD
ENDBRANCH   6  11
ENDBRANCH   1   3
BRANCH   1  13
ATOM     13  C   LIG A   1      -9.131   4.702 130.675  0.00  0.00    -0.023 C 
ATOM     14  C   LIG A   1     -10.116   3.800 130.453  0.00  0.00    +0.005 C 
ENDBRANCH   1  13
BRANCH   1  15
ATOM     15  C   LIG A   1      -7.907   6.922 131.069  0.00  0.00    +0.019 C 
BRANCH  15  16
ATOM     16  C   LIG A   1      -6.658   6.218 131.614  0.00  0.00    +0.028 C 
BRANCH  16  19
ATOM     17  C   LIG A   1      -4.225   6.924 131.990  0.00  0.00    -0.076 C 
ATOM     18  C   LIG A   1      -4.093   6.329 133.368  0.00  0.00    +0.038 C 
ATOM     19  C   LIG A   1      -5.365   6.914 131.266  0.00  0.00    -0.028 C 
BRANCH  17  20
ATOM     20  C   LIG A   1      -2.962   7.581 131.450  0.00  0.00    +0.034 C 
BRANCH  20  21
ATOM     21  C   LIG A   1      -1.929   6.554 130.961  0.00  0.00    +0.031 C 
BRANCH  21  25
ATOM     22  C   LIG A   1      -2.897   4.898 127.543  0.00  0.00    +0.038 C 
ATOM     23  C   LIG A   1      -2.769   5.120 129.028  0.00  0.00    -0.080 C 
ATOM     24  C   LIG A   1      -3.423   4.054 129.866  0.00  0.00    +0.038 C 
ATOM     25  C   LIG A   1      -2.111   6.190 129.513  0.00  0.00    -0.028 C 
ENDBRANCH  21  25
ENDBRANCH  20  21
ENDBRANCH  17  20
ENDBRANCH  16  19
ENDBRANCH  15  16
ENDBRANCH   1  15
TORSDOF 10
ENDMDL
MODEL 7
REMARK VINA RESULT:      -6.7      4.789      7.936
REMARK  Name = NuBBE_70
REMARK  14 active torsions:
REMARK  status: ('A' for Active; 'I' for Inactive)
REMARK    1  A    between atoms: C_1  and  C_2
REMARK    2  A    between atoms: C_2  and  C_3
REMARK    3  A    between atoms: C_4  and  C_5
REMARK    4  A    between atoms: C_5  and  C_6
REMARK    5  A    between atoms: C_6  and  C_7
REMARK    6  A    between atoms: C_7  and  C_8
REMARK    7  A    between atoms: C_9  and  C_10
REMARK    8  A    between atoms: C_10  and  C_11
REMARK    9  A    between atoms: C_11  and  C_12
REMARK   10  A    between atoms: C_12  and  C_13
REMARK   11  A    between atoms: C_12  and  C_14
REMARK   12  A    between atoms: C_12  and  C_22
REMARK   13  A    between atoms: C_16  and  O_17
REMARK   14  A    between atoms: C_18  and  O_19
REMARK                            x       y       z     vdW  Elec       q    Type
REMARK                         _______ _______ _______ _____ _____    ______ ____
ROOT
ATOM      1  C   LIG A   1      -7.394  -1.237 130.779  0.00  0.00    +0.011 C 
ATOM      2  C   LIG A   1      -6.093  -1.000 129.965  0.00  0.00    +0.020 C 
ENDROOT
BRANCH   1   3
ATOM      3  C   LIG A   1      -8.251   0.059 130.852  0.00  0.00    -0.034 A 
ATOM      4  C   LIG A   1      -8.206   1.024 129.822  0.00  0.00    +0.053 A 
ATOM      5  C   LIG A   1      -8.966   2.192 129.908  0.00  0.00    +0.159 A 
ATOM      6  C   LIG A   1      -9.779   2.428 131.010  0.00  0.00    +0.158 A 
ATOM      7  C   LIG A   1      -9.842   1.510 132.040  0.00  0.00    +0.049 A 
ATOM      8  C   LIG A   1      -9.083   0.337 131.961  0.00  0.00    +0.008 A 
BRANCH   5   9
ATOM      9  O   LIG A   1      -8.936   3.148 128.930  0.00  0.00    -0.503 OA
ATOM     10  H   LIG A   1      -8.007   3.285 128.674  0.00  0.00    +0.292 HD
ENDBRANCH   5   9
BRANCH   6  11
ATOM     11  O   LIG A   1     -10.513   3.575 131.090  0.00  0.00    -0.503 OA
ATOM     12  H   LIG A   1     -10.710   3.672 132.042  0.00  0.00    +0.292 HD
ENDBRANCH   6  11
ENDBRANCH   1   3
BRANCH   1  13
ATOM     13  C   LIG A   1      -6.918  -1.626 132.197  0.00  0.00    -0.023 C 
ATOM     14  C   LIG A   1      -7.253  -2.720 132.921  0.00  0.00    +0.005 C 
ENDBRANCH   1  13
BRANCH   1  15
ATOM     15  C   LIG A   1      -8.209  -2.406 130.122  0.00  0.00    +0.019 C 
BRANCH  15  16
ATOM     16  C   LIG A   1      -7.510  -3.157 128.982  0.00  0.00    +0.028 C 
BRANCH  16  19
ATOM     17  C   LIG A   1      -8.663  -2.643 126.753  0.00  0.00    -0.076 C 
ATOM     18  C   LIG A   1      -8.174  -1.222 126.641  0.00  0.00    +0.038 C 
ATOM     19  C   LIG A   1      -8.409  -3.451 127.805  0.00  0.00    -0.028 C 
BRANCH  17  20
ATOM     20  C   LIG A   1      -9.508  -3.126 125.582  0.00  0.00    +0.034 C 
BRANCH  20  21
ATOM     21  C   LIG A   1      -8.756  -3.046 124.244  0.00  0.00    +0.031 C 
BRANCH  21  25
ATOM     22  C   LIG A   1      -4.935  -3.868 123.957  0.00  0.00    +0.038 C 
ATOM     23  C   LIG A   1      -6.251  -3.154 123.786  0.00  0.00    -0.080 C 
ATOM     24  C   LIG A   1      -6.157  -1.876 122.997  0.00  0.00    +0.038 C 
ATOM     25  C   LIG A   1      -7.385  -3.660 124.308  0.00  0.00    -0.028 C 
ENDBRANCH  21  25
ENDBRANCH  20  21
ENDBRANCH  17  20
ENDBRANCH  16  19
ENDBRANCH  15  16
ENDBRANCH   1  15
TORSDOF 10
ENDMDL
MODEL 8
REMARK VINA RESULT:      -6.7      3.021      5.342
REMARK  Name = NuBBE_70
REMARK  14 active torsions:
REMARK  status: ('A' for Active; 'I' for Inactive)
REMARK    1  A    between atoms: C_1  and  C_2
REMARK    2  A    between atoms: C_2  and  C_3
REMARK    3  A    between atoms: C_4  and  C_5
REMARK    4  A    between atoms: C_5  and  C_6
REMARK    5  A    between atoms: C_6  and  C_7
REMARK    6  A    between atoms: C_7  and  C_8
REMARK    7  A    between atoms: C_9  and  C_10
REMARK    8  A    between atoms: C_10  and  C_11
REMARK    9  A    between atoms: C_11  and  C_12
REMARK   10  A    between atoms: C_12  and  C_13
REMARK   11  A    between atoms: C_12  and  C_14
REMARK   12  A    between atoms: C_12  and  C_22
REMARK   13  A    between atoms: C_16  and  O_17
REMARK   14  A    between atoms: C_18  and  O_19
REMARK                            x       y       z     vdW  Elec       q    Type
REMARK                         _______ _______ _______ _____ _____    ______ ____
ROOT
ATOM      1  C   LIG A   1      -6.769  -2.180 123.702  0.00  0.00    +0.011 C 
ATOM      2  C   LIG A   1      -7.894  -2.078 122.637  0.00  0.00    +0.020 C 
ENDROOT
BRANCH   1   3
ATOM      3  C   LIG A   1      -6.492  -0.796 124.356  0.00  0.00    -0.034 A 
ATOM      4  C   LIG A   1      -5.595  -0.666 125.439  0.00  0.00    +0.053 A 
ATOM      5  C   LIG A   1      -5.369   0.579 126.029  0.00  0.00    +0.159 A 
ATOM      6  C   LIG A   1      -6.024   1.712 125.565  0.00  0.00    +0.158 A 
ATOM      7  C   LIG A   1      -6.914   1.622 124.511  0.00  0.00    +0.049 A 
ATOM      8  C   LIG A   1      -7.146   0.377 123.915  0.00  0.00    +0.008 A 
BRANCH   5   9
ATOM      9  O   LIG A   1      -4.513   0.734 127.086  0.00  0.00    -0.503 OA
ATOM     10  H   LIG A   1      -4.883   0.249 127.844  0.00  0.00    +0.292 HD
ENDBRANCH   5   9
BRANCH   6  11
ATOM     11  O   LIG A   1      -5.803   2.924 126.152  0.00  0.00    -0.503 OA
ATOM     12  H   LIG A   1      -5.324   2.711 126.976  0.00  0.00    +0.292 HD
ENDBRANCH   6  11
ENDBRANCH   1   3
BRANCH   1  13
ATOM     13  C   LIG A   1      -5.517  -2.646 122.924  0.00  0.00    -0.023 C 
ATOM     14  C   LIG A   1      -4.494  -3.414 123.368  0.00  0.00    +0.005 C 
ENDBRANCH   1  13
BRANCH   1  15
ATOM     15  C   LIG A   1      -7.179  -3.236 124.787  0.00  0.00    +0.019 C 
BRANCH  15  16
ATOM     16  C   LIG A   1      -8.534  -3.011 125.470  0.00  0.00    +0.028 C 
BRANCH  16  19
ATOM     17  C   LIG A   1      -8.265  -2.764 128.006  0.00  0.00    -0.076 C 
ATOM     18  C   LIG A   1      -7.680  -1.376 127.973  0.00  0.00    +0.038 C 
ATOM     19  C   LIG A   1      -8.579  -3.481 126.904  0.00  0.00    -0.028 C 
BRANCH  17  20
ATOM     20  C   LIG A   1      -8.469  -3.344 129.399  0.00  0.00    +0.034 C 
BRANCH  20  21
ATOM     21  C   LIG A   1      -7.643  -2.608 130.466  0.00  0.00    +0.031 C 
BRANCH  21  25
ATOM     22  C   LIG A   1      -5.075  -4.994 132.218  0.00  0.00    +0.038 C 
ATOM     23  C   LIG A   1      -5.698  -4.090 131.187  0.00  0.00    -0.080 C 
ATOM     24  C   LIG A   1      -4.849  -3.879 129.962  0.00  0.00    +0.038 C 
ATOM     25  C   LIG A   1      -6.914  -3.547 131.388  0.00  0.00    -0.028 C 
ENDBRANCH  21  25
ENDBRANCH  20  21
ENDBRANCH  17  20
ENDBRANCH  16  19
ENDBRANCH  15  16
ENDBRANCH   1  15
TORSDOF 10
ENDMDL
MODEL 9
REMARK VINA RESULT:      -6.5      4.904      8.435
REMARK  Name = NuBBE_70
REMARK  14 active torsions:
REMARK  status: ('A' for Active; 'I' for Inactive)
REMARK    1  A    between atoms: C_1  and  C_2
REMARK    2  A    between atoms: C_2  and  C_3
REMARK    3  A    between atoms: C_4  and  C_5
REMARK    4  A    between atoms: C_5  and  C_6
REMARK    5  A    between atoms: C_6  and  C_7
REMARK    6  A    between atoms: C_7  and  C_8
REMARK    7  A    between atoms: C_9  and  C_10
REMARK    8  A    between atoms: C_10  and  C_11
REMARK    9  A    between atoms: C_11  and  C_12
REMARK   10  A    between atoms: C_12  and  C_13
REMARK   11  A    between atoms: C_12  and  C_14
REMARK   12  A    between atoms: C_12  and  C_22
REMARK   13  A    between atoms: C_16  and  O_17
REMARK   14  A    between atoms: C_18  and  O_19
REMARK                            x       y       z     vdW  Elec       q    Type
REMARK                         _______ _______ _______ _____ _____    ______ ____
ROOT
ATOM      1  C   LIG A   1      -6.896  -2.914 129.538  0.00  0.00    +0.011 C 
ATOM      2  C   LIG A   1      -6.146  -4.133 130.140  0.00  0.00    +0.020 C 
ENDROOT
BRANCH   1   3
ATOM      3  C   LIG A   1      -7.090  -1.797 130.602  0.00  0.00    -0.034 A 
ATOM      4  C   LIG A   1      -8.339  -1.160 130.775  0.00  0.00    +0.053 A 
ATOM      5  C   LIG A   1      -8.496  -0.146 131.722  0.00  0.00    +0.159 A 
ATOM      6  C   LIG A   1      -7.425   0.258 132.509  0.00  0.00    +0.158 A 
ATOM      7  C   LIG A   1      -6.187  -0.337 132.363  0.00  0.00    +0.049 A 
ATOM      8  C   LIG A   1      -6.022  -1.353 131.416  0.00  0.00    +0.008 A 
BRANCH   5   9
ATOM      9  O   LIG A   1      -9.691   0.494 131.904  0.00  0.00    -0.503 OA
ATOM     10  H   LIG A   1      -9.641   1.355 131.455  0.00  0.00    +0.292 HD
ENDBRANCH   5   9
BRANCH   6  11
ATOM     11  O   LIG A   1      -7.585   1.255 133.427  0.00  0.00    -0.503 OA
ATOM     12  H   LIG A   1      -7.784   2.048 132.892  0.00  0.00    +0.292 HD
ENDBRANCH   6  11
ENDBRANCH   1   3
BRANCH   1  13
ATOM     13  C   LIG A   1      -8.274  -3.462 129.103  0.00  0.00    -0.023 C 
ATOM     14  C   LIG A   1      -8.735  -3.666 127.846  0.00  0.00    +0.005 C 
ENDBRANCH   1  13
BRANCH   1  15
ATOM     15  C   LIG A   1      -6.094  -2.373 128.303  0.00  0.00    +0.019 C 
BRANCH  15  16
ATOM     16  C   LIG A   1      -6.248  -0.877 128.000  0.00  0.00    +0.028 C 
BRANCH  16  19
ATOM     17  C   LIG A   1      -7.134  -0.299 125.667  0.00  0.00    -0.076 C 
ATOM     18  C   LIG A   1      -8.594  -0.464 126.001  0.00  0.00    +0.038 C 
ATOM     19  C   LIG A   1      -6.126  -0.537 126.535  0.00  0.00    -0.028 C 
BRANCH  17  20
ATOM     20  C   LIG A   1      -6.847   0.145 124.239  0.00  0.00    +0.034 C 
BRANCH  20  21
ATOM     21  C   LIG A   1      -6.991  -1.003 123.228  0.00  0.00    +0.031 C 
BRANCH  21  25
ATOM     22  C   LIG A   1      -4.757  -4.164 123.839  0.00  0.00    +0.038 C 
ATOM     23  C   LIG A   1      -5.955  -3.251 123.837  0.00  0.00    -0.080 C 
ATOM     24  C   LIG A   1      -7.188  -3.857 124.451  0.00  0.00    +0.038 C 
ATOM     25  C   LIG A   1      -5.876  -2.008 123.324  0.00  0.00    -0.028 C 
ENDBRANCH  21  25
ENDBRANCH  20  21
ENDBRANCH  17  20
ENDBRANCH  16  19
ENDBRANCH  15  16
ENDBRANCH   1  15
TORSDOF 10
ENDMDL
