MODEL 1
REMARK VINA RESULT:      -7.2      0.000      0.000
REMARK  Name = NuBBE_1275
REMARK  4 active torsions:
REMARK  status: ('A' for Active; 'I' for Inactive)
REMARK    1  A    between atoms: C_10  and  O_12
REMARK    2  A    between atoms: C_13  and  O_15
REMARK    3  A    between atoms: C_16  and  C_17
REMARK    4  A    between atoms: C_16  and  C_18
REMARK                            x       y       z     vdW  Elec       q    Type
REMARK                         _______ _______ _______ _____ _____    ______ ____
ROOT
ATOM      1  O   LIG A   1     -10.045  -3.347 123.260  0.00  0.00    -0.245 OA
ATOM      2  C   LIG A   1      -9.144  -3.102 124.049  0.00  0.00    +0.337 A 
ATOM      3  C   LIG A   1      -7.830  -2.639 123.565  0.00  0.00    +0.092 A 
ATOM      4  C   LIG A   1      -6.823  -2.350 124.393  0.00  0.00    +0.018 A 
ATOM      5  O   LIG A   1      -9.294  -3.243 125.425  0.00  0.00    -0.422 OA
ATOM      6  C   LIG A   1      -8.237  -2.950 126.310  0.00  0.00    +0.142 A 
ATOM      7  C   LIG A   1      -7.012  -2.498 125.825  0.00  0.00    +0.018 A 
ATOM      8  C   LIG A   1      -5.995  -2.206 126.731  0.00  0.00    +0.021 A 
ATOM      9  C   LIG A   1      -6.201  -2.371 128.111  0.00  0.00    +0.026 A 
ATOM     10  C   LIG A   1      -5.092  -2.058 129.074  0.00  0.00    +0.180 C 
ATOM     11  C   LIG A   1      -5.609  -2.016 130.514  0.00  0.00    +0.190 C 
ATOM     12  C   LIG A   1      -6.534  -3.222 130.769  0.00  0.00    +0.134 C 
ATOM     13  C   LIG A   1      -5.843  -4.587 130.592  0.00  0.00    +0.058 C 
ATOM     14  C   LIG A   1      -7.063  -3.155 132.211  0.00  0.00    +0.058 C 
ATOM     15  O   LIG A   1      -7.684  -3.153 129.892  0.00  0.00    -0.483 OA
ATOM     16  C   LIG A   1      -7.424  -2.881 128.573  0.00  0.00    +0.131 A 
ATOM     17  C   LIG A   1      -8.457  -3.144 127.672  0.00  0.00    +0.093 A 
ENDROOT
BRANCH  10  18
ATOM     18  O   LIG A   1      -4.487  -0.788 128.789  0.00  0.00    -0.384 OA
ATOM     19  H   LIG A   1      -3.522  -0.919 128.794  0.00  0.00    +0.210 HD
ENDBRANCH  10  18
BRANCH  11  20
ATOM     20  O   LIG A   1      -4.501  -1.965 131.418  0.00  0.00    -0.385 OA
ATOM     21  H   LIG A   1      -3.773  -1.548 130.918  0.00  0.00    +0.210 HD
ENDBRANCH  11  20
TORSDOF 2
ENDMDL
MODEL 2
REMARK VINA RESULT:      -6.9      1.306      6.372
REMARK  Name = NuBBE_1275
REMARK  4 active torsions:
REMARK  status: ('A' for Active; 'I' for Inactive)
REMARK    1  A    between atoms: C_10  and  O_12
REMARK    2  A    between atoms: C_13  and  O_15
REMARK    3  A    between atoms: C_16  and  C_17
REMARK    4  A    between atoms: C_16  and  C_18
REMARK                            x       y       z     vdW  Elec       q    Type
REMARK                         _______ _______ _______ _____ _____    ______ ____
ROOT
ATOM      1  O   LIG A   1      -5.245  -1.775 132.239  0.00  0.00    -0.245 OA
ATOM      2  C   LIG A   1      -5.908  -2.099 131.263  0.00  0.00    +0.337 A 
ATOM      3  C   LIG A   1      -7.113  -2.934 131.421  0.00  0.00    +0.092 A 
ATOM      4  C   LIG A   1      -7.871  -3.301 130.384  0.00  0.00    +0.018 A 
ATOM      5  O   LIG A   1      -5.575  -1.711 129.969  0.00  0.00    -0.422 OA
ATOM      6  C   LIG A   1      -6.361  -2.097 128.866  0.00  0.00    +0.142 A 
ATOM      7  C   LIG A   1      -7.504  -2.872 129.046  0.00  0.00    +0.018 A 
ATOM      8  C   LIG A   1      -8.263  -3.225 127.933  0.00  0.00    +0.021 A 
ATOM      9  C   LIG A   1      -7.877  -2.808 126.647  0.00  0.00    +0.026 A 
ATOM     10  C   LIG A   1      -8.703  -3.202 125.456  0.00  0.00    +0.180 C 
ATOM     11  C   LIG A   1      -8.287  -2.411 124.213  0.00  0.00    +0.190 C 
ATOM     12  C   LIG A   1      -6.750  -2.378 124.108  0.00  0.00    +0.134 C 
ATOM     13  C   LIG A   1      -6.103  -3.769 123.978  0.00  0.00    +0.058 C 
ATOM     14  C   LIG A   1      -6.348  -1.562 122.869  0.00  0.00    +0.058 C 
ATOM     15  O   LIG A   1      -6.193  -1.700 125.261  0.00  0.00    -0.483 OA
ATOM     16  C   LIG A   1      -6.691  -2.076 126.483  0.00  0.00    +0.131 A 
ATOM     17  C   LIG A   1      -5.945  -1.693 127.598  0.00  0.00    +0.093 A 
ENDROOT
BRANCH  10  18
ATOM     18  O   LIG A   1     -10.100  -2.964 125.680  0.00  0.00    -0.384 OA
ATOM     19  H   LIG A   1     -10.591  -3.479 125.015  0.00  0.00    +0.210 HD
ENDBRANCH  10  18
BRANCH  11  20
ATOM     20  O   LIG A   1      -8.910  -2.977 123.056  0.00  0.00    -0.385 OA
ATOM     21  H   LIG A   1      -9.086  -3.911 123.283  0.00  0.00    +0.210 HD
ENDBRANCH  11  20
TORSDOF 2
ENDMDL
MODEL 3
REMARK VINA RESULT:      -6.8      6.116      7.346
REMARK  Name = NuBBE_1275
REMARK  4 active torsions:
REMARK  status: ('A' for Active; 'I' for Inactive)
REMARK    1  A    between atoms: C_10  and  O_12
REMARK    2  A    between atoms: C_13  and  O_15
REMARK    3  A    between atoms: C_16  and  C_17
REMARK    4  A    between atoms: C_16  and  C_18
REMARK                            x       y       z     vdW  Elec       q    Type
REMARK                         _______ _______ _______ _____ _____    ______ ____
ROOT
ATOM      1  O   LIG A   1      -9.193   4.437 118.398  0.00  0.00    -0.245 OA
ATOM      2  C   LIG A   1      -8.491   4.207 119.373  0.00  0.00    +0.337 A 
ATOM      3  C   LIG A   1      -7.036   4.444 119.321  0.00  0.00    +0.092 A 
ATOM      4  C   LIG A   1      -6.235   4.217 120.365  0.00  0.00    +0.018 A 
ATOM      5  O   LIG A   1      -9.006   3.714 120.567  0.00  0.00    -0.422 OA
ATOM      6  C   LIG A   1      -8.172   3.462 121.674  0.00  0.00    +0.142 A 
ATOM      7  C   LIG A   1      -6.804   3.712 121.602  0.00  0.00    +0.018 A 
ATOM      8  C   LIG A   1      -6.013   3.462 122.721  0.00  0.00    +0.021 A 
ATOM      9  C   LIG A   1      -6.587   2.960 123.902  0.00  0.00    +0.026 A 
ATOM     10  C   LIG A   1      -5.718   2.691 125.097  0.00  0.00    +0.180 C 
ATOM     11  C   LIG A   1      -6.566   2.441 126.347  0.00  0.00    +0.190 C 
ATOM     12  C   LIG A   1      -7.727   1.486 126.006  0.00  0.00    +0.134 C 
ATOM     13  C   LIG A   1      -7.271   0.104 125.503  0.00  0.00    +0.058 C 
ATOM     14  C   LIG A   1      -8.581   1.263 127.264  0.00  0.00    +0.058 C 
ATOM     15  O   LIG A   1      -8.587   2.094 125.012  0.00  0.00    -0.483 OA
ATOM     16  C   LIG A   1      -7.957   2.664 123.933  0.00  0.00    +0.131 A 
ATOM     17  C   LIG A   1      -8.760   2.943 122.827  0.00  0.00    +0.093 A 
ENDROOT
BRANCH  10  18
ATOM     18  O   LIG A   1      -4.843   3.794 125.375  0.00  0.00    -0.384 OA
ATOM     19  H   LIG A   1      -4.546   4.150 124.518  0.00  0.00    +0.210 HD
ENDBRANCH  10  18
BRANCH  11  20
ATOM     20  O   LIG A   1      -5.732   1.947 127.400  0.00  0.00    -0.385 OA
ATOM     21  H   LIG A   1      -6.064   1.049 127.598  0.00  0.00    +0.210 HD
ENDBRANCH  11  20
TORSDOF 2
ENDMDL
MODEL 4
REMARK VINA RESULT:      -6.7      9.041      9.875
REMARK  Name = NuBBE_1275
REMARK  4 active torsions:
REMARK  status: ('A' for Active; 'I' for Inactive)
REMARK    1  A    between atoms: C_10  and  O_12
REMARK    2  A    between atoms: C_13  and  O_15
REMARK    3  A    between atoms: C_16  and  C_17
REMARK    4  A    between atoms: C_16  and  C_18
REMARK                            x       y       z     vdW  Elec       q    Type
REMARK                         _______ _______ _______ _____ _____    ______ ____
ROOT
ATOM      1  O   LIG A   1     -12.965   7.540 127.327  0.00  0.00    -0.245 OA
ATOM      2  C   LIG A   1     -12.449   7.194 128.381  0.00  0.00    +0.337 A 
ATOM      3  C   LIG A   1     -13.143   7.415 129.663  0.00  0.00    +0.092 A 
ATOM      4  C   LIG A   1     -12.621   7.043 130.834  0.00  0.00    +0.018 A 
ATOM      5  O   LIG A   1     -11.200   6.583 128.438  0.00  0.00    -0.422 OA
ATOM      6  C   LIG A   1     -10.634   6.192 129.667  0.00  0.00    +0.142 A 
ATOM      7  C   LIG A   1     -11.320   6.398 130.861  0.00  0.00    +0.018 A 
ATOM      8  C   LIG A   1     -10.733   5.987 132.056  0.00  0.00    +0.021 A 
ATOM      9  C   LIG A   1      -9.466   5.379 132.055  0.00  0.00    +0.026 A 
ATOM     10  C   LIG A   1      -8.845   4.947 133.353  0.00  0.00    +0.180 C 
ATOM     11  C   LIG A   1      -7.626   4.053 133.107  0.00  0.00    +0.190 C 
ATOM     12  C   LIG A   1      -6.748   4.663 131.998  0.00  0.00    +0.134 C 
ATOM     13  C   LIG A   1      -6.203   6.064 132.333  0.00  0.00    +0.058 C 
ATOM     14  C   LIG A   1      -5.542   3.744 131.748  0.00  0.00    +0.058 C 
ATOM     15  O   LIG A   1      -7.496   4.727 130.759  0.00  0.00    -0.483 OA
ATOM     16  C   LIG A   1      -8.769   5.232 130.846  0.00  0.00    +0.131 A 
ATOM     17  C   LIG A   1      -9.366   5.612 129.643  0.00  0.00    +0.093 A 
ENDROOT
BRANCH  10  18
ATOM     18  O   LIG A   1      -9.772   4.210 134.163  0.00  0.00    -0.384 OA
ATOM     19  H   LIG A   1      -9.993   3.394 133.680  0.00  0.00    +0.210 HD
ENDBRANCH  10  18
BRANCH  11  20
ATOM     20  O   LIG A   1      -6.917   3.865 134.336  0.00  0.00    -0.385 OA
ATOM     21  H   LIG A   1      -6.054   3.481 134.085  0.00  0.00    +0.210 HD
ENDBRANCH  11  20
TORSDOF 2
ENDMDL
MODEL 5
REMARK VINA RESULT:      -6.4      4.069      5.599
REMARK  Name = NuBBE_1275
REMARK  4 active torsions:
REMARK  status: ('A' for Active; 'I' for Inactive)
REMARK    1  A    between atoms: C_10  and  O_12
REMARK    2  A    between atoms: C_13  and  O_15
REMARK    3  A    between atoms: C_16  and  C_17
REMARK    4  A    between atoms: C_16  and  C_18
REMARK                            x       y       z     vdW  Elec       q    Type
REMARK                         _______ _______ _______ _____ _____    ______ ____
ROOT
ATOM      1  O   LIG A   1      -9.037   4.108 120.447  0.00  0.00    -0.245 OA
ATOM      2  C   LIG A   1      -8.519   3.395 121.295  0.00  0.00    +0.337 A 
ATOM      3  C   LIG A   1      -7.118   3.610 121.701  0.00  0.00    +0.092 A 
ATOM      4  C   LIG A   1      -6.518   2.862 122.631  0.00  0.00    +0.018 A 
ATOM      5  O   LIG A   1      -9.203   2.356 121.918  0.00  0.00    -0.422 OA
ATOM      6  C   LIG A   1      -8.580   1.554 122.895  0.00  0.00    +0.142 A 
ATOM      7  C   LIG A   1      -7.260   1.791 123.271  0.00  0.00    +0.018 A 
ATOM      8  C   LIG A   1      -6.682   0.985 124.249  0.00  0.00    +0.021 A 
ATOM      9  C   LIG A   1      -7.419  -0.055 124.842  0.00  0.00    +0.026 A 
ATOM     10  C   LIG A   1      -6.779  -0.918 125.891  0.00  0.00    +0.180 C 
ATOM     11  C   LIG A   1      -7.824  -1.776 126.609  0.00  0.00    +0.190 C 
ATOM     12  C   LIG A   1      -8.782  -2.400 125.577  0.00  0.00    +0.134 C 
ATOM     13  C   LIG A   1      -8.088  -3.320 124.555  0.00  0.00    +0.058 C 
ATOM     14  C   LIG A   1      -9.838  -3.240 126.313  0.00  0.00    +0.058 C 
ATOM     15  O   LIG A   1      -9.492  -1.354 124.869  0.00  0.00    -0.483 OA
ATOM     16  C   LIG A   1      -8.728  -0.311 124.408  0.00  0.00    +0.131 A 
ATOM     17  C   LIG A   1      -9.323   0.514 123.452  0.00  0.00    +0.093 A 
ENDROOT
BRANCH  10  18
ATOM     18  O   LIG A   1      -6.102  -0.132 126.883  0.00  0.00    -0.384 OA
ATOM     19  H   LIG A   1      -6.229  -0.576 127.740  0.00  0.00    +0.210 HD
ENDBRANCH  10  18
BRANCH  11  20
ATOM     20  O   LIG A   1      -7.164  -2.756 127.417  0.00  0.00    -0.385 OA
ATOM     21  H   LIG A   1      -7.860  -3.388 127.685  0.00  0.00    +0.210 HD
ENDBRANCH  11  20
TORSDOF 2
ENDMDL
MODEL 6
REMARK VINA RESULT:      -6.4      9.400     11.486
REMARK  Name = NuBBE_1275
REMARK  4 active torsions:
REMARK  status: ('A' for Active; 'I' for Inactive)
REMARK    1  A    between atoms: C_10  and  O_12
REMARK    2  A    between atoms: C_13  and  O_15
REMARK    3  A    between atoms: C_16  and  C_17
REMARK    4  A    between atoms: C_16  and  C_18
REMARK                            x       y       z     vdW  Elec       q    Type
REMARK                         _______ _______ _______ _____ _____    ______ ____
ROOT
ATOM      1  O   LIG A   1      -1.175   7.133 131.860  0.00  0.00    -0.245 OA
ATOM      2  C   LIG A   1      -2.319   6.800 132.135  0.00  0.00    +0.337 A 
ATOM      3  C   LIG A   1      -2.590   5.944 133.305  0.00  0.00    +0.092 A 
ATOM      4  C   LIG A   1      -3.824   5.567 133.647  0.00  0.00    +0.018 A 
ATOM      5  O   LIG A   1      -3.417   7.195 131.377  0.00  0.00    -0.422 OA
ATOM      6  C   LIG A   1      -4.724   6.798 131.722  0.00  0.00    +0.142 A 
ATOM      7  C   LIG A   1      -4.951   6.004 132.843  0.00  0.00    +0.018 A 
ATOM      8  C   LIG A   1      -6.259   5.641 133.159  0.00  0.00    +0.021 A 
ATOM      9  C   LIG A   1      -7.330   6.067 132.354  0.00  0.00    +0.026 A 
ATOM     10  C   LIG A   1      -8.733   5.662 132.706  0.00  0.00    +0.180 C 
ATOM     11  C   LIG A   1      -9.755   6.462 131.895  0.00  0.00    +0.190 C 
ATOM     12  C   LIG A   1      -9.317   6.522 130.419  0.00  0.00    +0.134 C 
ATOM     13  C   LIG A   1      -9.207   5.142 129.744  0.00  0.00    +0.058 C 
ATOM     14  C   LIG A   1     -10.340   7.347 129.622  0.00  0.00    +0.058 C 
ATOM     15  O   LIG A   1      -8.044   7.206 130.311  0.00  0.00    -0.483 OA
ATOM     16  C   LIG A   1      -7.072   6.819 131.199  0.00  0.00    +0.131 A 
ATOM     17  C   LIG A   1      -5.768   7.212 130.896  0.00  0.00    +0.093 A 
ENDROOT
BRANCH  10  18
ATOM     18  O   LIG A   1      -9.012   5.876 134.097  0.00  0.00    -0.384 OA
ATOM     19  H   LIG A   1      -8.948   6.834 134.260  0.00  0.00    +0.210 HD
ENDBRANCH  10  18
BRANCH  11  20
ATOM     20  O   LIG A   1     -11.055   5.889 132.065  0.00  0.00    -0.385 OA
ATOM     21  H   LIG A   1     -11.082   5.117 131.466  0.00  0.00    +0.210 HD
ENDBRANCH  11  20
TORSDOF 2
ENDMDL
MODEL 7
REMARK VINA RESULT:      -6.3      7.795      9.612
REMARK  Name = NuBBE_1275
REMARK  4 active torsions:
REMARK  status: ('A' for Active; 'I' for Inactive)
REMARK    1  A    between atoms: C_10  and  O_12
REMARK    2  A    between atoms: C_13  and  O_15
REMARK    3  A    between atoms: C_16  and  C_17
REMARK    4  A    between atoms: C_16  and  C_18
REMARK                            x       y       z     vdW  Elec       q    Type
REMARK                         _______ _______ _______ _____ _____    ______ ____
ROOT
ATOM      1  O   LIG A   1      -2.424   6.803 127.978  0.00  0.00    -0.245 OA
ATOM      2  C   LIG A   1      -3.345   6.760 128.781  0.00  0.00    +0.337 A 
ATOM      3  C   LIG A   1      -3.756   7.971 129.516  0.00  0.00    +0.092 A 
ATOM      4  C   LIG A   1      -4.763   7.969 130.393  0.00  0.00    +0.018 A 
ATOM      5  O   LIG A   1      -4.049   5.590 129.051  0.00  0.00    -0.422 OA
ATOM      6  C   LIG A   1      -5.108   5.573 129.980  0.00  0.00    +0.142 A 
ATOM      7  C   LIG A   1      -5.485   6.736 130.646  0.00  0.00    +0.018 A 
ATOM      8  C   LIG A   1      -6.546   6.682 131.549  0.00  0.00    +0.021 A 
ATOM      9  C   LIG A   1      -7.219   5.471 131.786  0.00  0.00    +0.026 A 
ATOM     10  C   LIG A   1      -8.356   5.430 132.766  0.00  0.00    +0.180 C 
ATOM     11  C   LIG A   1      -9.130   4.114 132.654  0.00  0.00    +0.190 C 
ATOM     12  C   LIG A   1      -8.142   2.935 132.569  0.00  0.00    +0.134 C 
ATOM     13  C   LIG A   1      -7.224   2.799 133.798  0.00  0.00    +0.058 C 
ATOM     14  C   LIG A   1      -8.933   1.624 132.434  0.00  0.00    +0.058 C 
ATOM     15  O   LIG A   1      -7.326   3.062 131.378  0.00  0.00    -0.483 OA
ATOM     16  C   LIG A   1      -6.785   4.301 131.145  0.00  0.00    +0.131 A 
ATOM     17  C   LIG A   1      -5.745   4.356 130.216  0.00  0.00    +0.093 A 
ENDROOT
BRANCH  10  18
ATOM     18  O   LIG A   1      -9.282   6.503 132.547  0.00  0.00    -0.384 OA
ATOM     19  H   LIG A   1      -8.993   6.975 131.746  0.00  0.00    +0.210 HD
ENDBRANCH  10  18
BRANCH  11  20
ATOM     20  O   LIG A   1     -10.038   3.999 133.754  0.00  0.00    -0.385 OA
ATOM     21  H   LIG A   1      -9.794   3.170 134.210  0.00  0.00    +0.210 HD
ENDBRANCH  11  20
TORSDOF 2
ENDMDL
MODEL 8
REMARK VINA RESULT:      -6.3      1.615      5.980
REMARK  Name = NuBBE_1275
REMARK  4 active torsions:
REMARK  status: ('A' for Active; 'I' for Inactive)
REMARK    1  A    between atoms: C_10  and  O_12
REMARK    2  A    between atoms: C_13  and  O_15
REMARK    3  A    between atoms: C_16  and  C_17
REMARK    4  A    between atoms: C_16  and  C_18
REMARK                            x       y       z     vdW  Elec       q    Type
REMARK                         _______ _______ _______ _____ _____    ______ ____
ROOT
ATOM      1  O   LIG A   1      -7.123  -3.338 132.346  0.00  0.00    -0.245 OA
ATOM      2  C   LIG A   1      -6.819  -3.053 131.196  0.00  0.00    +0.337 A 
ATOM      3  C   LIG A   1      -5.514  -2.435 130.898  0.00  0.00    +0.092 A 
ATOM      4  C   LIG A   1      -5.138  -2.118 129.656  0.00  0.00    +0.018 A 
ATOM      5  O   LIG A   1      -7.667  -3.285 130.118  0.00  0.00    -0.422 OA
ATOM      6  C   LIG A   1      -7.287  -2.948 128.804  0.00  0.00    +0.142 A 
ATOM      7  C   LIG A   1      -6.041  -2.381 128.550  0.00  0.00    +0.018 A 
ATOM      8  C   LIG A   1      -5.695  -2.073 127.236  0.00  0.00    +0.021 A 
ATOM      9  C   LIG A   1      -6.594  -2.326 126.185  0.00  0.00    +0.026 A 
ATOM     10  C   LIG A   1      -6.208  -1.982 124.775  0.00  0.00    +0.180 C 
ATOM     11  C   LIG A   1      -7.184  -2.602 123.772  0.00  0.00    +0.190 C 
ATOM     12  C   LIG A   1      -8.632  -2.381 124.250  0.00  0.00    +0.134 C 
ATOM     13  C   LIG A   1      -9.027  -0.899 124.385  0.00  0.00    +0.058 C 
ATOM     14  C   LIG A   1      -9.599  -3.028 123.245  0.00  0.00    +0.058 C 
ATOM     15  O   LIG A   1      -8.836  -3.045 125.522  0.00  0.00    -0.483 OA
ATOM     16  C   LIG A   1      -7.865  -2.845 126.471  0.00  0.00    +0.131 A 
ATOM     17  C   LIG A   1      -8.204  -3.186 127.781  0.00  0.00    +0.093 A 
ENDROOT
BRANCH  10  18
ATOM     18  O   LIG A   1      -4.892  -2.456 124.456  0.00  0.00    -0.384 OA
ATOM     19  H   LIG A   1      -4.281  -2.073 125.110  0.00  0.00    +0.210 HD
ENDBRANCH  10  18
BRANCH  11  20
ATOM     20  O   LIG A   1      -6.941  -2.058 122.470  0.00  0.00    -0.385 OA
ATOM     21  H   LIG A   1      -6.938  -1.088 122.587  0.00  0.00    +0.210 HD
ENDBRANCH  11  20
TORSDOF 2
ENDMDL
MODEL 9
REMARK VINA RESULT:      -6.3      1.813      6.467
REMARK  Name = NuBBE_1275
REMARK  4 active torsions:
REMARK  status: ('A' for Active; 'I' for Inactive)
REMARK    1  A    between atoms: C_10  and  O_12
REMARK    2  A    between atoms: C_13  and  O_15
REMARK    3  A    between atoms: C_16  and  C_17
REMARK    4  A    between atoms: C_16  and  C_18
REMARK                            x       y       z     vdW  Elec       q    Type
REMARK                         _______ _______ _______ _____ _____    ______ ____
ROOT
ATOM      1  O   LIG A   1      -5.220  -1.780 132.043  0.00  0.00    -0.245 OA
ATOM      2  C   LIG A   1      -5.844  -2.028 131.021  0.00  0.00    +0.337 A 
ATOM      3  C   LIG A   1      -6.571  -3.304 130.877  0.00  0.00    +0.092 A 
ATOM      4  C   LIG A   1      -7.273  -3.609 129.784  0.00  0.00    +0.018 A 
ATOM      5  O   LIG A   1      -5.906  -1.144 129.949  0.00  0.00    -0.422 OA
ATOM      6  C   LIG A   1      -6.637  -1.457 128.785  0.00  0.00    +0.142 A 
ATOM      7  C   LIG A   1      -7.328  -2.662 128.684  0.00  0.00    +0.018 A 
ATOM      8  C   LIG A   1      -8.049  -2.931 127.523  0.00  0.00    +0.021 A 
ATOM      9  C   LIG A   1      -8.074  -2.002 126.469  0.00  0.00    +0.026 A 
ATOM     10  C   LIG A   1      -8.852  -2.310 125.221  0.00  0.00    +0.180 C 
ATOM     11  C   LIG A   1      -8.992  -1.066 124.341  0.00  0.00    +0.190 C 
ATOM     12  C   LIG A   1      -7.637  -0.341 124.244  0.00  0.00    +0.134 C 
ATOM     13  C   LIG A   1      -6.515  -1.193 123.621  0.00  0.00    +0.058 C 
ATOM     14  C   LIG A   1      -7.799   0.917 123.375  0.00  0.00    +0.058 C 
ATOM     15  O   LIG A   1      -7.222   0.103 125.559  0.00  0.00    -0.483 OA
ATOM     16  C   LIG A   1      -7.325  -0.820 126.569  0.00  0.00    +0.131 A 
ATOM     17  C   LIG A   1      -6.627  -0.531 127.743  0.00  0.00    +0.093 A 
ENDROOT
BRANCH  10  18
ATOM     18  O   LIG A   1     -10.172  -2.784 125.525  0.00  0.00    -0.384 OA
ATOM     19  H   LIG A   1     -10.512  -2.239 126.257  0.00  0.00    +0.210 HD
ENDBRANCH  10  18
BRANCH  11  20
ATOM     20  O   LIG A   1      -9.513  -1.443 123.062  0.00  0.00    -0.385 OA
ATOM     21  H   LIG A   1      -8.900  -2.122 122.719  0.00  0.00    +0.210 HD
ENDBRANCH  11  20
TORSDOF 2
ENDMDL
