MODEL 1
REMARK VINA RESULT:      -8.8      0.000      0.000
REMARK  Name = NuBBE_1041
REMARK  14 active torsions:
REMARK  status: ('A' for Active; 'I' for Inactive)
REMARK    1  A    between atoms: O_1  and  C_2
REMARK    2  A    between atoms: C_5  and  C_37
REMARK    3  A    between atoms: C_8  and  C_9
REMARK    4  A    between atoms: C_8  and  C_10
REMARK    5  A    between atoms: C_17  and  C_35
REMARK    6  A    between atoms: C_18  and  C_19
REMARK    7  A    between atoms: C_22  and  C_24
REMARK    8  A    between atoms: C_24  and  C_26
REMARK    9  A    between atoms: C_24  and  C_34
REMARK   10  A    between atoms: C_26  and  C_27
REMARK   11  A    between atoms: C_27  and  C_28
REMARK   12  A    between atoms: C_29  and  O_30
REMARK   13  A    between atoms: C_29  and  C_33
REMARK   14  A    between atoms: O_30  and  C_31
REMARK                            x       y       z     vdW  Elec       q    Type
REMARK                         _______ _______ _______ _____ _____    ______ ____
ROOT
ATOM      1  C   LIG A   1      -5.019  -3.557 131.663  0.00  0.00    +0.120 C 
ATOM      2  C   LIG A   1      -5.772  -4.522 130.731  0.00  0.00    +0.032 C 
ATOM      3  C   LIG A   1      -6.660  -3.864 129.665  0.00  0.00    +0.010 C 
ATOM      4  C   LIG A   1      -6.090  -2.537 129.141  0.00  0.00    -0.022 C 
ATOM      5  C   LIG A   1      -5.907  -1.533 130.337  0.00  0.00    +0.007 C 
ATOM      6  C   LIG A   1      -5.635  -2.147 131.754  0.00  0.00    -0.005 C 
ATOM      7  C   LIG A   1      -6.988  -2.257 132.519  0.00  0.00    +0.014 C 
ATOM      8  C   LIG A   1      -4.746  -1.227 132.622  0.00  0.00    +0.014 C 
ATOM      9  C   LIG A   1      -5.026  -0.373 129.858  0.00  0.00    +0.031 C 
ATOM     10  C   LIG A   1      -5.576   0.196 128.570  0.00  0.00    -0.026 C 
ATOM     11  C   LIG A   1      -6.538  -0.380 127.804  0.00  0.00    -0.063 C 
ATOM     12  C   LIG A   1      -7.083  -1.778 128.180  0.00  0.00    +0.021 C 
ATOM     13  C   LIG A   1      -7.523  -2.628 126.986  0.00  0.00    +0.009 C 
ATOM     14  C   LIG A   1      -8.456  -1.833 126.095  0.00  0.00    +0.008 C 
ATOM     15  C   LIG A   1      -7.773  -0.573 125.488  0.00  0.00    -0.020 C 
ATOM     16  C   LIG A   1      -7.190   0.360 126.618  0.00  0.00    -0.005 C 
ATOM     17  C   LIG A   1      -6.209   1.412 126.017  0.00  0.00    +0.016 C 
ATOM     18  C   LIG A   1      -8.451   1.083 127.119  0.00  0.00    +0.012 C 
ATOM     19  C   LIG A   1      -9.268   1.374 125.866  0.00  0.00    +0.005 C 
ATOM     20  C   LIG A   1      -8.951   0.264 124.825  0.00  0.00    -0.001 C 
ATOM     21  C   LIG A   1      -6.644  -1.073 124.568  0.00  0.00    +0.012 C 
ATOM     22  C   LIG A   1      -4.786  -2.876 128.350  0.00  0.00    +0.012 C 
ENDROOT
BRANCH   1  23
ATOM     23  O   LIG A   1      -3.655  -3.446 131.254  0.00  0.00    -0.391 OA
ATOM     24  H   LIG A   1      -3.243  -2.741 131.783  0.00  0.00    +0.210 HD
ENDBRANCH   1  23
BRANCH  20  25
ATOM     25  C   LIG A   1      -8.803   0.834 123.380  0.00  0.00    -0.010 C 
ATOM     26  C   LIG A   1     -10.013   0.551 122.477  0.00  0.00    +0.008 C 
BRANCH  25  27
ATOM     27  C   LIG A   1      -8.527   2.370 123.337  0.00  0.00    +0.008 C 
BRANCH  27  28
ATOM     28  C   LIG A   1      -7.234   2.808 122.628  0.00  0.00    +0.031 C 
BRANCH  28  29
ATOM     29  C   LIG A   1      -7.527   3.422 121.284  0.00  0.00    +0.014 C 
ATOM     30  C   LIG A   1      -6.631   3.955 120.435  0.00  0.00    +0.102 C 
ATOM     31  C   LIG A   1      -7.009   4.493 119.082  0.00  0.00    +0.086 C 
BRANCH  30  32
ATOM     32  O   LIG A   1      -5.254   3.930 120.744  0.00  0.00    -0.433 OA
BRANCH  32  33
ATOM     33  C   LIG A   1      -4.752   5.087 121.266  0.00  0.00    +0.451 C 
ATOM     34  O   LIG A   1      -4.491   6.132 120.706  0.00  0.00    -0.254 OA
ENDBRANCH  32  33
ENDBRANCH  30  32
ENDBRANCH  28  29
ENDBRANCH  27  28
ENDBRANCH  25  27
ENDBRANCH  20  25
TORSDOF 7
ENDMDL
MODEL 2
REMARK VINA RESULT:      -8.6      2.044      2.427
REMARK  Name = NuBBE_1041
REMARK  14 active torsions:
REMARK  status: ('A' for Active; 'I' for Inactive)
REMARK    1  A    between atoms: O_1  and  C_2
REMARK    2  A    between atoms: C_5  and  C_37
REMARK    3  A    between atoms: C_8  and  C_9
REMARK    4  A    between atoms: C_8  and  C_10
REMARK    5  A    between atoms: C_17  and  C_35
REMARK    6  A    between atoms: C_18  and  C_19
REMARK    7  A    between atoms: C_22  and  C_24
REMARK    8  A    between atoms: C_24  and  C_26
REMARK    9  A    between atoms: C_24  and  C_34
REMARK   10  A    between atoms: C_26  and  C_27
REMARK   11  A    between atoms: C_27  and  C_28
REMARK   12  A    between atoms: C_29  and  O_30
REMARK   13  A    between atoms: C_29  and  C_33
REMARK   14  A    between atoms: O_30  and  C_31
REMARK                            x       y       z     vdW  Elec       q    Type
REMARK                         _______ _______ _______ _____ _____    ______ ____
ROOT
ATOM      1  C   LIG A   1      -4.583  -3.547 132.340  0.00  0.00    +0.120 C 
ATOM      2  C   LIG A   1      -5.460  -4.580 131.613  0.00  0.00    +0.032 C 
ATOM      3  C   LIG A   1      -6.405  -4.018 130.541  0.00  0.00    +0.010 C 
ATOM      4  C   LIG A   1      -5.819  -2.809 129.795  0.00  0.00    -0.022 C 
ATOM      5  C   LIG A   1      -5.485  -1.667 130.824  0.00  0.00    +0.007 C 
ATOM      6  C   LIG A   1      -5.120  -2.103 132.285  0.00  0.00    -0.005 C 
ATOM      7  C   LIG A   1      -6.405  -2.029 133.164  0.00  0.00    +0.014 C 
ATOM      8  C   LIG A   1      -4.116  -1.130 132.945  0.00  0.00    +0.014 C 
ATOM      9  C   LIG A   1      -4.593  -0.636 130.121  0.00  0.00    +0.031 C 
ATOM     10  C   LIG A   1      -5.226  -0.212 128.815  0.00  0.00    -0.026 C 
ATOM     11  C   LIG A   1      -6.277  -0.825 128.215  0.00  0.00    -0.063 C 
ATOM     12  C   LIG A   1      -6.854  -2.126 128.822  0.00  0.00    +0.021 C 
ATOM     13  C   LIG A   1      -7.437  -3.100 127.795  0.00  0.00    +0.009 C 
ATOM     14  C   LIG A   1      -8.405  -2.377 126.880  0.00  0.00    +0.008 C 
ATOM     15  C   LIG A   1      -7.717  -1.251 126.053  0.00  0.00    -0.020 C 
ATOM     16  C   LIG A   1      -6.993  -0.212 126.994  0.00  0.00    -0.005 C 
ATOM     17  C   LIG A   1      -6.020   0.690 126.178  0.00  0.00    +0.016 C 
ATOM     18  C   LIG A   1      -8.170   0.644 127.490  0.00  0.00    +0.012 C 
ATOM     19  C   LIG A   1      -9.078   0.815 126.278  0.00  0.00    +0.005 C 
ATOM     20  C   LIG A   1      -8.907  -0.441 125.378  0.00  0.00    -0.001 C 
ATOM     21  C   LIG A   1      -6.698  -1.935 125.124  0.00  0.00    +0.012 C 
ATOM     22  C   LIG A   1      -4.607  -3.327 128.957  0.00  0.00    +0.012 C 
ENDROOT
BRANCH   1  23
ATOM     23  O   LIG A   1      -3.256  -3.573 131.813  0.00  0.00    -0.391 OA
ATOM     24  H   LIG A   1      -2.941  -4.493 131.846  0.00  0.00    +0.210 HD
ENDBRANCH   1  23
BRANCH  20  25
ATOM     25  C   LIG A   1      -8.857  -0.078 123.861  0.00  0.00    -0.010 C 
ATOM     26  C   LIG A   1      -9.201  -1.253 122.933  0.00  0.00    +0.008 C 
BRANCH  25  27
ATOM     27  C   LIG A   1      -9.781   1.119 123.472  0.00  0.00    +0.008 C 
BRANCH  27  28
ATOM     28  C   LIG A   1      -9.140   2.218 122.607  0.00  0.00    +0.031 C 
BRANCH  28  29
ATOM     29  C   LIG A   1      -7.803   2.639 123.159  0.00  0.00    +0.014 C 
ATOM     30  C   LIG A   1      -7.591   3.474 124.191  0.00  0.00    +0.102 C 
ATOM     31  C   LIG A   1      -6.217   3.792 124.714  0.00  0.00    +0.086 C 
BRANCH  30  32
ATOM     32  O   LIG A   1      -8.681   4.012 124.909  0.00  0.00    -0.433 OA
BRANCH  32  33
ATOM     33  C   LIG A   1      -8.363   4.998 125.799  0.00  0.00    +0.451 C 
ATOM     34  O   LIG A   1      -9.081   5.838 126.303  0.00  0.00    -0.254 OA
ENDBRANCH  32  33
ENDBRANCH  30  32
ENDBRANCH  28  29
ENDBRANCH  27  28
ENDBRANCH  25  27
ENDBRANCH  20  25
TORSDOF 7
ENDMDL
MODEL 3
REMARK VINA RESULT:      -8.2      4.547      6.943
REMARK  Name = NuBBE_1041
REMARK  14 active torsions:
REMARK  status: ('A' for Active; 'I' for Inactive)
REMARK    1  A    between atoms: O_1  and  C_2
REMARK    2  A    between atoms: C_5  and  C_37
REMARK    3  A    between atoms: C_8  and  C_9
REMARK    4  A    between atoms: C_8  and  C_10
REMARK    5  A    between atoms: C_17  and  C_35
REMARK    6  A    between atoms: C_18  and  C_19
REMARK    7  A    between atoms: C_22  and  C_24
REMARK    8  A    between atoms: C_24  and  C_26
REMARK    9  A    between atoms: C_24  and  C_34
REMARK   10  A    between atoms: C_26  and  C_27
REMARK   11  A    between atoms: C_27  and  C_28
REMARK   12  A    between atoms: C_29  and  O_30
REMARK   13  A    between atoms: C_29  and  C_33
REMARK   14  A    between atoms: O_30  and  C_31
REMARK                            x       y       z     vdW  Elec       q    Type
REMARK                         _______ _______ _______ _____ _____    ______ ____
ROOT
ATOM      1  C   LIG A   1      -9.010   5.654 132.947  0.00  0.00    +0.120 C 
ATOM      2  C   LIG A   1      -9.200   6.349 131.588  0.00  0.00    +0.032 C 
ATOM      3  C   LIG A   1      -8.529   5.664 130.389  0.00  0.00    +0.010 C 
ATOM      4  C   LIG A   1      -8.512   4.131 130.501  0.00  0.00    -0.022 C 
ATOM      5  C   LIG A   1      -7.756   3.708 131.813  0.00  0.00    +0.007 C 
ATOM      6  C   LIG A   1      -7.792   4.711 133.018  0.00  0.00    -0.005 C 
ATOM      7  C   LIG A   1      -6.501   5.584 132.981  0.00  0.00    +0.014 C 
ATOM      8  C   LIG A   1      -7.755   3.981 134.380  0.00  0.00    +0.014 C 
ATOM      9  C   LIG A   1      -8.055   2.228 132.082  0.00  0.00    +0.031 C 
ATOM     10  C   LIG A   1      -7.774   1.412 130.841  0.00  0.00    -0.026 C 
ATOM     11  C   LIG A   1      -7.549   1.917 129.602  0.00  0.00    -0.063 C 
ATOM     12  C   LIG A   1      -7.671   3.440 129.361  0.00  0.00    +0.021 C 
ATOM     13  C   LIG A   1      -8.145   3.824 127.957  0.00  0.00    +0.009 C 
ATOM     14  C   LIG A   1      -7.311   3.110 126.911  0.00  0.00    +0.008 C 
ATOM     15  C   LIG A   1      -7.445   1.561 126.996  0.00  0.00    -0.020 C 
ATOM     16  C   LIG A   1      -7.068   1.033 128.433  0.00  0.00    -0.005 C 
ATOM     17  C   LIG A   1      -7.540  -0.440 128.624  0.00  0.00    +0.016 C 
ATOM     18  C   LIG A   1      -5.531   1.061 128.391  0.00  0.00    +0.012 C 
ATOM     19  C   LIG A   1      -5.161   0.586 126.991  0.00  0.00    +0.005 C 
ATOM     20  C   LIG A   1      -6.317   0.990 126.033  0.00  0.00    -0.001 C 
ATOM     21  C   LIG A   1      -8.909   1.219 126.665  0.00  0.00    +0.012 C 
ATOM     22  C   LIG A   1      -9.993   3.646 130.398  0.00  0.00    +0.012 C 
ENDROOT
BRANCH   1  23
ATOM     23  O   LIG A   1     -10.188   4.923 133.292  0.00  0.00    -0.391 OA
ATOM     24  H   LIG A   1     -10.955   5.490 133.104  0.00  0.00    +0.210 HD
ENDBRANCH   1  23
BRANCH  20  25
ATOM     25  C   LIG A   1      -6.649  -0.132 125.001  0.00  0.00    -0.010 C 
ATOM     26  C   LIG A   1      -7.031   0.399 123.611  0.00  0.00    +0.008 C 
BRANCH  25  27
ATOM     27  C   LIG A   1      -5.498  -1.170 124.812  0.00  0.00    +0.008 C 
BRANCH  27  28
ATOM     28  C   LIG A   1      -5.834  -2.630 125.166  0.00  0.00    +0.031 C 
BRANCH  28  29
ATOM     29  C   LIG A   1      -7.098  -2.718 125.981  0.00  0.00    +0.014 C 
ATOM     30  C   LIG A   1      -8.290  -3.177 125.562  0.00  0.00    +0.102 C 
ATOM     31  C   LIG A   1      -9.486  -3.285 126.467  0.00  0.00    +0.086 C 
BRANCH  30  32
ATOM     32  O   LIG A   1      -8.437  -3.690 124.255  0.00  0.00    -0.433 OA
BRANCH  32  33
ATOM     33  C   LIG A   1      -9.484  -3.179 123.543  0.00  0.00    +0.451 C 
ATOM     34  O   LIG A   1      -9.648  -2.053 123.121  0.00  0.00    -0.254 OA
ENDBRANCH  32  33
ENDBRANCH  30  32
ENDBRANCH  28  29
ENDBRANCH  27  28
ENDBRANCH  25  27
ENDBRANCH  20  25
TORSDOF 7
ENDMDL
MODEL 4
REMARK VINA RESULT:      -8.2      4.336      7.504
REMARK  Name = NuBBE_1041
REMARK  14 active torsions:
REMARK  status: ('A' for Active; 'I' for Inactive)
REMARK    1  A    between atoms: O_1  and  C_2
REMARK    2  A    between atoms: C_5  and  C_37
REMARK    3  A    between atoms: C_8  and  C_9
REMARK    4  A    between atoms: C_8  and  C_10
REMARK    5  A    between atoms: C_17  and  C_35
REMARK    6  A    between atoms: C_18  and  C_19
REMARK    7  A    between atoms: C_22  and  C_24
REMARK    8  A    between atoms: C_24  and  C_26
REMARK    9  A    between atoms: C_24  and  C_34
REMARK   10  A    between atoms: C_26  and  C_27
REMARK   11  A    between atoms: C_27  and  C_28
REMARK   12  A    between atoms: C_29  and  O_30
REMARK   13  A    between atoms: C_29  and  C_33
REMARK   14  A    between atoms: O_30  and  C_31
REMARK                            x       y       z     vdW  Elec       q    Type
REMARK                         _______ _______ _______ _____ _____    ______ ____
ROOT
ATOM      1  C   LIG A   1      -4.357   6.658 130.774  0.00  0.00    +0.120 C 
ATOM      2  C   LIG A   1      -3.184   5.685 130.979  0.00  0.00    +0.032 C 
ATOM      3  C   LIG A   1      -3.564   4.206 131.147  0.00  0.00    +0.010 C 
ATOM      4  C   LIG A   1      -4.795   3.803 130.320  0.00  0.00    -0.022 C 
ATOM      5  C   LIG A   1      -6.024   4.691 130.737  0.00  0.00    +0.007 C 
ATOM      6  C   LIG A   1      -5.717   6.132 131.275  0.00  0.00    -0.005 C 
ATOM      7  C   LIG A   1      -5.676   6.086 132.832  0.00  0.00    +0.014 C 
ATOM      8  C   LIG A   1      -6.843   7.132 130.923  0.00  0.00    +0.014 C 
ATOM      9  C   LIG A   1      -7.119   4.521 129.678  0.00  0.00    +0.031 C 
ATOM     10  C   LIG A   1      -7.389   3.052 129.447  0.00  0.00    -0.026 C 
ATOM     11  C   LIG A   1      -6.616   2.030 129.896  0.00  0.00    -0.063 C 
ATOM     12  C   LIG A   1      -5.288   2.337 130.627  0.00  0.00    +0.021 C 
ATOM     13  C   LIG A   1      -4.195   1.286 130.423  0.00  0.00    +0.009 C 
ATOM     14  C   LIG A   1      -4.740  -0.098 130.713  0.00  0.00    +0.008 C 
ATOM     15  C   LIG A   1      -5.896  -0.497 129.751  0.00  0.00    -0.020 C 
ATOM     16  C   LIG A   1      -7.067   0.559 129.795  0.00  0.00    -0.005 C 
ATOM     17  C   LIG A   1      -8.039   0.360 128.594  0.00  0.00    +0.016 C 
ATOM     18  C   LIG A   1      -7.795   0.175 131.095  0.00  0.00    +0.012 C 
ATOM     19  C   LIG A   1      -7.784  -1.349 131.122  0.00  0.00    +0.005 C 
ATOM     20  C   LIG A   1      -6.513  -1.827 130.366  0.00  0.00    -0.001 C 
ATOM     21  C   LIG A   1      -5.297  -0.575 128.335  0.00  0.00    +0.012 C 
ATOM     22  C   LIG A   1      -4.388   3.892 128.815  0.00  0.00    +0.012 C 
ENDROOT
BRANCH   1  23
ATOM     23  O   LIG A   1      -4.470   7.006 129.393  0.00  0.00    -0.391 OA
ATOM     24  H   LIG A   1      -4.896   6.262 128.934  0.00  0.00    +0.210 HD
ENDBRANCH   1  23
BRANCH  20  25
ATOM     25  C   LIG A   1      -6.796  -3.064 129.458  0.00  0.00    -0.010 C 
ATOM     26  C   LIG A   1      -6.247  -4.384 130.021  0.00  0.00    +0.008 C 
BRANCH  25  27
ATOM     27  C   LIG A   1      -8.310  -3.277 129.143  0.00  0.00    +0.008 C 
BRANCH  27  28
ATOM     28  C   LIG A   1      -8.684  -3.398 127.655  0.00  0.00    +0.031 C 
BRANCH  28  29
ATOM     29  C   LIG A   1      -7.644  -2.753 126.775  0.00  0.00    +0.014 C 
ATOM     30  C   LIG A   1      -7.431  -3.005 125.473  0.00  0.00    +0.102 C 
ATOM     31  C   LIG A   1      -6.407  -2.267 124.656  0.00  0.00    +0.086 C 
BRANCH  30  32
ATOM     32  O   LIG A   1      -8.256  -3.917 124.778  0.00  0.00    -0.433 OA
BRANCH  32  33
ATOM     33  C   LIG A   1      -9.126  -3.356 123.889  0.00  0.00    +0.451 C 
ATOM     34  O   LIG A   1      -9.783  -2.340 123.995  0.00  0.00    -0.254 OA
ENDBRANCH  32  33
ENDBRANCH  30  32
ENDBRANCH  28  29
ENDBRANCH  27  28
ENDBRANCH  25  27
ENDBRANCH  20  25
TORSDOF 7
ENDMDL
MODEL 5
REMARK VINA RESULT:      -8.2      4.414      7.405
REMARK  Name = NuBBE_1041
REMARK  14 active torsions:
REMARK  status: ('A' for Active; 'I' for Inactive)
REMARK    1  A    between atoms: O_1  and  C_2
REMARK    2  A    between atoms: C_5  and  C_37
REMARK    3  A    between atoms: C_8  and  C_9
REMARK    4  A    between atoms: C_8  and  C_10
REMARK    5  A    between atoms: C_17  and  C_35
REMARK    6  A    between atoms: C_18  and  C_19
REMARK    7  A    between atoms: C_22  and  C_24
REMARK    8  A    between atoms: C_24  and  C_26
REMARK    9  A    between atoms: C_24  and  C_34
REMARK   10  A    between atoms: C_26  and  C_27
REMARK   11  A    between atoms: C_27  and  C_28
REMARK   12  A    between atoms: C_29  and  O_30
REMARK   13  A    between atoms: C_29  and  C_33
REMARK   14  A    between atoms: O_30  and  C_31
REMARK                            x       y       z     vdW  Elec       q    Type
REMARK                         _______ _______ _______ _____ _____    ______ ____
ROOT
ATOM      1  C   LIG A   1      -7.992  -2.994 123.866  0.00  0.00    +0.120 C 
ATOM      2  C   LIG A   1      -8.500  -3.444 125.247  0.00  0.00    +0.032 C 
ATOM      3  C   LIG A   1      -7.998  -2.623 126.443  0.00  0.00    +0.010 C 
ATOM      4  C   LIG A   1      -7.806  -1.134 126.115  0.00  0.00    -0.022 C 
ATOM      5  C   LIG A   1      -6.780  -0.984 124.933  0.00  0.00    +0.007 C 
ATOM      6  C   LIG A   1      -6.694  -2.164 123.904  0.00  0.00    -0.005 C 
ATOM      7  C   LIG A   1      -5.527  -3.108 124.323  0.00  0.00    +0.014 C 
ATOM      8  C   LIG A   1      -6.331  -1.668 122.485  0.00  0.00    +0.014 C 
ATOM      9  C   LIG A   1      -6.874   0.451 124.399  0.00  0.00    +0.031 C 
ATOM     10  C   LIG A   1      -6.747   1.435 125.539  0.00  0.00    -0.026 C 
ATOM     11  C   LIG A   1      -6.808   1.122 126.858  0.00  0.00    -0.063 C 
ATOM     12  C   LIG A   1      -7.126  -0.329 127.288  0.00  0.00    +0.021 C 
ATOM     13  C   LIG A   1      -7.888  -0.446 128.610  0.00  0.00    +0.009 C 
ATOM     14  C   LIG A   1      -7.195   0.367 129.686  0.00  0.00    +0.008 C 
ATOM     15  C   LIG A   1      -7.155   1.887 129.352  0.00  0.00    -0.020 C 
ATOM     16  C   LIG A   1      -6.465   2.148 127.958  0.00  0.00    -0.005 C 
ATOM     17  C   LIG A   1      -6.743   3.600 127.465  0.00  0.00    +0.016 C 
ATOM     18  C   LIG A   1      -4.974   2.017 128.309  0.00  0.00    +0.012 C 
ATOM     19  C   LIG A   1      -4.825   2.686 129.670  0.00  0.00    +0.005 C 
ATOM     20  C   LIG A   1      -6.172   2.525 130.427  0.00  0.00    -0.001 C 
ATOM     21  C   LIG A   1      -8.612   2.381 129.332  0.00  0.00    +0.012 C 
ATOM     22  C   LIG A   1      -9.224  -0.535 125.850  0.00  0.00    +0.012 C 
ENDROOT
BRANCH   1  23
ATOM     23  O   LIG A   1      -9.006  -2.246 123.191  0.00  0.00    -0.391 OA
ATOM     24  H   LIG A   1      -8.747  -1.309 123.214  0.00  0.00    +0.210 HD
ENDBRANCH   1  23
BRANCH  20  25
ATOM     25  C   LIG A   1      -6.575   3.820 131.198  0.00  0.00    -0.010 C 
ATOM     26  C   LIG A   1      -6.074   3.857 132.650  0.00  0.00    +0.008 C 
BRANCH  25  27
ATOM     27  C   LIG A   1      -6.106   5.136 130.502  0.00  0.00    +0.008 C 
BRANCH  27  28
ATOM     28  C   LIG A   1      -6.786   6.434 130.972  0.00  0.00    +0.031 C 
BRANCH  28  29
ATOM     29  C   LIG A   1      -8.243   6.206 131.283  0.00  0.00    +0.014 C 
ATOM     30  C   LIG A   1      -9.288   6.838 130.722  0.00  0.00    +0.102 C 
ATOM     31  C   LIG A   1     -10.717   6.501 131.052  0.00  0.00    +0.086 C 
BRANCH  30  32
ATOM     32  O   LIG A   1      -9.083   7.787 129.697  0.00  0.00    -0.433 OA
BRANCH  32  33
ATOM     33  C   LIG A   1     -10.138   7.966 128.849  0.00  0.00    +0.451 C 
ATOM     34  O   LIG A   1     -10.251   7.638 127.685  0.00  0.00    -0.254 OA
ENDBRANCH  32  33
ENDBRANCH  30  32
ENDBRANCH  28  29
ENDBRANCH  27  28
ENDBRANCH  25  27
ENDBRANCH  20  25
TORSDOF 7
ENDMDL
MODEL 6
REMARK VINA RESULT:      -8.2      3.928      8.138
REMARK  Name = NuBBE_1041
REMARK  14 active torsions:
REMARK  status: ('A' for Active; 'I' for Inactive)
REMARK    1  A    between atoms: O_1  and  C_2
REMARK    2  A    between atoms: C_5  and  C_37
REMARK    3  A    between atoms: C_8  and  C_9
REMARK    4  A    between atoms: C_8  and  C_10
REMARK    5  A    between atoms: C_17  and  C_35
REMARK    6  A    between atoms: C_18  and  C_19
REMARK    7  A    between atoms: C_22  and  C_24
REMARK    8  A    between atoms: C_24  and  C_26
REMARK    9  A    between atoms: C_24  and  C_34
REMARK   10  A    between atoms: C_26  and  C_27
REMARK   11  A    between atoms: C_27  and  C_28
REMARK   12  A    between atoms: C_29  and  O_30
REMARK   13  A    between atoms: C_29  and  C_33
REMARK   14  A    between atoms: O_30  and  C_31
REMARK                            x       y       z     vdW  Elec       q    Type
REMARK                         _______ _______ _______ _____ _____    ______ ____
ROOT
ATOM      1  C   LIG A   1      -7.874  -2.922 123.448  0.00  0.00    +0.120 C 
ATOM      2  C   LIG A   1      -8.871  -3.612 124.395  0.00  0.00    +0.032 C 
ATOM      3  C   LIG A   1      -8.468  -3.652 125.876  0.00  0.00    +0.010 C 
ATOM      4  C   LIG A   1      -7.682  -2.408 126.320  0.00  0.00    -0.022 C 
ATOM      5  C   LIG A   1      -6.382  -2.266 125.446  0.00  0.00    +0.007 C 
ATOM      6  C   LIG A   1      -6.432  -2.842 123.988  0.00  0.00    -0.005 C 
ATOM      7  C   LIG A   1      -5.838  -4.282 123.999  0.00  0.00    +0.014 C 
ATOM      8  C   LIG A   1      -5.539  -2.036 123.018  0.00  0.00    +0.014 C 
ATOM      9  C   LIG A   1      -5.813  -0.859 125.660  0.00  0.00    +0.031 C 
ATOM     10  C   LIG A   1      -5.672  -0.579 127.139  0.00  0.00    -0.026 C 
ATOM     11  C   LIG A   1      -6.204  -1.331 128.136  0.00  0.00    -0.063 C 
ATOM     12  C   LIG A   1      -7.118  -2.530 127.788  0.00  0.00    +0.021 C 
ATOM     13  C   LIG A   1      -8.209  -2.815 128.822  0.00  0.00    +0.009 C 
ATOM     14  C   LIG A   1      -7.604  -2.898 130.210  0.00  0.00    +0.008 C 
ATOM     15  C   LIG A   1      -6.941  -1.561 130.652  0.00  0.00    -0.020 C 
ATOM     16  C   LIG A   1      -5.845  -1.097 129.617  0.00  0.00    -0.005 C 
ATOM     17  C   LIG A   1      -5.446   0.390 129.861  0.00  0.00    +0.016 C 
ATOM     18  C   LIG A   1      -4.655  -1.999 129.986  0.00  0.00    +0.012 C 
ATOM     19  C   LIG A   1      -4.667  -2.071 131.508  0.00  0.00    +0.005 C 
ATOM     20  C   LIG A   1      -6.139  -1.910 131.980  0.00  0.00    -0.001 C 
ATOM     21  C   LIG A   1      -8.065  -0.513 130.749  0.00  0.00    +0.012 C 
ATOM     22  C   LIG A   1      -8.664  -1.196 126.257  0.00  0.00    +0.012 C 
ENDROOT
BRANCH   1  23
ATOM     23  O   LIG A   1      -8.329  -1.605 123.133  0.00  0.00    -0.391 OA
ATOM     24  H   LIG A   1      -8.410  -1.543 122.165  0.00  0.00    +0.210 HD
ENDBRANCH   1  23
BRANCH  20  25
ATOM     25  C   LIG A   1      -6.259  -0.999 133.241  0.00  0.00    -0.010 C 
ATOM     26  C   LIG A   1      -6.446  -1.780 134.551  0.00  0.00    +0.008 C 
BRANCH  25  27
ATOM     27  C   LIG A   1      -5.049  -0.032 133.434  0.00  0.00    +0.008 C 
BRANCH  27  28
ATOM     28  C   LIG A   1      -5.373   1.472 133.420  0.00  0.00    +0.031 C 
BRANCH  28  29
ATOM     29  C   LIG A   1      -6.851   1.715 133.581  0.00  0.00    +0.014 C 
ATOM     30  C   LIG A   1      -7.618   2.514 132.819  0.00  0.00    +0.102 C 
ATOM     31  C   LIG A   1      -9.103   2.650 133.017  0.00  0.00    +0.086 C 
BRANCH  30  32
ATOM     32  O   LIG A   1      -7.064   3.188 131.709  0.00  0.00    -0.433 OA
BRANCH  32  33
ATOM     33  C   LIG A   1      -7.939   3.460 130.696  0.00  0.00    +0.451 C 
ATOM     34  O   LIG A   1      -8.096   2.880 129.641  0.00  0.00    -0.254 OA
ENDBRANCH  32  33
ENDBRANCH  30  32
ENDBRANCH  28  29
ENDBRANCH  27  28
ENDBRANCH  25  27
ENDBRANCH  20  25
TORSDOF 7
ENDMDL
MODEL 7
REMARK VINA RESULT:      -8.1      4.817      7.716
REMARK  Name = NuBBE_1041
REMARK  14 active torsions:
REMARK  status: ('A' for Active; 'I' for Inactive)
REMARK    1  A    between atoms: O_1  and  C_2
REMARK    2  A    between atoms: C_5  and  C_37
REMARK    3  A    between atoms: C_8  and  C_9
REMARK    4  A    between atoms: C_8  and  C_10
REMARK    5  A    between atoms: C_17  and  C_35
REMARK    6  A    between atoms: C_18  and  C_19
REMARK    7  A    between atoms: C_22  and  C_24
REMARK    8  A    between atoms: C_24  and  C_26
REMARK    9  A    between atoms: C_24  and  C_34
REMARK   10  A    between atoms: C_26  and  C_27
REMARK   11  A    between atoms: C_27  and  C_28
REMARK   12  A    between atoms: C_29  and  O_30
REMARK   13  A    between atoms: C_29  and  C_33
REMARK   14  A    between atoms: O_30  and  C_31
REMARK                            x       y       z     vdW  Elec       q    Type
REMARK                         _______ _______ _______ _____ _____    ______ ____
ROOT
ATOM      1  C   LIG A   1      -8.013  -2.423 125.176  0.00  0.00    +0.120 C 
ATOM      2  C   LIG A   1      -7.690  -2.625 126.666  0.00  0.00    +0.032 C 
ATOM      3  C   LIG A   1      -6.652  -1.662 127.261  0.00  0.00    +0.010 C 
ATOM      4  C   LIG A   1      -6.713  -0.255 126.645  0.00  0.00    -0.022 C 
ATOM      5  C   LIG A   1      -6.483  -0.350 125.093  0.00  0.00    +0.007 C 
ATOM      6  C   LIG A   1      -6.922  -1.677 124.382  0.00  0.00    -0.005 C 
ATOM      7  C   LIG A   1      -5.682  -2.614 124.263  0.00  0.00    +0.014 C 
ATOM      8  C   LIG A   1      -7.389  -1.428 122.930  0.00  0.00    +0.014 C 
ATOM      9  C   LIG A   1      -6.893   0.989 124.466  0.00  0.00    +0.031 C 
ATOM     10  C   LIG A   1      -6.208   2.127 125.187  0.00  0.00    -0.026 C 
ATOM     11  C   LIG A   1      -5.545   2.025 126.367  0.00  0.00    -0.063 C 
ATOM     12  C   LIG A   1      -5.538   0.678 127.128  0.00  0.00    +0.021 C 
ATOM     13  C   LIG A   1      -5.472   0.812 128.652  0.00  0.00    +0.009 C 
ATOM     14  C   LIG A   1      -4.338   1.737 129.046  0.00  0.00    +0.008 C 
ATOM     15  C   LIG A   1      -4.529   3.183 128.501  0.00  0.00    -0.020 C 
ATOM     16  C   LIG A   1      -4.700   3.185 126.933  0.00  0.00    -0.005 C 
ATOM     17  C   LIG A   1      -5.245   4.558 126.436  0.00  0.00    +0.016 C 
ATOM     18  C   LIG A   1      -3.249   3.020 126.453  0.00  0.00    +0.012 C 
ATOM     19  C   LIG A   1      -2.417   3.880 127.397  0.00  0.00    +0.005 C 
ATOM     20  C   LIG A   1      -3.146   3.919 128.769  0.00  0.00    -0.001 C 
ATOM     21  C   LIG A   1      -5.788   3.755 129.179  0.00  0.00    +0.012 C 
ATOM     22  C   LIG A   1      -8.072   0.381 127.081  0.00  0.00    +0.012 C 
ENDROOT
BRANCH   1  23
ATOM     23  O   LIG A   1      -9.253  -1.729 125.032  0.00  0.00    -0.391 OA
ATOM     24  H   LIG A   1      -9.379  -1.539 124.087  0.00  0.00    +0.210 HD
ENDBRANCH   1  23
BRANCH  20  25
ATOM     25  C   LIG A   1      -3.115   5.339 129.415  0.00  0.00    -0.010 C 
ATOM     26  C   LIG A   1      -2.197   6.331 128.684  0.00  0.00    +0.008 C 
BRANCH  25  27
ATOM     27  C   LIG A   1      -4.523   6.001 129.541  0.00  0.00    +0.008 C 
BRANCH  27  28
ATOM     28  C   LIG A   1      -4.692   7.029 130.673  0.00  0.00    +0.031 C 
BRANCH  28  29
ATOM     29  C   LIG A   1      -5.686   6.554 131.700  0.00  0.00    +0.014 C 
ATOM     30  C   LIG A   1      -7.020   6.486 131.550  0.00  0.00    +0.102 C 
ATOM     31  C   LIG A   1      -7.934   5.938 132.613  0.00  0.00    +0.086 C 
BRANCH  30  32
ATOM     32  O   LIG A   1      -7.619   6.831 130.319  0.00  0.00    -0.433 OA
BRANCH  32  33
ATOM     33  C   LIG A   1      -8.924   7.226 130.396  0.00  0.00    +0.451 C 
ATOM     34  O   LIG A   1      -9.629   7.716 129.538  0.00  0.00    -0.254 OA
ENDBRANCH  32  33
ENDBRANCH  30  32
ENDBRANCH  28  29
ENDBRANCH  27  28
ENDBRANCH  25  27
ENDBRANCH  20  25
TORSDOF 7
ENDMDL
MODEL 8
REMARK VINA RESULT:      -8.0      5.233      6.839
REMARK  Name = NuBBE_1041
REMARK  14 active torsions:
REMARK  status: ('A' for Active; 'I' for Inactive)
REMARK    1  A    between atoms: O_1  and  C_2
REMARK    2  A    between atoms: C_5  and  C_37
REMARK    3  A    between atoms: C_8  and  C_9
REMARK    4  A    between atoms: C_8  and  C_10
REMARK    5  A    between atoms: C_17  and  C_35
REMARK    6  A    between atoms: C_18  and  C_19
REMARK    7  A    between atoms: C_22  and  C_24
REMARK    8  A    between atoms: C_24  and  C_26
REMARK    9  A    between atoms: C_24  and  C_34
REMARK   10  A    between atoms: C_26  and  C_27
REMARK   11  A    between atoms: C_27  and  C_28
REMARK   12  A    between atoms: C_29  and  O_30
REMARK   13  A    between atoms: C_29  and  C_33
REMARK   14  A    between atoms: O_30  and  C_31
REMARK                            x       y       z     vdW  Elec       q    Type
REMARK                         _______ _______ _______ _____ _____    ______ ____
ROOT
ATOM      1  C   LIG A   1      -3.881  -3.234 131.095  0.00  0.00    +0.120 C 
ATOM      2  C   LIG A   1      -3.167  -2.179 130.233  0.00  0.00    +0.032 C 
ATOM      3  C   LIG A   1      -3.957  -0.889 129.966  0.00  0.00    +0.010 C 
ATOM      4  C   LIG A   1      -4.854  -0.477 131.144  0.00  0.00    -0.022 C 
ATOM      5  C   LIG A   1      -5.869  -1.635 131.462  0.00  0.00    +0.007 C 
ATOM      6  C   LIG A   1      -5.416  -3.098 131.128  0.00  0.00    -0.005 C 
ATOM      7  C   LIG A   1      -5.967  -3.484 129.722  0.00  0.00    +0.014 C 
ATOM      8  C   LIG A   1      -6.026  -4.129 132.106  0.00  0.00    +0.014 C 
ATOM      9  C   LIG A   1      -6.498  -1.355 132.832  0.00  0.00    +0.031 C 
ATOM     10  C   LIG A   1      -7.040   0.055 132.874  0.00  0.00    -0.026 C 
ATOM     11  C   LIG A   1      -6.786   1.022 131.956  0.00  0.00    -0.063 C 
ATOM     12  C   LIG A   1      -5.792   0.744 130.803  0.00  0.00    +0.021 C 
ATOM     13  C   LIG A   1      -5.019   1.973 130.323  0.00  0.00    +0.009 C 
ATOM     14  C   LIG A   1      -5.976   3.113 130.035  0.00  0.00    +0.008 C 
ATOM     15  C   LIG A   1      -6.756   3.571 131.302  0.00  0.00    -0.020 C 
ATOM     16  C   LIG A   1      -7.538   2.369 131.958  0.00  0.00    -0.005 C 
ATOM     17  C   LIG A   1      -8.013   2.734 133.396  0.00  0.00    +0.016 C 
ATOM     18  C   LIG A   1      -8.768   2.250 131.042  0.00  0.00    +0.012 C 
ATOM     19  C   LIG A   1      -9.169   3.685 130.725  0.00  0.00    +0.005 C 
ATOM     20  C   LIG A   1      -7.883   4.557 130.766  0.00  0.00    -0.001 C 
ATOM     21  C   LIG A   1      -5.718   4.138 132.288  0.00  0.00    +0.012 C 
ATOM     22  C   LIG A   1      -3.911  -0.073 132.322  0.00  0.00    +0.012 C 
ENDROOT
BRANCH   1  23
ATOM     23  O   LIG A   1      -3.379  -3.195 132.432  0.00  0.00    -0.391 OA
ATOM     24  H   LIG A   1      -3.730  -2.394 132.858  0.00  0.00    +0.210 HD
ENDBRANCH   1  23
BRANCH  20  25
ATOM     25  C   LIG A   1      -8.124   5.935 131.457  0.00  0.00    -0.010 C 
ATOM     26  C   LIG A   1      -7.082   7.002 131.090  0.00  0.00    +0.008 C 
BRANCH  25  27
ATOM     27  C   LIG A   1      -9.537   6.537 131.177  0.00  0.00    +0.008 C 
BRANCH  27  28
ATOM     28  C   LIG A   1      -9.703   7.294 129.848  0.00  0.00    +0.031 C 
BRANCH  28  29
ATOM     29  C   LIG A   1     -11.109   7.811 129.684  0.00  0.00    +0.014 C 
ATOM     30  C   LIG A   1     -11.932   7.572 128.649  0.00  0.00    +0.102 C 
ATOM     31  C   LIG A   1     -13.346   8.081 128.597  0.00  0.00    +0.086 C 
BRANCH  30  32
ATOM     32  O   LIG A   1     -11.528   6.722 127.596  0.00  0.00    -0.433 OA
BRANCH  32  33
ATOM     33  C   LIG A   1     -11.603   7.266 126.346  0.00  0.00    +0.451 C 
ATOM     34  O   LIG A   1     -10.809   7.983 125.773  0.00  0.00    -0.254 OA
ENDBRANCH  32  33
ENDBRANCH  30  32
ENDBRANCH  28  29
ENDBRANCH  27  28
ENDBRANCH  25  27
ENDBRANCH  20  25
TORSDOF 7
ENDMDL
MODEL 9
REMARK VINA RESULT:      -7.8      2.934     10.226
REMARK  Name = NuBBE_1041
REMARK  14 active torsions:
REMARK  status: ('A' for Active; 'I' for Inactive)
REMARK    1  A    between atoms: O_1  and  C_2
REMARK    2  A    between atoms: C_5  and  C_37
REMARK    3  A    between atoms: C_8  and  C_9
REMARK    4  A    between atoms: C_8  and  C_10
REMARK    5  A    between atoms: C_17  and  C_35
REMARK    6  A    between atoms: C_18  and  C_19
REMARK    7  A    between atoms: C_22  and  C_24
REMARK    8  A    between atoms: C_24  and  C_26
REMARK    9  A    between atoms: C_24  and  C_34
REMARK   10  A    between atoms: C_26  and  C_27
REMARK   11  A    between atoms: C_27  and  C_28
REMARK   12  A    between atoms: C_29  and  O_30
REMARK   13  A    between atoms: C_29  and  C_33
REMARK   14  A    between atoms: O_30  and  C_31
REMARK                            x       y       z     vdW  Elec       q    Type
REMARK                         _______ _______ _______ _____ _____    ______ ____
ROOT
ATOM      1  C   LIG A   1      -8.177   2.844 124.081  0.00  0.00    +0.120 C 
ATOM      2  C   LIG A   1      -7.787   1.467 123.516  0.00  0.00    +0.032 C 
ATOM      3  C   LIG A   1      -7.120   0.503 124.507  0.00  0.00    +0.010 C 
ATOM      4  C   LIG A   1      -7.650   0.651 125.942  0.00  0.00    -0.022 C 
ATOM      5  C   LIG A   1      -7.421   2.125 126.439  0.00  0.00    +0.007 C 
ATOM      6  C   LIG A   1      -7.405   3.254 125.351  0.00  0.00    -0.005 C 
ATOM      7  C   LIG A   1      -5.926   3.539 124.948  0.00  0.00    +0.014 C 
ATOM      8  C   LIG A   1      -7.946   4.594 125.900  0.00  0.00    +0.014 C 
ATOM      9  C   LIG A   1      -8.259   2.338 127.705  0.00  0.00    +0.031 C 
ATOM     10  C   LIG A   1      -7.981   1.235 128.700  0.00  0.00    -0.026 C 
ATOM     11  C   LIG A   1      -7.306   0.088 128.433  0.00  0.00    -0.063 C 
ATOM     12  C   LIG A   1      -6.844  -0.212 126.987  0.00  0.00    +0.021 C 
ATOM     13  C   LIG A   1      -6.808  -1.699 126.629  0.00  0.00    +0.009 C 
ATOM     14  C   LIG A   1      -6.039  -2.471 127.683  0.00  0.00    +0.008 C 
ATOM     15  C   LIG A   1      -6.705  -2.390 129.087  0.00  0.00    -0.020 C 
ATOM     16  C   LIG A   1      -6.887  -0.893 129.548  0.00  0.00    -0.005 C 
ATOM     17  C   LIG A   1      -7.861  -0.800 130.760  0.00  0.00    +0.016 C 
ATOM     18  C   LIG A   1      -5.469  -0.529 130.018  0.00  0.00    +0.012 C 
ATOM     19  C   LIG A   1      -4.957  -1.771 130.738  0.00  0.00    +0.005 C 
ATOM     20  C   LIG A   1      -5.640  -3.008 130.093  0.00  0.00    -0.001 C 
ATOM     21  C   LIG A   1      -8.074  -3.087 128.976  0.00  0.00    +0.012 C 
ATOM     22  C   LIG A   1      -9.137   0.172 125.935  0.00  0.00    +0.012 C 
ENDROOT
BRANCH   1  23
ATOM     23  O   LIG A   1      -9.579   2.883 124.353  0.00  0.00    -0.391 OA
ATOM     24  H   LIG A   1     -10.035   3.122 123.528  0.00  0.00    +0.210 HD
ENDBRANCH   1  23
BRANCH  20  25
ATOM     25  C   LIG A   1      -6.074  -4.065 131.155  0.00  0.00    -0.010 C 
ATOM     26  C   LIG A   1      -5.469  -5.458 130.924  0.00  0.00    +0.008 C 
BRANCH  25  27
ATOM     27  C   LIG A   1      -5.752  -3.646 132.624  0.00  0.00    +0.008 C 
BRANCH  27  28
ATOM     28  C   LIG A   1      -6.919  -3.723 133.624  0.00  0.00    +0.031 C 
BRANCH  28  29
ATOM     29  C   LIG A   1      -6.795  -4.929 134.518  0.00  0.00    +0.014 C 
ATOM     30  C   LIG A   1      -7.658  -5.306 135.477  0.00  0.00    +0.102 C 
ATOM     31  C   LIG A   1      -7.484  -6.564 136.283  0.00  0.00    +0.086 C 
BRANCH  30  32
ATOM     32  O   LIG A   1      -8.846  -4.575 135.695  0.00  0.00    -0.433 OA
BRANCH  32  33
ATOM     33  C   LIG A   1      -8.840  -3.765 136.795  0.00  0.00    +0.451 C 
ATOM     34  O   LIG A   1      -8.508  -2.601 136.888  0.00  0.00    -0.254 OA
ENDBRANCH  32  33
ENDBRANCH  30  32
ENDBRANCH  28  29
ENDBRANCH  27  28
ENDBRANCH  25  27
ENDBRANCH  20  25
TORSDOF 7
ENDMDL
