MODEL 1
REMARK VINA RESULT:      -7.7      0.000      0.000
REMARK  Name = NuBBE_639
REMARK  27 active torsions:
REMARK  status: ('A' for Active; 'I' for Inactive)
REMARK    1  A    between atoms: C_1  and  C_2
REMARK    2  A    between atoms: C_2  and  O_3
REMARK    3  A    between atoms: O_3  and  C_4
REMARK    4  A    between atoms: C_7  and  O_9
REMARK    5  A    between atoms: O_9  and  C_10
REMARK    6  A    between atoms: C_10  and  C_11
REMARK    7  A    between atoms: C_15  and  O_17
REMARK    8  A    between atoms: O_17  and  C_18
REMARK    9  A    between atoms: C_18  and  C_19
REMARK   10  A    between atoms: C_25  and  O_27
REMARK   11  A    between atoms: O_27  and  C_28
REMARK   12  A    between atoms: C_28  and  C_29
REMARK   13  A    between atoms: C_30  and  C_31
REMARK   14  A    between atoms: C_32  and  C_33
REMARK   15  A    between atoms: C_33  and  C_34
REMARK   16  A    between atoms: C_34  and  C_35
REMARK   17  A    between atoms: C_35  and  C_36
REMARK   18  A    between atoms: C_36  and  C_37
REMARK   19  A    between atoms: C_39  and  O_41
REMARK   20  A    between atoms: O_41  and  C_42
REMARK   21  A    between atoms: C_42  and  C_43
REMARK   22  A    between atoms: C_45  and  C_47
REMARK   23  A    between atoms: C_48  and  C_49
REMARK   24  A    between atoms: C_48  and  C_50
REMARK   25  A    between atoms: C_50  and  C_51
REMARK   26  A    between atoms: C_51  and  C_52
REMARK   27  A    between atoms: C_52  and  C_53
REMARK                            x       y       z     vdW  Elec       q    Type
REMARK                         _______ _______ _______ _____ _____    ______ ____
ROOT
ATOM      1  C   LIG A   1      -8.243   1.345 126.951  0.00  0.00    +0.343 C 
ATOM      2  O   LIG A   1      -6.914   1.073 126.528  0.00  0.00    -0.297 OA
ATOM      3  C   LIG A   1      -6.021   1.834 127.352  0.00  0.00    +0.328 C 
ATOM      4  C   LIG A   1      -8.147   1.898 128.364  0.00  0.00    +0.014 C 
ATOM      5  C   LIG A   1      -9.089   2.749 128.838  0.00  0.00    +0.023 C 
ATOM      6  C   LIG A   1      -8.733   4.070 129.467  0.00  0.00    +0.200 C 
ATOM      7  C   LIG A   1      -7.203   4.270 129.405  0.00  0.00    +0.054 C 
ATOM      8  C   LIG A   1      -6.473   2.976 129.886  0.00  0.00    +0.019 C 
ATOM      9  C   LIG A   1      -6.660   1.772 128.860  0.00  0.00    +0.104 C 
ATOM     10  C   LIG A   1      -6.644   0.464 129.787  0.00  0.00    +0.234 C 
ATOM     11  C   LIG A   1      -5.601   0.481 130.972  0.00  0.00    +0.221 C 
ATOM     12  C   LIG A   1      -5.054   1.745 131.648  0.00  0.00    +0.037 C 
ATOM     13  C   LIG A   1      -3.681   1.454 132.312  0.00  0.00    +0.012 C 
ATOM     14  C   LIG A   1      -5.170   3.058 130.810  0.00  0.00    -0.022 C 
ATOM     15  C   LIG A   1      -5.547   3.984 131.958  0.00  0.00    +0.012 C 
ENDROOT
BRANCH  10  16
ATOM     16  O   LIG A   1      -6.357  -0.827 129.134  0.00  0.00    -0.453 OA
BRANCH  16  17
ATOM     17  C   LIG A   1      -7.275  -1.813 129.057  0.00  0.00    +0.332 C 
ATOM     18  O   LIG A   1      -7.862  -2.313 130.005  0.00  0.00    -0.246 OA
BRANCH  17  19
ATOM     19  C   LIG A   1      -7.531  -2.328 127.686  0.00  0.00    +0.091 C 
ATOM     20  C   LIG A   1      -8.470  -3.173 127.239  0.00  0.00    +0.007 C 
BRANCH  20  21
ATOM     21  C   LIG A   1      -8.743  -3.497 125.864  0.00  0.00    -0.004 C 
ATOM     22  C   LIG A   1      -9.045  -2.579 124.942  0.00  0.00    -0.027 C 
BRANCH  22  23
ATOM     23  C   LIG A   1      -9.249  -2.951 123.513  0.00  0.00    +0.027 C 
BRANCH  23  24
ATOM     24  C   LIG A   1      -8.392  -2.117 122.559  0.00  0.00    +0.004 C 
BRANCH  24  25
ATOM     25  C   LIG A   1      -7.154  -1.532 123.249  0.00  0.00    +0.000 C 
BRANCH  25  26
ATOM     26  C   LIG A   1      -5.873  -2.325 122.987  0.00  0.00    -0.003 C 
ATOM     27  C   LIG A   1      -5.374  -3.141 124.171  0.00  0.00    +0.004 C 
ENDBRANCH  25  26
ENDBRANCH  24  25
ENDBRANCH  23  24
ENDBRANCH  22  23
ENDBRANCH  20  21
ENDBRANCH  17  19
ENDBRANCH  16  17
ENDBRANCH  10  16
BRANCH  11  28
ATOM     28  O   LIG A   1      -6.166  -0.337 132.069  0.00  0.00    -0.458 OA
BRANCH  28  29
ATOM     29  C   LIG A   1      -7.102   0.363 132.781  0.00  0.00    +0.304 C 
ATOM     30  C   LIG A   1      -8.447   0.433 132.105  0.00  0.00    +0.136 C 
ATOM     31  O   LIG A   1      -6.896   0.859 133.816  0.00  0.00    -0.251 OA
ENDBRANCH  28  29
ENDBRANCH  11  28
BRANCH   6  32
ATOM     32  O   LIG A   1      -9.182   4.249 130.823  0.00  0.00    -0.457 OA
BRANCH  32  33
ATOM     33  C   LIG A   1     -10.335   4.961 130.942  0.00  0.00    +0.304 C 
ATOM     34  C   LIG A   1     -10.245   6.017 132.005  0.00  0.00    +0.136 C 
ATOM     35  O   LIG A   1     -11.326   4.780 130.250  0.00  0.00    -0.251 OA
ENDBRANCH  32  33
ENDBRANCH   6  32
BRANCH  14  36
ATOM     36  C   LIG A   1      -3.835   3.696 130.199  0.00  0.00    +0.012 C 
BRANCH  36  37
ATOM     37  C   LIG A   1      -3.258   5.065 130.761  0.00  0.00    +0.035 C 
BRANCH  37  38
ATOM     38  C   LIG A   1      -3.125   6.287 129.837  0.00  0.00    -0.055 C 
ATOM     39  C   LIG A   1      -2.237   6.386 128.839  0.00  0.00    +0.012 C 
BRANCH  38  40
ATOM     40  C   LIG A   1      -4.051   7.391 129.840  0.00  0.00    -0.005 C 
ATOM     41  C   LIG A   1      -5.146   7.404 130.612  0.00  0.00    +0.008 C 
ENDBRANCH  38  40
ENDBRANCH  37  38
ENDBRANCH  36  37
ENDBRANCH  14  36
BRANCH   3  42
ATOM     42  O   LIG A   1      -4.641   1.528 127.015  0.00  0.00    -0.434 OA
BRANCH  42  43
ATOM     43  C   LIG A   1      -3.780   2.587 126.673  0.00  0.00    +0.306 C 
ATOM     44  C   LIG A   1      -4.599   3.852 126.496  0.00  0.00    +0.136 C 
ATOM     45  O   LIG A   1      -2.575   2.563 126.444  0.00  0.00    -0.251 OA
ENDBRANCH  42  43
ENDBRANCH   3  42
BRANCH   1  46
ATOM     46  O   LIG A   1      -8.942   2.252 126.075  0.00  0.00    -0.431 OA
BRANCH  46  48
ATOM     47  C   LIG A   1      -8.529   2.820 123.853  0.00  0.00    +0.136 C 
ATOM     48  C   LIG A   1      -9.159   1.851 124.795  0.00  0.00    +0.306 C 
ATOM     49  O   LIG A   1      -9.657   0.825 124.390  0.00  0.00    -0.251 OA
ENDBRANCH  46  48
ENDBRANCH   1  46
TORSDOF 20
ENDMDL
MODEL 2
REMARK VINA RESULT:      -7.4      2.279      5.671
REMARK  Name = NuBBE_639
REMARK  27 active torsions:
REMARK  status: ('A' for Active; 'I' for Inactive)
REMARK    1  A    between atoms: C_1  and  C_2
REMARK    2  A    between atoms: C_2  and  O_3
REMARK    3  A    between atoms: O_3  and  C_4
REMARK    4  A    between atoms: C_7  and  O_9
REMARK    5  A    between atoms: O_9  and  C_10
REMARK    6  A    between atoms: C_10  and  C_11
REMARK    7  A    between atoms: C_15  and  O_17
REMARK    8  A    between atoms: O_17  and  C_18
REMARK    9  A    between atoms: C_18  and  C_19
REMARK   10  A    between atoms: C_25  and  O_27
REMARK   11  A    between atoms: O_27  and  C_28
REMARK   12  A    between atoms: C_28  and  C_29
REMARK   13  A    between atoms: C_30  and  C_31
REMARK   14  A    between atoms: C_32  and  C_33
REMARK   15  A    between atoms: C_33  and  C_34
REMARK   16  A    between atoms: C_34  and  C_35
REMARK   17  A    between atoms: C_35  and  C_36
REMARK   18  A    between atoms: C_36  and  C_37
REMARK   19  A    between atoms: C_39  and  O_41
REMARK   20  A    between atoms: O_41  and  C_42
REMARK   21  A    between atoms: C_42  and  C_43
REMARK   22  A    between atoms: C_45  and  C_47
REMARK   23  A    between atoms: C_48  and  C_49
REMARK   24  A    between atoms: C_48  and  C_50
REMARK   25  A    between atoms: C_50  and  C_51
REMARK   26  A    between atoms: C_51  and  C_52
REMARK   27  A    between atoms: C_52  and  C_53
REMARK                            x       y       z     vdW  Elec       q    Type
REMARK                         _______ _______ _______ _____ _____    ______ ____
ROOT
ATOM      1  C   LIG A   1      -8.435   2.892 128.890  0.00  0.00    +0.343 C 
ATOM      2  O   LIG A   1      -8.677   4.287 129.007  0.00  0.00    -0.297 OA
ATOM      3  C   LIG A   1      -7.645   4.850 129.827  0.00  0.00    +0.328 C 
ATOM      4  C   LIG A   1      -6.970   2.673 129.233  0.00  0.00    +0.014 C 
ATOM      5  C   LIG A   1      -6.553   1.494 129.756  0.00  0.00    +0.023 C 
ATOM      6  C   LIG A   1      -5.729   1.423 131.014  0.00  0.00    +0.200 C 
ATOM      7  C   LIG A   1      -5.532   2.847 131.579  0.00  0.00    +0.054 C 
ATOM      8  C   LIG A   1      -5.097   3.820 130.438  0.00  0.00    +0.019 C 
ATOM      9  C   LIG A   1      -6.269   4.072 129.390  0.00  0.00    +0.104 C 
ATOM     10  C   LIG A   1      -5.507   4.310 128.000  0.00  0.00    +0.234 C 
ATOM     11  C   LIG A   1      -4.183   5.163 128.088  0.00  0.00    +0.221 C 
ATOM     12  C   LIG A   1      -3.290   5.284 129.330  0.00  0.00    +0.037 C 
ATOM     13  C   LIG A   1      -2.461   6.596 129.277  0.00  0.00    +0.012 C 
ATOM     14  C   LIG A   1      -3.980   4.938 130.688  0.00  0.00    -0.022 C 
ATOM     15  C   LIG A   1      -2.805   4.201 131.316  0.00  0.00    +0.012 C 
ENDROOT
BRANCH  10  16
ATOM     16  O   LIG A   1      -6.252   4.994 126.927  0.00  0.00    -0.453 OA
BRANCH  16  17
ATOM     17  C   LIG A   1      -6.312   4.505 125.670  0.00  0.00    +0.332 C 
ATOM     18  O   LIG A   1      -6.179   5.160 124.646  0.00  0.00    -0.246 OA
BRANCH  17  19
ATOM     19  C   LIG A   1      -6.603   3.051 125.574  0.00  0.00    +0.091 C 
ATOM     20  C   LIG A   1      -5.781   2.014 125.365  0.00  0.00    +0.007 C 
BRANCH  20  21
ATOM     21  C   LIG A   1      -6.127   0.619 125.442  0.00  0.00    -0.004 C 
ATOM     22  C   LIG A   1      -5.301  -0.314 125.925  0.00  0.00    -0.027 C 
BRANCH  22  23
ATOM     23  C   LIG A   1      -5.729  -1.736 126.054  0.00  0.00    +0.027 C 
BRANCH  23  24
ATOM     24  C   LIG A   1      -6.808  -2.121 125.040  0.00  0.00    +0.004 C 
BRANCH  24  25
ATOM     25  C   LIG A   1      -6.403  -3.329 124.188  0.00  0.00    +0.000 C 
BRANCH  25  26
ATOM     26  C   LIG A   1      -5.000  -3.215 123.590  0.00  0.00    -0.003 C 
ATOM     27  C   LIG A   1      -4.190  -4.504 123.613  0.00  0.00    +0.004 C 
ENDBRANCH  25  26
ENDBRANCH  24  25
ENDBRANCH  23  24
ENDBRANCH  22  23
ENDBRANCH  20  21
ENDBRANCH  17  19
ENDBRANCH  16  17
ENDBRANCH  10  16
BRANCH  11  28
ATOM     28  O   LIG A   1      -3.286   4.700 127.005  0.00  0.00    -0.458 OA
BRANCH  28  29
ATOM     29  C   LIG A   1      -2.870   3.413 127.219  0.00  0.00    +0.304 C 
ATOM     30  C   LIG A   1      -1.533   3.099 126.598  0.00  0.00    +0.136 C 
ATOM     31  O   LIG A   1      -3.478   2.624 127.825  0.00  0.00    -0.251 OA
ENDBRANCH  28  29
ENDBRANCH  11  28
BRANCH   6  32
ATOM     32  O   LIG A   1      -4.446   0.783 130.878  0.00  0.00    -0.457 OA
BRANCH  32  33
ATOM     33  C   LIG A   1      -4.369  -0.445 131.455  0.00  0.00    +0.304 C 
ATOM     34  C   LIG A   1      -5.460  -0.673 132.460  0.00  0.00    +0.136 C 
ATOM     35  O   LIG A   1      -3.521  -1.281 131.176  0.00  0.00    -0.251 OA
ENDBRANCH  32  33
ENDBRANCH   6  32
BRANCH  14  36
ATOM     36  C   LIG A   1      -4.301   6.129 131.708  0.00  0.00    +0.012 C 
BRANCH  36  37
ATOM     37  C   LIG A   1      -3.316   6.458 132.909  0.00  0.00    +0.035 C 
BRANCH  37  38
ATOM     38  C   LIG A   1      -2.200   7.500 132.733  0.00  0.00    -0.055 C 
ATOM     39  C   LIG A   1      -2.385   8.825 132.811  0.00  0.00    +0.012 C 
BRANCH  38  40
ATOM     40  C   LIG A   1      -0.803   7.161 132.628  0.00  0.00    -0.005 C 
ATOM     41  C   LIG A   1       0.073   7.432 133.605  0.00  0.00    +0.008 C 
ENDBRANCH  38  40
ENDBRANCH  37  38
ENDBRANCH  36  37
ENDBRANCH  14  36
BRANCH   3  42
ATOM     42  O   LIG A   1      -7.799   6.293 129.911  0.00  0.00    -0.434 OA
BRANCH  42  43
ATOM     43  C   LIG A   1      -8.940   6.812 130.547  0.00  0.00    +0.306 C 
ATOM     44  C   LIG A   1      -9.029   6.238 131.949  0.00  0.00    +0.136 C 
ATOM     45  O   LIG A   1      -9.820   7.536 130.092  0.00  0.00    -0.251 OA
ENDBRANCH  42  43
ENDBRANCH   3  42
BRANCH   1  46
ATOM     46  O   LIG A   1      -9.298   2.094 129.726  0.00  0.00    -0.431 OA
BRANCH  46  48
ATOM     47  C   LIG A   1      -9.665   2.568 131.978  0.00  0.00    +0.136 C 
ATOM     48  C   LIG A   1     -10.134   2.748 130.575  0.00  0.00    +0.306 C 
ATOM     49  O   LIG A   1     -11.058   3.487 130.318  0.00  0.00    -0.251 OA
ENDBRANCH  46  48
ENDBRANCH   1  46
TORSDOF 20
ENDMDL
MODEL 3
REMARK VINA RESULT:      -7.4      1.999      5.685
REMARK  Name = NuBBE_639
REMARK  27 active torsions:
REMARK  status: ('A' for Active; 'I' for Inactive)
REMARK    1  A    between atoms: C_1  and  C_2
REMARK    2  A    between atoms: C_2  and  O_3
REMARK    3  A    between atoms: O_3  and  C_4
REMARK    4  A    between atoms: C_7  and  O_9
REMARK    5  A    between atoms: O_9  and  C_10
REMARK    6  A    between atoms: C_10  and  C_11
REMARK    7  A    between atoms: C_15  and  O_17
REMARK    8  A    between atoms: O_17  and  C_18
REMARK    9  A    between atoms: C_18  and  C_19
REMARK   10  A    between atoms: C_25  and  O_27
REMARK   11  A    between atoms: O_27  and  C_28
REMARK   12  A    between atoms: C_28  and  C_29
REMARK   13  A    between atoms: C_30  and  C_31
REMARK   14  A    between atoms: C_32  and  C_33
REMARK   15  A    between atoms: C_33  and  C_34
REMARK   16  A    between atoms: C_34  and  C_35
REMARK   17  A    between atoms: C_35  and  C_36
REMARK   18  A    between atoms: C_36  and  C_37
REMARK   19  A    between atoms: C_39  and  O_41
REMARK   20  A    between atoms: O_41  and  C_42
REMARK   21  A    between atoms: C_42  and  C_43
REMARK   22  A    between atoms: C_45  and  C_47
REMARK   23  A    between atoms: C_48  and  C_49
REMARK   24  A    between atoms: C_48  and  C_50
REMARK   25  A    between atoms: C_50  and  C_51
REMARK   26  A    between atoms: C_51  and  C_52
REMARK   27  A    between atoms: C_52  and  C_53
REMARK                            x       y       z     vdW  Elec       q    Type
REMARK                         _______ _______ _______ _____ _____    ______ ____
ROOT
ATOM      1  C   LIG A   1      -8.592   2.724 129.214  0.00  0.00    +0.343 C 
ATOM      2  O   LIG A   1      -8.913   4.108 129.211  0.00  0.00    -0.297 OA
ATOM      3  C   LIG A   1      -7.829   4.816 129.827  0.00  0.00    +0.328 C 
ATOM      4  C   LIG A   1      -7.085   2.625 129.387  0.00  0.00    +0.014 C 
ATOM      5  C   LIG A   1      -6.528   1.538 129.976  0.00  0.00    +0.023 C 
ATOM      6  C   LIG A   1      -5.555   1.656 131.119  0.00  0.00    +0.200 C 
ATOM      7  C   LIG A   1      -5.388   3.144 131.498  0.00  0.00    +0.054 C 
ATOM      8  C   LIG A   1      -5.161   4.002 130.213  0.00  0.00    +0.019 C 
ATOM      9  C   LIG A   1      -6.467   4.069 129.304  0.00  0.00    +0.104 C 
ATOM     10  C   LIG A   1      -5.897   4.187 127.810  0.00  0.00    +0.234 C 
ATOM     11  C   LIG A   1      -4.633   5.115 127.635  0.00  0.00    +0.221 C 
ATOM     12  C   LIG A   1      -3.606   5.425 128.732  0.00  0.00    +0.037 C 
ATOM     13  C   LIG A   1      -2.881   6.765 128.434  0.00  0.00    +0.012 C 
ATOM     14  C   LIG A   1      -4.101   5.200 130.197  0.00  0.00    -0.022 C 
ATOM     15  C   LIG A   1      -2.811   4.605 130.744  0.00  0.00    +0.012 C 
ENDROOT
BRANCH  10  16
ATOM     16  O   LIG A   1      -6.812   4.702 126.774  0.00  0.00    -0.453 OA
BRANCH  16  17
ATOM     17  C   LIG A   1      -7.434   3.888 125.896  0.00  0.00    +0.332 C 
ATOM     18  O   LIG A   1      -8.565   4.045 125.460  0.00  0.00    -0.246 OA
BRANCH  17  19
ATOM     19  C   LIG A   1      -6.652   2.693 125.483  0.00  0.00    +0.091 C 
ATOM     20  C   LIG A   1      -6.714   1.425 125.913  0.00  0.00    +0.007 C 
BRANCH  20  21
ATOM     21  C   LIG A   1      -6.026   0.296 125.347  0.00  0.00    -0.004 C 
ATOM     22  C   LIG A   1      -6.429  -0.966 125.514  0.00  0.00    -0.027 C 
BRANCH  22  23
ATOM     23  C   LIG A   1      -5.728  -2.100 124.849  0.00  0.00    +0.027 C 
BRANCH  23  24
ATOM     24  C   LIG A   1      -6.662  -2.937 123.971  0.00  0.00    +0.004 C 
BRANCH  24  25
ATOM     25  C   LIG A   1      -7.312  -2.108 122.858  0.00  0.00    +0.000 C 
BRANCH  25  26
ATOM     26  C   LIG A   1      -8.836  -2.036 122.956  0.00  0.00    -0.003 C 
ATOM     27  C   LIG A   1      -9.499  -3.290 123.508  0.00  0.00    +0.004 C 
ENDBRANCH  25  26
ENDBRANCH  24  25
ENDBRANCH  23  24
ENDBRANCH  22  23
ENDBRANCH  20  21
ENDBRANCH  17  19
ENDBRANCH  16  17
ENDBRANCH  10  16
BRANCH  11  28
ATOM     28  O   LIG A   1      -3.845   4.579 126.502  0.00  0.00    -0.458 OA
BRANCH  28  29
ATOM     29  C   LIG A   1      -3.227   3.404 126.836  0.00  0.00    +0.304 C 
ATOM     30  C   LIG A   1      -1.774   3.352 126.439  0.00  0.00    +0.136 C 
ATOM     31  O   LIG A   1      -3.759   2.520 127.379  0.00  0.00    -0.251 OA
ENDBRANCH  28  29
ENDBRANCH  11  28
BRANCH   6  32
ATOM     32  O   LIG A   1      -4.258   1.075 130.888  0.00  0.00    -0.457 OA
BRANCH  32  33
ATOM     33  C   LIG A   1      -4.125  -0.198 131.346  0.00  0.00    +0.304 C 
ATOM     34  C   LIG A   1      -3.772  -0.245 132.804  0.00  0.00    +0.136 C 
ATOM     35  O   LIG A   1      -4.294  -1.195 130.658  0.00  0.00    -0.251 OA
ENDBRANCH  32  33
ENDBRANCH   6  32
BRANCH  14  36
ATOM     36  C   LIG A   1      -4.376   6.481 131.117  0.00  0.00    +0.012 C 
BRANCH  36  37
ATOM     37  C   LIG A   1      -4.037   6.455 132.668  0.00  0.00    +0.035 C 
BRANCH  37  38
ATOM     38  C   LIG A   1      -5.106   6.033 133.688  0.00  0.00    -0.055 C 
ATOM     39  C   LIG A   1      -4.896   5.941 135.008  0.00  0.00    +0.012 C 
BRANCH  38  40
ATOM     40  C   LIG A   1      -6.496   5.848 133.354  0.00  0.00    -0.005 C 
ATOM     41  C   LIG A   1      -7.375   5.324 134.219  0.00  0.00    +0.008 C 
ENDBRANCH  38  40
ENDBRANCH  37  38
ENDBRANCH  36  37
ENDBRANCH  14  36
BRANCH   3  42
ATOM     42  O   LIG A   1      -8.069   6.249 129.775  0.00  0.00    -0.434 OA
BRANCH  42  43
ATOM     43  C   LIG A   1      -9.174   6.772 130.470  0.00  0.00    +0.306 C 
ATOM     44  C   LIG A   1     -10.017   7.594 129.512  0.00  0.00    +0.136 C 
ATOM     45  O   LIG A   1      -9.441   6.704 131.666  0.00  0.00    -0.251 OA
ENDBRANCH  42  43
ENDBRANCH   3  42
BRANCH   1  46
ATOM     46  O   LIG A   1      -9.292   1.982 130.234  0.00  0.00    -0.431 OA
BRANCH  46  48
ATOM     47  C   LIG A   1      -9.464   2.725 132.436  0.00  0.00    +0.136 C 
ATOM     48  C   LIG A   1     -10.091   2.679 131.085  0.00  0.00    +0.306 C 
ATOM     49  O   LIG A   1     -11.099   3.304 130.845  0.00  0.00    -0.251 OA
ENDBRANCH  46  48
ENDBRANCH   1  46
TORSDOF 20
ENDMDL
MODEL 4
REMARK VINA RESULT:      -7.2      2.131      5.111
REMARK  Name = NuBBE_639
REMARK  27 active torsions:
REMARK  status: ('A' for Active; 'I' for Inactive)
REMARK    1  A    between atoms: C_1  and  C_2
REMARK    2  A    between atoms: C_2  and  O_3
REMARK    3  A    between atoms: O_3  and  C_4
REMARK    4  A    between atoms: C_7  and  O_9
REMARK    5  A    between atoms: O_9  and  C_10
REMARK    6  A    between atoms: C_10  and  C_11
REMARK    7  A    between atoms: C_15  and  O_17
REMARK    8  A    between atoms: O_17  and  C_18
REMARK    9  A    between atoms: C_18  and  C_19
REMARK   10  A    between atoms: C_25  and  O_27
REMARK   11  A    between atoms: O_27  and  C_28
REMARK   12  A    between atoms: C_28  and  C_29
REMARK   13  A    between atoms: C_30  and  C_31
REMARK   14  A    between atoms: C_32  and  C_33
REMARK   15  A    between atoms: C_33  and  C_34
REMARK   16  A    between atoms: C_34  and  C_35
REMARK   17  A    between atoms: C_35  and  C_36
REMARK   18  A    between atoms: C_36  and  C_37
REMARK   19  A    between atoms: C_39  and  O_41
REMARK   20  A    between atoms: O_41  and  C_42
REMARK   21  A    between atoms: C_42  and  C_43
REMARK   22  A    between atoms: C_45  and  C_47
REMARK   23  A    between atoms: C_48  and  C_49
REMARK   24  A    between atoms: C_48  and  C_50
REMARK   25  A    between atoms: C_50  and  C_51
REMARK   26  A    between atoms: C_51  and  C_52
REMARK   27  A    between atoms: C_52  and  C_53
REMARK                            x       y       z     vdW  Elec       q    Type
REMARK                         _______ _______ _______ _____ _____    ______ ____
ROOT
ATOM      1  C   LIG A   1      -4.212   2.720 128.701  0.00  0.00    +0.343 C 
ATOM      2  O   LIG A   1      -3.891   3.662 129.714  0.00  0.00    -0.297 OA
ATOM      3  C   LIG A   1      -5.106   4.295 130.134  0.00  0.00    +0.328 C 
ATOM      4  C   LIG A   1      -5.695   2.417 128.841  0.00  0.00    +0.014 C 
ATOM      5  C   LIG A   1      -6.428   2.037 127.765  0.00  0.00    +0.023 C 
ATOM      6  C   LIG A   1      -7.717   2.719 127.392  0.00  0.00    +0.200 C 
ATOM      7  C   LIG A   1      -7.978   3.888 128.365  0.00  0.00    +0.054 C 
ATOM      8  C   LIG A   1      -7.765   3.418 129.839  0.00  0.00    +0.019 C 
ATOM      9  C   LIG A   1      -6.234   3.106 130.149  0.00  0.00    +0.104 C 
ATOM     10  C   LIG A   1      -6.288   1.933 131.240  0.00  0.00    +0.234 C 
ATOM     11  C   LIG A   1      -7.415   2.073 132.336  0.00  0.00    +0.221 C 
ATOM     12  C   LIG A   1      -8.738   2.828 132.150  0.00  0.00    +0.037 C 
ATOM     13  C   LIG A   1      -9.309   3.267 133.526  0.00  0.00    +0.012 C 
ATOM     14  C   LIG A   1      -8.747   3.894 131.009  0.00  0.00    -0.022 C 
ATOM     15  C   LIG A   1     -10.152   3.611 130.496  0.00  0.00    +0.012 C 
ENDROOT
BRANCH  10  16
ATOM     16  O   LIG A   1      -5.080   1.712 132.057  0.00  0.00    -0.453 OA
BRANCH  16  17
ATOM     17  C   LIG A   1      -4.331   0.594 131.945  0.00  0.00    +0.332 C 
ATOM     18  O   LIG A   1      -3.565   0.164 132.795  0.00  0.00    -0.246 OA
BRANCH  17  19
ATOM     19  C   LIG A   1      -4.455  -0.118 130.647  0.00  0.00    +0.091 C 
ATOM     20  C   LIG A   1      -4.373  -1.425 130.363  0.00  0.00    +0.007 C 
BRANCH  20  21
ATOM     21  C   LIG A   1      -4.661  -2.045 129.098  0.00  0.00    -0.004 C 
ATOM     22  C   LIG A   1      -5.382  -1.454 128.140  0.00  0.00    -0.027 C 
BRANCH  22  23
ATOM     23  C   LIG A   1      -5.594  -2.104 126.816  0.00  0.00    +0.027 C 
BRANCH  23  24
ATOM     24  C   LIG A   1      -5.459  -1.122 125.650  0.00  0.00    +0.004 C 
BRANCH  24  25
ATOM     25  C   LIG A   1      -5.950  -1.720 124.326  0.00  0.00    +0.000 C 
BRANCH  25  26
ATOM     26  C   LIG A   1      -5.764  -3.235 124.231  0.00  0.00    -0.003 C 
ATOM     27  C   LIG A   1      -4.479  -3.678 123.547  0.00  0.00    +0.004 C 
ENDBRANCH  25  26
ENDBRANCH  24  25
ENDBRANCH  23  24
ENDBRANCH  22  23
ENDBRANCH  20  21
ENDBRANCH  17  19
ENDBRANCH  16  17
ENDBRANCH  10  16
BRANCH  11  28
ATOM     28  O   LIG A   1      -7.799   0.706 132.751  0.00  0.00    -0.458 OA
BRANCH  28  29
ATOM     29  C   LIG A   1      -8.678   0.144 131.864  0.00  0.00    +0.304 C 
ATOM     30  C   LIG A   1      -8.006  -0.606 130.742  0.00  0.00    +0.136 C 
ATOM     31  O   LIG A   1      -9.837   0.224 131.956  0.00  0.00    -0.251 OA
ENDBRANCH  28  29
ENDBRANCH  11  28
BRANCH   6  32
ATOM     32  O   LIG A   1      -8.876   1.866 127.350  0.00  0.00    -0.457 OA
BRANCH  32  33
ATOM     33  C   LIG A   1      -8.906   1.013 126.291  0.00  0.00    +0.304 C 
ATOM     34  C   LIG A   1      -9.033   1.735 124.981  0.00  0.00    +0.136 C 
ATOM     35  O   LIG A   1      -8.818  -0.203 126.389  0.00  0.00    -0.251 OA
ENDBRANCH  32  33
ENDBRANCH   6  32
BRANCH  14  36
ATOM     36  C   LIG A   1      -8.768   5.444 131.409  0.00  0.00    +0.012 C 
BRANCH  36  37
ATOM     37  C   LIG A   1     -10.141   6.192 131.690  0.00  0.00    +0.035 C 
BRANCH  37  38
ATOM     38  C   LIG A   1     -10.798   7.044 130.593  0.00  0.00    -0.055 C 
ATOM     39  C   LIG A   1     -10.175   7.453 129.480  0.00  0.00    +0.012 C 
BRANCH  38  40
ATOM     40  C   LIG A   1     -12.205   7.358 130.564  0.00  0.00    -0.005 C 
ATOM     41  C   LIG A   1     -12.907   7.385 129.424  0.00  0.00    +0.008 C 
ENDBRANCH  38  40
ENDBRANCH  37  38
ENDBRANCH  36  37
ENDBRANCH  14  36
BRANCH   3  42
ATOM     42  O   LIG A   1      -4.843   5.212 131.232  0.00  0.00    -0.434 OA
BRANCH  42  43
ATOM     43  C   LIG A   1      -4.772   6.589 130.957  0.00  0.00    +0.306 C 
ATOM     44  C   LIG A   1      -3.545   7.166 131.639  0.00  0.00    +0.136 C 
ATOM     45  O   LIG A   1      -5.570   7.301 130.357  0.00  0.00    -0.251 OA
ENDBRANCH  42  43
ENDBRANCH   3  42
BRANCH   1  46
ATOM     46  O   LIG A   1      -3.891   3.184 127.373  0.00  0.00    -0.431 OA
BRANCH  46  48
ATOM     47  C   LIG A   1      -4.705   5.250 126.665  0.00  0.00    +0.136 C 
ATOM     48  C   LIG A   1      -3.551   4.491 127.227  0.00  0.00    +0.306 C 
ATOM     49  O   LIG A   1      -2.546   5.063 127.585  0.00  0.00    -0.251 OA
ENDBRANCH  46  48
ENDBRANCH   1  46
TORSDOF 20
ENDMDL
MODEL 5
REMARK VINA RESULT:      -7.2      2.571      4.148
REMARK  Name = NuBBE_639
REMARK  27 active torsions:
REMARK  status: ('A' for Active; 'I' for Inactive)
REMARK    1  A    between atoms: C_1  and  C_2
REMARK    2  A    between atoms: C_2  and  O_3
REMARK    3  A    between atoms: O_3  and  C_4
REMARK    4  A    between atoms: C_7  and  O_9
REMARK    5  A    between atoms: O_9  and  C_10
REMARK    6  A    between atoms: C_10  and  C_11
REMARK    7  A    between atoms: C_15  and  O_17
REMARK    8  A    between atoms: O_17  and  C_18
REMARK    9  A    between atoms: C_18  and  C_19
REMARK   10  A    between atoms: C_25  and  O_27
REMARK   11  A    between atoms: O_27  and  C_28
REMARK   12  A    between atoms: C_28  and  C_29
REMARK   13  A    between atoms: C_30  and  C_31
REMARK   14  A    between atoms: C_32  and  C_33
REMARK   15  A    between atoms: C_33  and  C_34
REMARK   16  A    between atoms: C_34  and  C_35
REMARK   17  A    between atoms: C_35  and  C_36
REMARK   18  A    between atoms: C_36  and  C_37
REMARK   19  A    between atoms: C_39  and  O_41
REMARK   20  A    between atoms: O_41  and  C_42
REMARK   21  A    between atoms: C_42  and  C_43
REMARK   22  A    between atoms: C_45  and  C_47
REMARK   23  A    between atoms: C_48  and  C_49
REMARK   24  A    between atoms: C_48  and  C_50
REMARK   25  A    between atoms: C_50  and  C_51
REMARK   26  A    between atoms: C_51  and  C_52
REMARK   27  A    between atoms: C_52  and  C_53
REMARK                            x       y       z     vdW  Elec       q    Type
REMARK                         _______ _______ _______ _____ _____    ______ ____
ROOT
ATOM      1  C   LIG A   1      -8.123   5.580 130.138  0.00  0.00    +0.343 C 
ATOM      2  O   LIG A   1      -7.080   5.386 129.194  0.00  0.00    -0.297 OA
ATOM      3  C   LIG A   1      -5.874   5.105 129.916  0.00  0.00    +0.328 C 
ATOM      4  C   LIG A   1      -7.666   4.930 131.434  0.00  0.00    +0.014 C 
ATOM      5  C   LIG A   1      -8.113   5.386 132.630  0.00  0.00    +0.023 C 
ATOM      6  C   LIG A   1      -7.176   5.742 133.753  0.00  0.00    +0.200 C 
ATOM      7  C   LIG A   1      -5.718   5.562 133.279  0.00  0.00    +0.054 C 
ATOM      8  C   LIG A   1      -5.554   4.187 132.559  0.00  0.00    +0.019 C 
ATOM      9  C   LIG A   1      -6.328   4.148 131.167  0.00  0.00    +0.104 C 
ATOM     10  C   LIG A   1      -6.771   2.616 131.009  0.00  0.00    +0.234 C 
ATOM     11  C   LIG A   1      -5.706   1.548 131.474  0.00  0.00    +0.221 C 
ATOM     12  C   LIG A   1      -4.616   1.788 132.527  0.00  0.00    +0.037 C 
ATOM     13  C   LIG A   1      -3.433   0.804 132.317  0.00  0.00    +0.012 C 
ATOM     14  C   LIG A   1      -4.252   3.285 132.786  0.00  0.00    -0.022 C 
ATOM     15  C   LIG A   1      -4.092   3.182 134.297  0.00  0.00    +0.012 C 
ENDROOT
BRANCH  10  16
ATOM     16  O   LIG A   1      -7.117   2.146 129.654  0.00  0.00    -0.453 OA
BRANCH  16  17
ATOM     17  C   LIG A   1      -8.397   1.988 129.254  0.00  0.00    +0.332 C 
ATOM     18  O   LIG A   1      -9.387   2.272 129.911  0.00  0.00    -0.246 OA
BRANCH  17  19
ATOM     19  C   LIG A   1      -8.563   1.380 127.908  0.00  0.00    +0.091 C 
ATOM     20  C   LIG A   1      -8.063   0.244 127.402  0.00  0.00    +0.007 C 
BRANCH  20  21
ATOM     21  C   LIG A   1      -8.403  -0.350 126.137  0.00  0.00    -0.004 C 
ATOM     22  C   LIG A   1      -8.030  -1.584 125.784  0.00  0.00    -0.027 C 
BRANCH  22  23
ATOM     23  C   LIG A   1      -8.466  -2.187 124.493  0.00  0.00    +0.027 C 
BRANCH  23  24
ATOM     24  C   LIG A   1      -7.295  -2.467 123.549  0.00  0.00    +0.004 C 
BRANCH  24  25
ATOM     25  C   LIG A   1      -6.005  -2.802 124.305  0.00  0.00    +0.000 C 
BRANCH  25  26
ATOM     26  C   LIG A   1      -4.858  -3.245 123.395  0.00  0.00    -0.003 C 
ATOM     27  C   LIG A   1      -4.321  -4.641 123.679  0.00  0.00    +0.004 C 
ENDBRANCH  25  26
ENDBRANCH  24  25
ENDBRANCH  23  24
ENDBRANCH  22  23
ENDBRANCH  20  21
ENDBRANCH  17  19
ENDBRANCH  16  17
ENDBRANCH  10  16
BRANCH  11  28
ATOM     28  O   LIG A   1      -6.451   0.358 131.945  0.00  0.00    -0.458 OA
BRANCH  28  29
ATOM     29  C   LIG A   1      -6.503  -0.611 130.980  0.00  0.00    +0.304 C 
ATOM     30  C   LIG A   1      -7.842  -1.298 130.887  0.00  0.00    +0.136 C 
ATOM     31  O   LIG A   1      -5.609  -0.889 130.286  0.00  0.00    -0.251 OA
ENDBRANCH  28  29
ENDBRANCH  11  28
BRANCH   6  32
ATOM     32  O   LIG A   1      -7.373   5.010 134.977  0.00  0.00    -0.457 OA
BRANCH  32  33
ATOM     33  C   LIG A   1      -7.216   5.752 136.106  0.00  0.00    +0.304 C 
ATOM     34  C   LIG A   1      -6.052   5.290 136.934  0.00  0.00    +0.136 C 
ATOM     35  O   LIG A   1      -7.926   6.702 136.405  0.00  0.00    -0.251 OA
ENDBRANCH  32  33
ENDBRANCH   6  32
BRANCH  14  36
ATOM     36  C   LIG A   1      -2.840   3.830 132.267  0.00  0.00    +0.012 C 
BRANCH  36  37
ATOM     37  C   LIG A   1      -1.953   4.783 133.176  0.00  0.00    +0.035 C 
BRANCH  37  38
ATOM     38  C   LIG A   1      -1.567   6.187 132.681  0.00  0.00    -0.055 C 
ATOM     39  C   LIG A   1      -0.477   6.855 133.080  0.00  0.00    +0.012 C 
BRANCH  38  40
ATOM     40  C   LIG A   1      -2.248   6.869 131.610  0.00  0.00    -0.005 C 
ATOM     41  C   LIG A   1      -3.090   7.887 131.832  0.00  0.00    +0.008 C 
ENDBRANCH  38  40
ENDBRANCH  37  38
ENDBRANCH  36  37
ENDBRANCH  14  36
BRANCH   3  42
ATOM     42  O   LIG A   1      -4.789   4.816 128.992  0.00  0.00    -0.434 OA
BRANCH  42  43
ATOM     43  C   LIG A   1      -3.954   5.870 128.583  0.00  0.00    +0.306 C 
ATOM     44  C   LIG A   1      -2.558   5.328 128.338  0.00  0.00    +0.136 C 
ATOM     45  O   LIG A   1      -4.202   7.069 128.501  0.00  0.00    -0.251 OA
ENDBRANCH  42  43
ENDBRANCH   3  42
BRANCH   1  46
ATOM     46  O   LIG A   1      -8.461   6.969 130.333  0.00  0.00    -0.431 OA
BRANCH  46  48
ATOM     47  C   LIG A   1     -10.774   6.936 130.617  0.00  0.00    +0.136 C 
ATOM     48  C   LIG A   1      -9.626   7.416 129.796  0.00  0.00    +0.306 C 
ATOM     49  O   LIG A   1      -9.797   8.188 128.879  0.00  0.00    -0.251 OA
ENDBRANCH  46  48
ENDBRANCH   1  46
TORSDOF 20
ENDMDL
MODEL 6
REMARK VINA RESULT:      -7.2      1.846      8.260
REMARK  Name = NuBBE_639
REMARK  27 active torsions:
REMARK  status: ('A' for Active; 'I' for Inactive)
REMARK    1  A    between atoms: C_1  and  C_2
REMARK    2  A    between atoms: C_2  and  O_3
REMARK    3  A    between atoms: O_3  and  C_4
REMARK    4  A    between atoms: C_7  and  O_9
REMARK    5  A    between atoms: O_9  and  C_10
REMARK    6  A    between atoms: C_10  and  C_11
REMARK    7  A    between atoms: C_15  and  O_17
REMARK    8  A    between atoms: O_17  and  C_18
REMARK    9  A    between atoms: C_18  and  C_19
REMARK   10  A    between atoms: C_25  and  O_27
REMARK   11  A    between atoms: O_27  and  C_28
REMARK   12  A    between atoms: C_28  and  C_29
REMARK   13  A    between atoms: C_30  and  C_31
REMARK   14  A    between atoms: C_32  and  C_33
REMARK   15  A    between atoms: C_33  and  C_34
REMARK   16  A    between atoms: C_34  and  C_35
REMARK   17  A    between atoms: C_35  and  C_36
REMARK   18  A    between atoms: C_36  and  C_37
REMARK   19  A    between atoms: C_39  and  O_41
REMARK   20  A    between atoms: O_41  and  C_42
REMARK   21  A    between atoms: C_42  and  C_43
REMARK   22  A    between atoms: C_45  and  C_47
REMARK   23  A    between atoms: C_48  and  C_49
REMARK   24  A    between atoms: C_48  and  C_50
REMARK   25  A    between atoms: C_50  and  C_51
REMARK   26  A    between atoms: C_51  and  C_52
REMARK   27  A    between atoms: C_52  and  C_53
REMARK                            x       y       z     vdW  Elec       q    Type
REMARK                         _______ _______ _______ _____ _____    ______ ____
ROOT
ATOM      1  C   LIG A   1      -4.651   1.837 130.325  0.00  0.00    +0.343 C 
ATOM      2  O   LIG A   1      -4.091   0.641 129.802  0.00  0.00    -0.297 OA
ATOM      3  C   LIG A   1      -5.099  -0.020 129.026  0.00  0.00    +0.328 C 
ATOM      4  C   LIG A   1      -5.860   2.166 129.465  0.00  0.00    +0.014 C 
ATOM      5  C   LIG A   1      -6.906   2.859 129.979  0.00  0.00    +0.023 C 
ATOM      6  C   LIG A   1      -8.325   2.370 129.866  0.00  0.00    +0.200 C 
ATOM      7  C   LIG A   1      -8.339   0.996 129.163  0.00  0.00    +0.054 C 
ATOM      8  C   LIG A   1      -7.445   1.039 127.883  0.00  0.00    +0.019 C 
ATOM      9  C   LIG A   1      -5.899   1.177 128.242  0.00  0.00    +0.104 C 
ATOM     10  C   LIG A   1      -5.288   2.012 127.017  0.00  0.00    +0.234 C 
ATOM     11  C   LIG A   1      -5.848   1.639 125.591  0.00  0.00    +0.221 C 
ATOM     12  C   LIG A   1      -7.230   1.030 125.316  0.00  0.00    +0.037 C 
ATOM     13  C   LIG A   1      -7.227   0.266 123.965  0.00  0.00    +0.012 C 
ATOM     14  C   LIG A   1      -7.901   0.314 126.532  0.00  0.00    -0.022 C 
ATOM     15  C   LIG A   1      -9.322   0.797 126.275  0.00  0.00    +0.012 C 
ENDROOT
BRANCH  10  16
ATOM     16  O   LIG A   1      -3.829   1.943 126.811  0.00  0.00    -0.453 OA
BRANCH  16  17
ATOM     17  C   LIG A   1      -3.058   3.049 126.753  0.00  0.00    +0.332 C 
ATOM     18  O   LIG A   1      -2.569   3.522 125.738  0.00  0.00    -0.246 OA
BRANCH  17  19
ATOM     19  C   LIG A   1      -2.776   3.688 128.066  0.00  0.00    +0.091 C 
ATOM     20  C   LIG A   1      -3.285   4.799 128.616  0.00  0.00    +0.007 C 
BRANCH  20  21
ATOM     21  C   LIG A   1      -3.070   5.261 129.961  0.00  0.00    -0.004 C 
ATOM     22  C   LIG A   1      -3.683   6.333 130.473  0.00  0.00    -0.027 C 
BRANCH  22  23
ATOM     23  C   LIG A   1      -3.487   6.734 131.895  0.00  0.00    +0.027 C 
BRANCH  23  24
ATOM     24  C   LIG A   1      -4.652   6.310 132.792  0.00  0.00    +0.004 C 
BRANCH  24  25
ATOM     25  C   LIG A   1      -5.723   5.526 132.025  0.00  0.00    +0.000 C 
BRANCH  25  26
ATOM     26  C   LIG A   1      -7.139   6.070 132.221  0.00  0.00    -0.003 C 
ATOM     27  C   LIG A   1      -7.710   6.809 131.018  0.00  0.00    +0.004 C 
ENDBRANCH  25  26
ENDBRANCH  24  25
ENDBRANCH  23  24
ENDBRANCH  22  23
ENDBRANCH  20  21
ENDBRANCH  17  19
ENDBRANCH  16  17
ENDBRANCH  10  16
BRANCH  11  28
ATOM     28  O   LIG A   1      -5.786   2.861 124.758  0.00  0.00    -0.458 OA
BRANCH  28  29
ATOM     29  C   LIG A   1      -6.574   3.855 125.273  0.00  0.00    +0.304 C 
ATOM     30  C   LIG A   1      -5.800   5.072 125.713  0.00  0.00    +0.136 C 
ATOM     31  O   LIG A   1      -7.734   3.786 125.365  0.00  0.00    -0.251 OA
ENDBRANCH  28  29
ENDBRANCH  11  28
BRANCH   6  32
ATOM     32  O   LIG A   1      -9.233   3.261 129.190  0.00  0.00    -0.457 OA
BRANCH  32  33
ATOM     33  C   LIG A   1     -10.017   3.999 130.021  0.00  0.00    +0.304 C 
ATOM     34  C   LIG A   1     -10.009   3.474 131.427  0.00  0.00    +0.136 C 
ATOM     35  O   LIG A   1     -10.641   4.990 129.671  0.00  0.00    -0.251 OA
ENDBRANCH  32  33
ENDBRANCH   6  32
BRANCH  14  36
ATOM     36  C   LIG A   1      -8.008  -1.282 126.516  0.00  0.00    +0.012 C 
BRANCH  36  37
ATOM     37  C   LIG A   1      -9.180  -2.011 125.729  0.00  0.00    +0.035 C 
BRANCH  37  38
ATOM     38  C   LIG A   1      -8.856  -3.063 124.656  0.00  0.00    -0.055 C 
ATOM     39  C   LIG A   1      -9.565  -3.240 123.534  0.00  0.00    +0.012 C 
BRANCH  38  40
ATOM     40  C   LIG A   1      -7.656  -3.862 124.662  0.00  0.00    -0.005 C 
ATOM     41  C   LIG A   1      -6.499  -3.417 124.156  0.00  0.00    +0.008 C 
ENDBRANCH  38  40
ENDBRANCH  37  38
ENDBRANCH  36  37
ENDBRANCH  14  36
BRANCH   3  42
ATOM     42  O   LIG A   1      -4.552  -1.211 128.397  0.00  0.00    -0.434 OA
BRANCH  42  43
ATOM     43  C   LIG A   1      -4.846  -2.465 128.961  0.00  0.00    +0.306 C 
ATOM     44  C   LIG A   1      -6.242  -2.426 129.553  0.00  0.00    +0.136 C 
ATOM     45  O   LIG A   1      -4.123  -3.449 129.082  0.00  0.00    -0.251 OA
ENDBRANCH  42  43
ENDBRANCH   3  42
BRANCH   1  46
ATOM     46  O   LIG A   1      -5.007   1.734 131.719  0.00  0.00    -0.431 OA
BRANCH  46  48
ATOM     47  C   LIG A   1      -3.193   2.814 132.708  0.00  0.00    +0.136 C 
ATOM     48  C   LIG A   1      -4.000   1.563 132.616  0.00  0.00    +0.306 C 
ATOM     49  O   LIG A   1      -3.790   0.631 133.359  0.00  0.00    -0.251 OA
ENDBRANCH  46  48
ENDBRANCH   1  46
TORSDOF 20
ENDMDL
MODEL 7
REMARK VINA RESULT:      -7.1      1.315      1.603
REMARK  Name = NuBBE_639
REMARK  27 active torsions:
REMARK  status: ('A' for Active; 'I' for Inactive)
REMARK    1  A    between atoms: C_1  and  C_2
REMARK    2  A    between atoms: C_2  and  O_3
REMARK    3  A    between atoms: O_3  and  C_4
REMARK    4  A    between atoms: C_7  and  O_9
REMARK    5  A    between atoms: O_9  and  C_10
REMARK    6  A    between atoms: C_10  and  C_11
REMARK    7  A    between atoms: C_15  and  O_17
REMARK    8  A    between atoms: O_17  and  C_18
REMARK    9  A    between atoms: C_18  and  C_19
REMARK   10  A    between atoms: C_25  and  O_27
REMARK   11  A    between atoms: O_27  and  C_28
REMARK   12  A    between atoms: C_28  and  C_29
REMARK   13  A    between atoms: C_30  and  C_31
REMARK   14  A    between atoms: C_32  and  C_33
REMARK   15  A    between atoms: C_33  and  C_34
REMARK   16  A    between atoms: C_34  and  C_35
REMARK   17  A    between atoms: C_35  and  C_36
REMARK   18  A    between atoms: C_36  and  C_37
REMARK   19  A    between atoms: C_39  and  O_41
REMARK   20  A    between atoms: O_41  and  C_42
REMARK   21  A    between atoms: C_42  and  C_43
REMARK   22  A    between atoms: C_45  and  C_47
REMARK   23  A    between atoms: C_48  and  C_49
REMARK   24  A    between atoms: C_48  and  C_50
REMARK   25  A    between atoms: C_50  and  C_51
REMARK   26  A    between atoms: C_51  and  C_52
REMARK   27  A    between atoms: C_52  and  C_53
REMARK                            x       y       z     vdW  Elec       q    Type
REMARK                         _______ _______ _______ _____ _____    ______ ____
ROOT
ATOM      1  C   LIG A   1      -6.580   1.629 127.260  0.00  0.00    +0.343 C 
ATOM      2  O   LIG A   1      -5.162   1.634 127.174  0.00  0.00    -0.297 OA
ATOM      3  C   LIG A   1      -4.657   2.495 128.203  0.00  0.00    +0.328 C 
ATOM      4  C   LIG A   1      -6.934   2.102 128.661  0.00  0.00    +0.014 C 
ATOM      5  C   LIG A   1      -8.109   2.734 128.899  0.00  0.00    +0.023 C 
ATOM      6  C   LIG A   1      -8.177   4.057 129.616  0.00  0.00    +0.200 C 
ATOM      7  C   LIG A   1      -6.746   4.539 129.936  0.00  0.00    +0.054 C 
ATOM      8  C   LIG A   1      -5.915   3.375 130.563  0.00  0.00    +0.019 C 
ATOM      9  C   LIG A   1      -5.613   2.223 129.506  0.00  0.00    +0.104 C 
ATOM     10  C   LIG A   1      -5.566   0.886 130.389  0.00  0.00    +0.234 C 
ATOM     11  C   LIG A   1      -4.861   1.022 131.794  0.00  0.00    +0.221 C 
ATOM     12  C   LIG A   1      -4.748   2.321 132.603  0.00  0.00    +0.037 C 
ATOM     13  C   LIG A   1      -3.543   2.248 133.581  0.00  0.00    +0.012 C 
ATOM     14  C   LIG A   1      -4.912   3.640 131.782  0.00  0.00    -0.022 C 
ATOM     15  C   LIG A   1      -5.726   4.407 132.815  0.00  0.00    +0.012 C 
ENDROOT
BRANCH  10  16
ATOM     16  O   LIG A   1      -4.886  -0.287 129.808  0.00  0.00    -0.453 OA
BRANCH  16  17
ATOM     17  C   LIG A   1      -5.484  -1.494 129.721  0.00  0.00    +0.332 C 
ATOM     18  O   LIG A   1      -5.603  -2.296 130.635  0.00  0.00    -0.246 OA
BRANCH  17  19
ATOM     19  C   LIG A   1      -5.991  -1.848 128.369  0.00  0.00    +0.091 C 
ATOM     20  C   LIG A   1      -7.235  -2.126 127.955  0.00  0.00    +0.007 C 
BRANCH  20  21
ATOM     21  C   LIG A   1      -7.662  -2.306 126.593  0.00  0.00    -0.004 C 
ATOM     22  C   LIG A   1      -8.869  -2.773 126.260  0.00  0.00    -0.027 C 
BRANCH  22  23
ATOM     23  C   LIG A   1      -9.296  -2.874 124.836  0.00  0.00    +0.027 C 
BRANCH  23  24
ATOM     24  C   LIG A   1      -8.148  -3.266 123.903  0.00  0.00    +0.004 C 
BRANCH  24  25
ATOM     25  C   LIG A   1      -7.859  -2.189 122.851  0.00  0.00    +0.000 C 
BRANCH  25  26
ATOM     26  C   LIG A   1      -6.371  -2.010 122.549  0.00  0.00    -0.003 C 
ATOM     27  C   LIG A   1      -5.433  -2.667 123.552  0.00  0.00    +0.004 C 
ENDBRANCH  25  26
ENDBRANCH  24  25
ENDBRANCH  23  24
ENDBRANCH  22  23
ENDBRANCH  20  21
ENDBRANCH  17  19
ENDBRANCH  16  17
ENDBRANCH  10  16
BRANCH  11  28
ATOM     28  O   LIG A   1      -5.501   0.048 132.706  0.00  0.00    -0.458 OA
BRANCH  28  29
ATOM     29  C   LIG A   1      -6.752   0.461 133.079  0.00  0.00    +0.304 C 
ATOM     30  C   LIG A   1      -7.861  -0.175 132.280  0.00  0.00    +0.136 C 
ATOM     31  O   LIG A   1      -6.958   1.227 133.932  0.00  0.00    -0.251 OA
ENDBRANCH  28  29
ENDBRANCH  11  28
BRANCH   6  32
ATOM     32  O   LIG A   1      -8.964   4.065 130.822  0.00  0.00    -0.457 OA
BRANCH  32  33
ATOM     33  C   LIG A   1     -10.090   4.825 130.751  0.00  0.00    +0.304 C 
ATOM     34  C   LIG A   1      -9.986   6.076 131.573  0.00  0.00    +0.136 C 
ATOM     35  O   LIG A   1     -11.069   4.536 130.078  0.00  0.00    -0.251 OA
ENDBRANCH  32  33
ENDBRANCH   6  32
BRANCH  14  36
ATOM     36  C   LIG A   1      -3.620   4.549 131.528  0.00  0.00    +0.012 C 
BRANCH  36  37
ATOM     37  C   LIG A   1      -3.442   5.935 132.283  0.00  0.00    +0.035 C 
BRANCH  37  38
ATOM     38  C   LIG A   1      -3.620   7.260 131.523  0.00  0.00    -0.055 C 
ATOM     39  C   LIG A   1      -4.563   7.479 130.598  0.00  0.00    +0.012 C 
BRANCH  38  40
ATOM     40  C   LIG A   1      -2.895   8.464 131.843  0.00  0.00    -0.005 C 
ATOM     41  C   LIG A   1      -2.150   8.576 132.951  0.00  0.00    +0.008 C 
ENDBRANCH  38  40
ENDBRANCH  37  38
ENDBRANCH  36  37
ENDBRANCH  14  36
BRANCH   3  42
ATOM     42  O   LIG A   1      -3.204   2.471 128.212  0.00  0.00    -0.434 OA
BRANCH  42  43
ATOM     43  C   LIG A   1      -2.509   3.453 127.485  0.00  0.00    +0.306 C 
ATOM     44  C   LIG A   1      -3.031   4.822 127.880  0.00  0.00    +0.136 C 
ATOM     45  O   LIG A   1      -1.675   3.315 126.596  0.00  0.00    -0.251 OA
ENDBRANCH  42  43
ENDBRANCH   3  42
BRANCH   1  46
ATOM     46  O   LIG A   1      -7.212   2.444 126.251  0.00  0.00    -0.431 OA
BRANCH  46  48
ATOM     47  C   LIG A   1      -7.390   0.993 124.436  0.00  0.00    +0.136 C 
ATOM     48  C   LIG A   1      -8.110   1.844 125.427  0.00  0.00    +0.306 C 
ATOM     49  O   LIG A   1      -9.319   1.838 125.490  0.00  0.00    -0.251 OA
ENDBRANCH  46  48
ENDBRANCH   1  46
TORSDOF 20
ENDMDL
MODEL 8
REMARK VINA RESULT:      -7.0      2.073      4.700
REMARK  Name = NuBBE_639
REMARK  27 active torsions:
REMARK  status: ('A' for Active; 'I' for Inactive)
REMARK    1  A    between atoms: C_1  and  C_2
REMARK    2  A    between atoms: C_2  and  O_3
REMARK    3  A    between atoms: O_3  and  C_4
REMARK    4  A    between atoms: C_7  and  O_9
REMARK    5  A    between atoms: O_9  and  C_10
REMARK    6  A    between atoms: C_10  and  C_11
REMARK    7  A    between atoms: C_15  and  O_17
REMARK    8  A    between atoms: O_17  and  C_18
REMARK    9  A    between atoms: C_18  and  C_19
REMARK   10  A    between atoms: C_25  and  O_27
REMARK   11  A    between atoms: O_27  and  C_28
REMARK   12  A    between atoms: C_28  and  C_29
REMARK   13  A    between atoms: C_30  and  C_31
REMARK   14  A    between atoms: C_32  and  C_33
REMARK   15  A    between atoms: C_33  and  C_34
REMARK   16  A    between atoms: C_34  and  C_35
REMARK   17  A    between atoms: C_35  and  C_36
REMARK   18  A    between atoms: C_36  and  C_37
REMARK   19  A    between atoms: C_39  and  O_41
REMARK   20  A    between atoms: O_41  and  C_42
REMARK   21  A    between atoms: C_42  and  C_43
REMARK   22  A    between atoms: C_45  and  C_47
REMARK   23  A    between atoms: C_48  and  C_49
REMARK   24  A    between atoms: C_48  and  C_50
REMARK   25  A    between atoms: C_50  and  C_51
REMARK   26  A    between atoms: C_51  and  C_52
REMARK   27  A    between atoms: C_52  and  C_53
REMARK                            x       y       z     vdW  Elec       q    Type
REMARK                         _______ _______ _______ _____ _____    ______ ____
ROOT
ATOM      1  C   LIG A   1      -4.123   2.258 128.146  0.00  0.00    +0.343 C 
ATOM      2  O   LIG A   1      -3.741   2.810 129.398  0.00  0.00    -0.297 OA
ATOM      3  C   LIG A   1      -4.889   3.451 129.970  0.00  0.00    +0.328 C 
ATOM      4  C   LIG A   1      -5.638   2.132 128.168  0.00  0.00    +0.014 C 
ATOM      5  C   LIG A   1      -6.352   2.186 127.017  0.00  0.00    +0.023 C 
ATOM      6  C   LIG A   1      -7.524   3.116 126.844  0.00  0.00    +0.200 C 
ATOM      7  C   LIG A   1      -7.689   3.974 128.117  0.00  0.00    +0.054 C 
ATOM      8  C   LIG A   1      -7.617   3.068 129.387  0.00  0.00    +0.019 C 
ATOM      9  C   LIG A   1      -6.157   2.475 129.613  0.00  0.00    +0.104 C 
ATOM     10  C   LIG A   1      -6.416   1.052 130.306  0.00  0.00    +0.234 C 
ATOM     11  C   LIG A   1      -7.574   1.018 131.376  0.00  0.00    +0.221 C 
ATOM     12  C   LIG A   1      -8.780   1.966 131.404  0.00  0.00    +0.037 C 
ATOM     13  C   LIG A   1      -9.366   2.056 132.839  0.00  0.00    +0.012 C 
ATOM     14  C   LIG A   1      -8.594   3.310 130.631  0.00  0.00    -0.022 C 
ATOM     15  C   LIG A   1      -9.994   3.383 130.036  0.00  0.00    +0.012 C 
ENDROOT
BRANCH  10  16
ATOM     16  O   LIG A   1      -5.292   0.440 131.038  0.00  0.00    -0.453 OA
BRANCH  16  17
ATOM     17  C   LIG A   1      -4.768  -0.753 130.684  0.00  0.00    +0.332 C 
ATOM     18  O   LIG A   1      -4.215  -1.539 131.440  0.00  0.00    -0.246 OA
BRANCH  17  19
ATOM     19  C   LIG A   1      -4.863  -1.077 129.236  0.00  0.00    +0.091 C 
ATOM     20  C   LIG A   1      -5.462  -2.101 128.614  0.00  0.00    +0.007 C 
BRANCH  20  21
ATOM     21  C   LIG A   1      -5.639  -2.253 127.195  0.00  0.00    -0.004 C 
ATOM     22  C   LIG A   1      -5.466  -1.255 126.324  0.00  0.00    -0.027 C 
BRANCH  22  23
ATOM     23  C   LIG A   1      -5.588  -1.476 124.856  0.00  0.00    +0.027 C 
BRANCH  23  24
ATOM     24  C   LIG A   1      -7.023  -1.785 124.423  0.00  0.00    +0.004 C 
BRANCH  24  25
ATOM     25  C   LIG A   1      -7.231  -3.272 124.114  0.00  0.00    +0.000 C 
BRANCH  25  26
ATOM     26  C   LIG A   1      -8.345  -3.920 124.937  0.00  0.00    -0.003 C 
ATOM     27  C   LIG A   1      -9.124  -2.959 125.824  0.00  0.00    +0.004 C 
ENDBRANCH  25  26
ENDBRANCH  24  25
ENDBRANCH  23  24
ENDBRANCH  22  23
ENDBRANCH  20  21
ENDBRANCH  17  19
ENDBRANCH  16  17
ENDBRANCH  10  16
BRANCH  11  28
ATOM     28  O   LIG A   1      -8.149  -0.346 131.361  0.00  0.00    -0.458 OA
BRANCH  28  29
ATOM     29  C   LIG A   1      -7.691  -1.093 132.413  0.00  0.00    +0.304 C 
ATOM     30  C   LIG A   1      -7.599  -2.567 132.113  0.00  0.00    +0.136 C 
ATOM     31  O   LIG A   1      -7.392  -0.646 133.447  0.00  0.00    -0.251 OA
ENDBRANCH  28  29
ENDBRANCH  11  28
BRANCH   6  32
ATOM     32  O   LIG A   1      -8.777   2.478 126.533  0.00  0.00    -0.457 OA
BRANCH  32  33
ATOM     33  C   LIG A   1      -8.864   2.004 125.261  0.00  0.00    +0.304 C 
ATOM     34  C   LIG A   1      -8.484   3.037 124.241  0.00  0.00    +0.136 C 
ATOM     35  O   LIG A   1      -9.192   0.861 124.978  0.00  0.00    -0.251 OA
ENDBRANCH  32  33
ENDBRANCH   6  32
BRANCH  14  36
ATOM     36  C   LIG A   1      -8.443   4.663 131.473  0.00  0.00    +0.012 C 
BRANCH  36  37
ATOM     37  C   LIG A   1      -7.134   4.946 132.327  0.00  0.00    +0.035 C 
BRANCH  37  38
ATOM     38  C   LIG A   1      -7.099   4.606 133.826  0.00  0.00    -0.055 C 
ATOM     39  C   LIG A   1      -8.098   4.858 134.681  0.00  0.00    +0.012 C 
BRANCH  38  40
ATOM     40  C   LIG A   1      -6.051   3.831 134.442  0.00  0.00    -0.005 C 
ATOM     41  C   LIG A   1      -5.984   2.498 134.319  0.00  0.00    +0.008 C 
ENDBRANCH  38  40
ENDBRANCH  37  38
ENDBRANCH  36  37
ENDBRANCH  14  36
BRANCH   3  42
ATOM     42  O   LIG A   1      -4.574   3.962 131.294  0.00  0.00    -0.434 OA
BRANCH  42  43
ATOM     43  C   LIG A   1      -3.346   4.620 131.487  0.00  0.00    +0.306 C 
ATOM     44  C   LIG A   1      -2.608   3.962 132.639  0.00  0.00    +0.136 C 
ATOM     45  O   LIG A   1      -2.907   5.620 130.929  0.00  0.00    -0.251 OA
ENDBRANCH  42  43
ENDBRANCH   3  42
BRANCH   1  46
ATOM     46  O   LIG A   1      -3.675   3.042 127.021  0.00  0.00    -0.431 OA
BRANCH  46  48
ATOM     47  C   LIG A   1      -1.391   2.948 126.563  0.00  0.00    +0.136 C 
ATOM     48  C   LIG A   1      -2.512   3.732 127.157  0.00  0.00    +0.306 C 
ATOM     49  O   LIG A   1      -2.336   4.859 127.563  0.00  0.00    -0.251 OA
ENDBRANCH  46  48
ENDBRANCH   1  46
TORSDOF 20
ENDMDL
MODEL 9
REMARK VINA RESULT:      -6.9      1.964      7.936
REMARK  Name = NuBBE_639
REMARK  27 active torsions:
REMARK  status: ('A' for Active; 'I' for Inactive)
REMARK    1  A    between atoms: C_1  and  C_2
REMARK    2  A    between atoms: C_2  and  O_3
REMARK    3  A    between atoms: O_3  and  C_4
REMARK    4  A    between atoms: C_7  and  O_9
REMARK    5  A    between atoms: O_9  and  C_10
REMARK    6  A    between atoms: C_10  and  C_11
REMARK    7  A    between atoms: C_15  and  O_17
REMARK    8  A    between atoms: O_17  and  C_18
REMARK    9  A    between atoms: C_18  and  C_19
REMARK   10  A    between atoms: C_25  and  O_27
REMARK   11  A    between atoms: O_27  and  C_28
REMARK   12  A    between atoms: C_28  and  C_29
REMARK   13  A    between atoms: C_30  and  C_31
REMARK   14  A    between atoms: C_32  and  C_33
REMARK   15  A    between atoms: C_33  and  C_34
REMARK   16  A    between atoms: C_34  and  C_35
REMARK   17  A    between atoms: C_35  and  C_36
REMARK   18  A    between atoms: C_36  and  C_37
REMARK   19  A    between atoms: C_39  and  O_41
REMARK   20  A    between atoms: O_41  and  C_42
REMARK   21  A    between atoms: C_42  and  C_43
REMARK   22  A    between atoms: C_45  and  C_47
REMARK   23  A    between atoms: C_48  and  C_49
REMARK   24  A    between atoms: C_48  and  C_50
REMARK   25  A    between atoms: C_50  and  C_51
REMARK   26  A    between atoms: C_51  and  C_52
REMARK   27  A    between atoms: C_52  and  C_53
REMARK                            x       y       z     vdW  Elec       q    Type
REMARK                         _______ _______ _______ _____ _____    ______ ____
ROOT
ATOM      1  C   LIG A   1      -6.485   4.137 130.448  0.00  0.00    +0.343 C 
ATOM      2  O   LIG A   1      -7.871   3.829 130.483  0.00  0.00    -0.297 OA
ATOM      3  C   LIG A   1      -8.188   3.075 129.307  0.00  0.00    +0.328 C 
ATOM      4  C   LIG A   1      -5.842   3.147 129.491  0.00  0.00    +0.014 C 
ATOM      5  C   LIG A   1      -4.717   3.477 128.809  0.00  0.00    +0.023 C 
ATOM      6  C   LIG A   1      -4.611   3.320 127.315  0.00  0.00    +0.200 C 
ATOM      7  C   LIG A   1      -5.958   2.814 126.757  0.00  0.00    +0.054 C 
ATOM      8  C   LIG A   1      -6.477   1.615 127.612  0.00  0.00    +0.019 C 
ATOM      9  C   LIG A   1      -6.912   2.072 129.075  0.00  0.00    +0.104 C 
ATOM     10  C   LIG A   1      -6.594   0.797 129.993  0.00  0.00    +0.234 C 
ATOM     11  C   LIG A   1      -6.933  -0.604 129.353  0.00  0.00    +0.221 C 
ATOM     12  C   LIG A   1      -6.976  -0.901 127.848  0.00  0.00    +0.037 C 
ATOM     13  C   LIG A   1      -7.881  -2.130 127.562  0.00  0.00    +0.012 C 
ATOM     14  C   LIG A   1      -7.163   0.344 126.924  0.00  0.00    -0.022 C 
ATOM     15  C   LIG A   1      -6.201  -0.087 125.825  0.00  0.00    +0.012 C 
ENDROOT
BRANCH  10  16
ATOM     16  O   LIG A   1      -7.271   0.718 131.301  0.00  0.00    -0.453 OA
BRANCH  16  17
ATOM     17  C   LIG A   1      -6.586   0.612 132.459  0.00  0.00    +0.332 C 
ATOM     18  O   LIG A   1      -6.988   0.061 133.474  0.00  0.00    -0.246 OA
BRANCH  17  19
ATOM     19  C   LIG A   1      -5.253   1.268 132.464  0.00  0.00    +0.091 C 
ATOM     20  C   LIG A   1      -4.814   2.334 133.146  0.00  0.00    +0.007 C 
BRANCH  20  21
ATOM     21  C   LIG A   1      -3.457   2.810 133.209  0.00  0.00    -0.004 C 
ATOM     22  C   LIG A   1      -2.967   3.735 132.378  0.00  0.00    -0.027 C 
BRANCH  22  23
ATOM     23  C   LIG A   1      -1.577   4.251 132.526  0.00  0.00    +0.027 C 
BRANCH  23  24
ATOM     24  C   LIG A   1      -1.532   5.660 133.123  0.00  0.00    +0.004 C 
BRANCH  24  25
ATOM     25  C   LIG A   1      -2.239   6.691 132.235  0.00  0.00    +0.000 C 
BRANCH  25  26
ATOM     26  C   LIG A   1      -1.907   6.550 130.749  0.00  0.00    -0.003 C 
ATOM     27  C   LIG A   1      -3.014   6.997 129.804  0.00  0.00    +0.004 C 
ENDBRANCH  25  26
ENDBRANCH  24  25
ENDBRANCH  23  24
ENDBRANCH  22  23
ENDBRANCH  20  21
ENDBRANCH  17  19
ENDBRANCH  16  17
ENDBRANCH  10  16
BRANCH  11  28
ATOM     28  O   LIG A   1      -5.985  -1.590 129.919  0.00  0.00    -0.458 OA
BRANCH  28  29
ATOM     29  C   LIG A   1      -6.645  -2.638 130.502  0.00  0.00    +0.304 C 
ATOM     30  C   LIG A   1      -5.989  -3.974 130.262  0.00  0.00    +0.136 C 
ATOM     31  O   LIG A   1      -7.621  -2.526 131.130  0.00  0.00    -0.251 OA
ENDBRANCH  28  29
ENDBRANCH  11  28
BRANCH   6  32
ATOM     32  O   LIG A   1      -3.551   2.459 126.859  0.00  0.00    -0.457 OA
BRANCH  32  33
ATOM     33  C   LIG A   1      -2.340   3.067 126.756  0.00  0.00    +0.304 C 
ATOM     34  C   LIG A   1      -2.376   4.492 127.226  0.00  0.00    +0.136 C 
ATOM     35  O   LIG A   1      -1.328   2.514 126.348  0.00  0.00    -0.251 OA
ENDBRANCH  32  33
ENDBRANCH   6  32
BRANCH  14  36
ATOM     36  C   LIG A   1      -8.566   0.540 126.178  0.00  0.00    +0.012 C 
BRANCH  36  37
ATOM     37  C   LIG A   1      -8.780   0.008 124.697  0.00  0.00    +0.035 C 
BRANCH  37  38
ATOM     38  C   LIG A   1      -9.206   0.975 123.580  0.00  0.00    -0.055 C 
ATOM     39  C   LIG A   1     -10.131   0.697 122.653  0.00  0.00    +0.012 C 
BRANCH  38  40
ATOM     40  C   LIG A   1      -8.774   2.349 123.509  0.00  0.00    -0.005 C 
ATOM     41  C   LIG A   1      -8.580   2.977 122.341  0.00  0.00    +0.008 C 
ENDBRANCH  38  40
ENDBRANCH  37  38
ENDBRANCH  36  37
ENDBRANCH  14  36
BRANCH   3  42
ATOM     42  O   LIG A   1      -9.582   2.661 129.334  0.00  0.00    -0.434 OA
BRANCH  42  43
ATOM     43  C   LIG A   1     -10.419   3.184 130.335  0.00  0.00    +0.306 C 
ATOM     44  C   LIG A   1     -10.303   2.320 131.577  0.00  0.00    +0.136 C 
ATOM     45  O   LIG A   1     -11.213   4.117 130.273  0.00  0.00    -0.251 OA
ENDBRANCH  42  43
ENDBRANCH   3  42
BRANCH   1  46
ATOM     46  O   LIG A   1      -6.216   5.500 130.058  0.00  0.00    -0.431 OA
BRANCH  46  48
ATOM     47  C   LIG A   1      -5.903   6.185 132.264  0.00  0.00    +0.136 C 
ATOM     48  C   LIG A   1      -6.529   6.482 130.944  0.00  0.00    +0.306 C 
ATOM     49  O   LIG A   1      -7.106   7.529 130.750  0.00  0.00    -0.251 OA
ENDBRANCH  46  48
ENDBRANCH   1  46
TORSDOF 20
ENDMDL
