MODEL 1
REMARK VINA RESULT:      -7.9      0.000      0.000
REMARK  Name = NuBBE_980
REMARK  19 active torsions:
REMARK  status: ('A' for Active; 'I' for Inactive)
REMARK    1  A    between atoms: C_2  and  C_30
REMARK    2  A    between atoms: N_3  and  C_4
REMARK    3  A    between atoms: C_4  and  C_5
REMARK    4  A    between atoms: C_5  and  C_6
REMARK    5  A    between atoms: C_9  and  O_10
REMARK    6  A    between atoms: O_10  and  C_11
REMARK    7  A    between atoms: C_11  and  C_12
REMARK    8  A    between atoms: C_13  and  C_14
REMARK    9  A    between atoms: C_13  and  C_15
REMARK   10  A    between atoms: C_15  and  O_16
REMARK   11  A    between atoms: C_15  and  C_20
REMARK   12  A    between atoms: O_16  and  C_17
REMARK   13  A    between atoms: C_17  and  C_18
REMARK   14  A    between atoms: C_20  and  C_21
REMARK   15  A    between atoms: C_21  and  O_22
REMARK   16  A    between atoms: C_21  and  C_23
REMARK   17  A    between atoms: C_23  and  C_24
REMARK   18  A    between atoms: C_23  and  C_25
REMARK   19  A    between atoms: C_23  and  O_26
REMARK                            x       y       z     vdW  Elec       q    Type
REMARK                         _______ _______ _______ _____ _____    ______ ____
ROOT
ATOM      1  O   LIG A   1      -6.543  -1.284 130.501  0.00  0.00    -0.488 OA
ENDROOT
BRANCH   1   5
ATOM      2  C   LIG A   1      -8.447   2.435 130.519  0.00  0.00    -0.046 A 
ATOM      3  C   LIG A   1      -9.001   1.323 131.169  0.00  0.00    +0.007 A 
ATOM      4  C   LIG A   1      -8.356   0.083 131.136  0.00  0.00    +0.046 A 
ATOM      5  C   LIG A   1      -7.137  -0.050 130.477  0.00  0.00    +0.121 A 
ATOM      6  C   LIG A   1      -6.603   1.030 129.774  0.00  0.00    +0.046 A 
ATOM      7  C   LIG A   1      -7.253   2.270 129.801  0.00  0.00    +0.007 A 
BRANCH   2   8
ATOM      8  C   LIG A   1      -9.104   3.794 130.648  0.00  0.00    +0.054 C 
BRANCH   8   9
ATOM      9  C   LIG A   1     -10.627   3.669 130.796  0.00  0.00    +0.109 C 
BRANCH   9  12
ATOM     10  O   LIG A   1     -11.389   6.244 131.802  0.00  0.00    -0.270 OA
ATOM     11  C   LIG A   1     -11.675   5.946 130.635  0.00  0.00    +0.244 C 
ATOM     12  N   LIG A   1     -11.375   4.715 130.094  0.00  0.00    -0.311 N 
ATOM     13  H   LIG A   1     -11.618   4.532 129.128  0.00  0.00    +0.149 HD
BRANCH  11  14
ATOM     14  C   LIG A   1     -12.345   6.967 129.757  0.00  0.00    +0.037 A 
ATOM     15  C   LIG A   1     -13.084   6.652 128.604  0.00  0.00    +0.013 A 
ATOM     16  C   LIG A   1     -13.690   7.671 127.848  0.00  0.00    +0.001 A 
ATOM     17  C   LIG A   1     -13.576   9.007 128.236  0.00  0.00    +0.000 A 
ATOM     18  C   LIG A   1     -12.862   9.328 129.386  0.00  0.00    +0.001 A 
ATOM     19  C   LIG A   1     -12.250   8.318 130.135  0.00  0.00    +0.013 A 
ENDBRANCH  11  14
ENDBRANCH   9  12
ENDBRANCH   8   9
ENDBRANCH   2   8
ENDBRANCH   1   5
BRANCH   1  20
ATOM     20  C   LIG A   1      -7.381  -2.300 129.929  0.00  0.00    +0.257 C 
BRANCH  20  21
ATOM     21  C   LIG A   1      -7.647  -1.914 128.505  0.00  0.00    +0.016 C 
ATOM     22  C   LIG A   1      -8.351  -2.578 127.562  0.00  0.00    -0.033 C 
ATOM     23  C   LIG A   1      -9.061  -3.885 127.830  0.00  0.00    +0.043 C 
BRANCH  22  24
ATOM     24  C   LIG A   1      -8.481  -2.037 126.124  0.00  0.00    +0.205 C 
BRANCH  24  25
ATOM     25  O   LIG A   1      -9.526  -2.819 125.524  0.00  0.00    -0.457 OA
BRANCH  25  26
ATOM     26  C   LIG A   1      -9.260  -3.265 124.260  0.00  0.00    +0.304 C 
ATOM     27  C   LIG A   1      -7.825  -3.701 124.186  0.00  0.00    +0.136 C 
ATOM     28  O   LIG A   1     -10.002  -3.182 123.297  0.00  0.00    -0.251 OA
ENDBRANCH  25  26
ENDBRANCH  24  25
BRANCH  24  29
ATOM     29  C   LIG A   1      -8.843  -0.524 126.089  0.00  0.00    +0.083 C 
BRANCH  29  30
ATOM     30  C   LIG A   1      -8.656   0.170 124.728  0.00  0.00    +0.149 C 
BRANCH  30  31
ATOM     31  C   LIG A   1      -8.448   1.724 124.797  0.00  0.00    +0.086 C 
ATOM     32  C   LIG A   1      -7.803   2.194 126.106  0.00  0.00    +0.043 C 
ATOM     33  C   LIG A   1      -7.642   2.277 123.622  0.00  0.00    +0.043 C 
BRANCH  31  34
ATOM     34  O   LIG A   1      -9.741   2.354 124.726  0.00  0.00    -0.387 OA
ATOM     35  H   LIG A   1      -9.997   2.563 125.644  0.00  0.00    +0.210 HD
ENDBRANCH  31  34
ENDBRANCH  30  31
BRANCH  30  36
ATOM     36  O   LIG A   1      -9.801  -0.073 123.892  0.00  0.00    -0.389 OA
ATOM     37  H   LIG A   1      -9.845   0.638 123.227  0.00  0.00    +0.210 HD
ENDBRANCH  30  36
ENDBRANCH  29  30
ENDBRANCH  24  29
ENDBRANCH  22  24
ENDBRANCH  20  21
ENDBRANCH   1  20
TORSDOF 15
ENDMDL
MODEL 2
REMARK VINA RESULT:      -7.9      1.562      2.597
REMARK  Name = NuBBE_980
REMARK  19 active torsions:
REMARK  status: ('A' for Active; 'I' for Inactive)
REMARK    1  A    between atoms: C_2  and  C_30
REMARK    2  A    between atoms: N_3  and  C_4
REMARK    3  A    between atoms: C_4  and  C_5
REMARK    4  A    between atoms: C_5  and  C_6
REMARK    5  A    between atoms: C_9  and  O_10
REMARK    6  A    between atoms: O_10  and  C_11
REMARK    7  A    between atoms: C_11  and  C_12
REMARK    8  A    between atoms: C_13  and  C_14
REMARK    9  A    between atoms: C_13  and  C_15
REMARK   10  A    between atoms: C_15  and  O_16
REMARK   11  A    between atoms: C_15  and  C_20
REMARK   12  A    between atoms: O_16  and  C_17
REMARK   13  A    between atoms: C_17  and  C_18
REMARK   14  A    between atoms: C_20  and  C_21
REMARK   15  A    between atoms: C_21  and  O_22
REMARK   16  A    between atoms: C_21  and  C_23
REMARK   17  A    between atoms: C_23  and  C_24
REMARK   18  A    between atoms: C_23  and  C_25
REMARK   19  A    between atoms: C_23  and  O_26
REMARK                            x       y       z     vdW  Elec       q    Type
REMARK                         _______ _______ _______ _____ _____    ______ ____
ROOT
ATOM      1  O   LIG A   1      -6.291  -1.493 130.255  0.00  0.00    -0.488 OA
ENDROOT
BRANCH   1   5
ATOM      2  C   LIG A   1      -8.882   1.563 131.440  0.00  0.00    -0.046 A 
ATOM      3  C   LIG A   1      -9.126   0.223 131.774  0.00  0.00    +0.007 A 
ATOM      4  C   LIG A   1      -8.254  -0.786 131.352  0.00  0.00    +0.046 A 
ATOM      5  C   LIG A   1      -7.117  -0.463 130.618  0.00  0.00    +0.121 A 
ATOM      6  C   LIG A   1      -6.893   0.857 130.225  0.00  0.00    +0.046 A 
ATOM      7  C   LIG A   1      -7.770   1.867 130.641  0.00  0.00    +0.007 A 
BRANCH   2   8
ATOM      8  C   LIG A   1      -9.778   2.656 131.988  0.00  0.00    +0.054 C 
BRANCH   8   9
ATOM      9  C   LIG A   1      -9.090   4.026 131.930  0.00  0.00    +0.109 C 
BRANCH   9  12
ATOM     10  O   LIG A   1     -10.477   6.434 132.642  0.00  0.00    -0.270 OA
ATOM     11  C   LIG A   1     -10.366   6.135 131.445  0.00  0.00    +0.244 C 
ATOM     12  N   LIG A   1      -9.747   4.977 131.029  0.00  0.00    -0.311 N 
ATOM     13  H   LIG A   1      -9.671   4.792 130.036  0.00  0.00    +0.149 HD
BRANCH  11  14
ATOM     14  C   LIG A   1     -10.895   7.078 130.400  0.00  0.00    +0.037 A 
ATOM     15  C   LIG A   1     -10.144   7.540 129.304  0.00  0.00    +0.013 A 
ATOM     16  C   LIG A   1     -10.723   8.412 128.364  0.00  0.00    +0.001 A 
ATOM     17  C   LIG A   1     -12.050   8.821 128.499  0.00  0.00    +0.000 A 
ATOM     18  C   LIG A   1     -12.806   8.356 129.569  0.00  0.00    +0.001 A 
ATOM     19  C   LIG A   1     -12.232   7.497 130.511  0.00  0.00    +0.013 A 
ENDBRANCH  11  14
ENDBRANCH   9  12
ENDBRANCH   8   9
ENDBRANCH   2   8
ENDBRANCH   1   5
BRANCH   1  20
ATOM     20  C   LIG A   1      -7.020  -2.620 129.747  0.00  0.00    +0.257 C 
BRANCH  20  21
ATOM     21  C   LIG A   1      -7.441  -2.289 128.347  0.00  0.00    +0.016 C 
ATOM     22  C   LIG A   1      -8.375  -2.888 127.576  0.00  0.00    -0.033 C 
ATOM     23  C   LIG A   1      -9.226  -4.041 128.057  0.00  0.00    +0.043 C 
BRANCH  22  24
ATOM     24  C   LIG A   1      -8.641  -2.428 126.128  0.00  0.00    +0.205 C 
BRANCH  24  25
ATOM     25  O   LIG A   1      -8.110  -1.096 126.055  0.00  0.00    -0.457 OA
BRANCH  25  26
ATOM     26  C   LIG A   1      -9.047  -0.101 126.044  0.00  0.00    +0.304 C 
ATOM     27  C   LIG A   1      -8.619   0.986 126.988  0.00  0.00    +0.136 C 
ATOM     28  O   LIG A   1     -10.132  -0.142 125.491  0.00  0.00    -0.251 OA
ENDBRANCH  25  26
ENDBRANCH  24  25
BRANCH  24  29
ATOM     29  C   LIG A   1      -7.951  -3.348 125.078  0.00  0.00    +0.083 C 
BRANCH  29  30
ATOM     30  C   LIG A   1      -7.812  -2.751 123.666  0.00  0.00    +0.149 C 
BRANCH  30  31
ATOM     31  C   LIG A   1      -6.469  -1.987 123.396  0.00  0.00    +0.086 C 
ATOM     32  C   LIG A   1      -5.334  -2.398 124.341  0.00  0.00    +0.043 C 
ATOM     33  C   LIG A   1      -5.981  -2.115 121.953  0.00  0.00    +0.043 C 
BRANCH  31  34
ATOM     34  O   LIG A   1      -6.699  -0.582 123.616  0.00  0.00    -0.387 OA
ATOM     35  H   LIG A   1      -5.819  -0.162 123.657  0.00  0.00    +0.210 HD
ENDBRANCH  31  34
ENDBRANCH  30  31
BRANCH  30  36
ATOM     36  O   LIG A   1      -8.888  -1.830 123.415  0.00  0.00    -0.389 OA
ATOM     37  H   LIG A   1      -8.980  -1.254 124.195  0.00  0.00    +0.210 HD
ENDBRANCH  30  36
ENDBRANCH  29  30
ENDBRANCH  24  29
ENDBRANCH  22  24
ENDBRANCH  20  21
ENDBRANCH   1  20
TORSDOF 15
ENDMDL
MODEL 3
REMARK VINA RESULT:      -7.9      1.770      2.159
REMARK  Name = NuBBE_980
REMARK  19 active torsions:
REMARK  status: ('A' for Active; 'I' for Inactive)
REMARK    1  A    between atoms: C_2  and  C_30
REMARK    2  A    between atoms: N_3  and  C_4
REMARK    3  A    between atoms: C_4  and  C_5
REMARK    4  A    between atoms: C_5  and  C_6
REMARK    5  A    between atoms: C_9  and  O_10
REMARK    6  A    between atoms: O_10  and  C_11
REMARK    7  A    between atoms: C_11  and  C_12
REMARK    8  A    between atoms: C_13  and  C_14
REMARK    9  A    between atoms: C_13  and  C_15
REMARK   10  A    between atoms: C_15  and  O_16
REMARK   11  A    between atoms: C_15  and  C_20
REMARK   12  A    between atoms: O_16  and  C_17
REMARK   13  A    between atoms: C_17  and  C_18
REMARK   14  A    between atoms: C_20  and  C_21
REMARK   15  A    between atoms: C_21  and  O_22
REMARK   16  A    between atoms: C_21  and  C_23
REMARK   17  A    between atoms: C_23  and  C_24
REMARK   18  A    between atoms: C_23  and  C_25
REMARK   19  A    between atoms: C_23  and  O_26
REMARK                            x       y       z     vdW  Elec       q    Type
REMARK                         _______ _______ _______ _____ _____    ______ ____
ROOT
ATOM      1  O   LIG A   1      -8.475  -0.665 130.941  0.00  0.00    -0.488 OA
ENDROOT
BRANCH   1   5
ATOM      2  C   LIG A   1      -8.536   2.760 133.332  0.00  0.00    -0.046 A 
ATOM      3  C   LIG A   1      -9.667   2.345 132.614  0.00  0.00    +0.007 A 
ATOM      4  C   LIG A   1      -9.619   1.205 131.806  0.00  0.00    +0.046 A 
ATOM      5  C   LIG A   1      -8.450   0.453 131.730  0.00  0.00    +0.121 A 
ATOM      6  C   LIG A   1      -7.299   0.887 132.389  0.00  0.00    +0.046 A 
ATOM      7  C   LIG A   1      -7.345   2.033 133.192  0.00  0.00    +0.007 A 
BRANCH   2   8
ATOM      8  C   LIG A   1      -8.630   3.938 134.281  0.00  0.00    +0.054 C 
BRANCH   8   9
ATOM      9  C   LIG A   1      -8.124   5.229 133.624  0.00  0.00    +0.109 C 
BRANCH   9  12
ATOM     10  O   LIG A   1      -8.580   5.358 130.795  0.00  0.00    -0.270 OA
ATOM     11  C   LIG A   1      -9.345   5.966 131.555  0.00  0.00    +0.244 C 
ATOM     12  N   LIG A   1      -9.168   5.981 132.921  0.00  0.00    -0.311 N 
ATOM     13  H   LIG A   1      -9.835   6.481 133.496  0.00  0.00    +0.149 HD
BRANCH  11  14
ATOM     14  C   LIG A   1     -10.531   6.690 130.981  0.00  0.00    +0.037 A 
ATOM     15  C   LIG A   1     -11.806   6.706 131.573  0.00  0.00    +0.013 A 
ATOM     16  C   LIG A   1     -12.858   7.422 130.973  0.00  0.00    +0.001 A 
ATOM     17  C   LIG A   1     -12.650   8.133 129.791  0.00  0.00    +0.000 A 
ATOM     18  C   LIG A   1     -11.388   8.138 129.207  0.00  0.00    +0.001 A 
ATOM     19  C   LIG A   1     -10.342   7.420 129.795  0.00  0.00    +0.013 A 
ENDBRANCH  11  14
ENDBRANCH   9  12
ENDBRANCH   8   9
ENDBRANCH   2   8
ENDBRANCH   1   5
BRANCH   1  20
ATOM     20  C   LIG A   1      -7.242  -0.855 130.230  0.00  0.00    +0.257 C 
BRANCH  20  21
ATOM     21  C   LIG A   1      -7.538  -0.701 128.768  0.00  0.00    +0.016 C 
ATOM     22  C   LIG A   1      -7.930  -1.640 127.878  0.00  0.00    -0.033 C 
ATOM     23  C   LIG A   1      -8.184  -3.081 128.256  0.00  0.00    +0.043 C 
BRANCH  22  24
ATOM     24  C   LIG A   1      -8.148  -1.298 126.390  0.00  0.00    +0.205 C 
BRANCH  24  25
ATOM     25  O   LIG A   1      -9.216  -2.157 125.962  0.00  0.00    -0.457 OA
BRANCH  25  26
ATOM     26  C   LIG A   1      -8.999  -2.802 124.777  0.00  0.00    +0.304 C 
ATOM     27  C   LIG A   1      -7.540  -3.136 124.661  0.00  0.00    +0.136 C 
ATOM     28  O   LIG A   1      -9.809  -2.948 123.880  0.00  0.00    -0.251 OA
ENDBRANCH  25  26
ENDBRANCH  24  25
BRANCH  24  29
ATOM     29  C   LIG A   1      -8.529   0.196 126.174  0.00  0.00    +0.083 C 
BRANCH  29  30
ATOM     30  C   LIG A   1      -8.963   0.568 124.746  0.00  0.00    +0.149 C 
BRANCH  30  31
ATOM     31  C   LIG A   1      -8.564   2.014 124.285  0.00  0.00    +0.086 C 
ATOM     32  C   LIG A   1      -7.075   2.325 124.475  0.00  0.00    +0.043 C 
ATOM     33  C   LIG A   1      -8.951   2.314 122.837  0.00  0.00    +0.043 C 
BRANCH  31  34
ATOM     34  O   LIG A   1      -9.289   2.959 125.095  0.00  0.00    -0.387 OA
ATOM     35  H   LIG A   1      -9.020   3.847 124.790  0.00  0.00    +0.210 HD
ENDBRANCH  31  34
ENDBRANCH  30  31
BRANCH  30  36
ATOM     36  O   LIG A   1     -10.391   0.457 124.622  0.00  0.00    -0.389 OA
ATOM     37  H   LIG A   1     -10.768   1.354 124.661  0.00  0.00    +0.210 HD
ENDBRANCH  30  36
ENDBRANCH  29  30
ENDBRANCH  24  29
ENDBRANCH  22  24
ENDBRANCH  20  21
ENDBRANCH   1  20
TORSDOF 15
ENDMDL
MODEL 4
REMARK VINA RESULT:      -7.8      1.862      3.462
REMARK  Name = NuBBE_980
REMARK  19 active torsions:
REMARK  status: ('A' for Active; 'I' for Inactive)
REMARK    1  A    between atoms: C_2  and  C_30
REMARK    2  A    between atoms: N_3  and  C_4
REMARK    3  A    between atoms: C_4  and  C_5
REMARK    4  A    between atoms: C_5  and  C_6
REMARK    5  A    between atoms: C_9  and  O_10
REMARK    6  A    between atoms: O_10  and  C_11
REMARK    7  A    between atoms: C_11  and  C_12
REMARK    8  A    between atoms: C_13  and  C_14
REMARK    9  A    between atoms: C_13  and  C_15
REMARK   10  A    between atoms: C_15  and  O_16
REMARK   11  A    between atoms: C_15  and  C_20
REMARK   12  A    between atoms: O_16  and  C_17
REMARK   13  A    between atoms: C_17  and  C_18
REMARK   14  A    between atoms: C_20  and  C_21
REMARK   15  A    between atoms: C_21  and  O_22
REMARK   16  A    between atoms: C_21  and  C_23
REMARK   17  A    between atoms: C_23  and  C_24
REMARK   18  A    between atoms: C_23  and  C_25
REMARK   19  A    between atoms: C_23  and  O_26
REMARK                            x       y       z     vdW  Elec       q    Type
REMARK                         _______ _______ _______ _____ _____    ______ ____
ROOT
ATOM      1  O   LIG A   1      -7.866  -0.827 130.945  0.00  0.00    -0.488 OA
ENDROOT
BRANCH   1   5
ATOM      2  C   LIG A   1      -8.698   2.632 133.137  0.00  0.00    -0.046 A 
ATOM      3  C   LIG A   1      -9.688   1.982 132.387  0.00  0.00    +0.007 A 
ATOM      4  C   LIG A   1      -9.384   0.836 131.647  0.00  0.00    +0.046 A 
ATOM      5  C   LIG A   1      -8.095   0.312 131.672  0.00  0.00    +0.121 A 
ATOM      6  C   LIG A   1      -7.084   0.981 132.363  0.00  0.00    +0.046 A 
ATOM      7  C   LIG A   1      -7.387   2.134 133.098  0.00  0.00    +0.007 A 
BRANCH   2   8
ATOM      8  C   LIG A   1      -9.063   3.813 134.013  0.00  0.00    +0.054 C 
BRANCH   8   9
ATOM      9  C   LIG A   1      -8.414   5.109 133.507  0.00  0.00    +0.109 C 
BRANCH   9  12
ATOM     10  O   LIG A   1      -8.844   5.147 130.671  0.00  0.00    -0.270 OA
ATOM     11  C   LIG A   1      -9.506   5.907 131.390  0.00  0.00    +0.244 C 
ATOM     12  N   LIG A   1      -9.329   5.971 132.755  0.00  0.00    -0.311 N 
ATOM     13  H   LIG A   1      -9.911   6.600 133.295  0.00  0.00    +0.149 HD
BRANCH  11  14
ATOM     14  C   LIG A   1     -10.567   6.772 130.766  0.00  0.00    +0.037 A 
ATOM     15  C   LIG A   1     -10.377   7.531 129.599  0.00  0.00    +0.013 A 
ATOM     16  C   LIG A   1     -11.430   8.304 129.076  0.00  0.00    +0.001 A 
ATOM     17  C   LIG A   1     -12.678   8.318 129.700  0.00  0.00    +0.000 A 
ATOM     18  C   LIG A   1     -12.881   7.556 130.845  0.00  0.00    +0.001 A 
ATOM     19  C   LIG A   1     -11.834   6.795 131.374  0.00  0.00    +0.013 A 
ENDBRANCH  11  14
ENDBRANCH   9  12
ENDBRANCH   8   9
ENDBRANCH   2   8
ENDBRANCH   1   5
BRANCH   1  20
ATOM     20  C   LIG A   1      -6.860  -0.635 129.939  0.00  0.00    +0.257 C 
BRANCH  20  21
ATOM     21  C   LIG A   1      -7.558  -0.574 128.613  0.00  0.00    +0.016 C 
ATOM     22  C   LIG A   1      -7.996   0.508 127.932  0.00  0.00    -0.033 C 
ATOM     23  C   LIG A   1      -7.801   1.925 128.421  0.00  0.00    +0.043 C 
BRANCH  22  24
ATOM     24  C   LIG A   1      -8.738   0.368 126.588  0.00  0.00    +0.205 C 
BRANCH  24  25
ATOM     25  O   LIG A   1      -7.924   1.072 125.637  0.00  0.00    -0.457 OA
BRANCH  25  26
ATOM     26  C   LIG A   1      -8.581   2.022 124.906  0.00  0.00    +0.304 C 
ATOM     27  C   LIG A   1      -7.636   3.150 124.607  0.00  0.00    +0.136 C 
ATOM     28  O   LIG A   1      -9.775   2.045 124.664  0.00  0.00    -0.251 OA
ENDBRANCH  25  26
ENDBRANCH  24  25
BRANCH  24  29
ATOM     29  C   LIG A   1      -8.915  -1.119 126.159  0.00  0.00    +0.083 C 
BRANCH  29  30
ATOM     30  C   LIG A   1      -7.940  -1.615 125.077  0.00  0.00    +0.149 C 
BRANCH  30  31
ATOM     31  C   LIG A   1      -8.585  -1.875 123.671  0.00  0.00    +0.086 C 
ATOM     32  C   LIG A   1      -7.570  -1.851 122.521  0.00  0.00    +0.043 C 
ATOM     33  C   LIG A   1      -9.378  -3.180 123.602  0.00  0.00    +0.043 C 
BRANCH  31  34
ATOM     34  O   LIG A   1      -9.529  -0.820 123.408  0.00  0.00    -0.387 OA
ATOM     35  H   LIG A   1     -10.142  -0.803 124.167  0.00  0.00    +0.210 HD
ENDBRANCH  31  34
ENDBRANCH  30  31
BRANCH  30  36
ATOM     36  O   LIG A   1      -7.322  -2.843 125.499  0.00  0.00    -0.389 OA
ATOM     37  H   LIG A   1      -6.358  -2.745 125.402  0.00  0.00    +0.210 HD
ENDBRANCH  30  36
ENDBRANCH  29  30
ENDBRANCH  24  29
ENDBRANCH  22  24
ENDBRANCH  20  21
ENDBRANCH   1  20
TORSDOF 15
ENDMDL
MODEL 5
REMARK VINA RESULT:      -7.7      1.904      3.450
REMARK  Name = NuBBE_980
REMARK  19 active torsions:
REMARK  status: ('A' for Active; 'I' for Inactive)
REMARK    1  A    between atoms: C_2  and  C_30
REMARK    2  A    between atoms: N_3  and  C_4
REMARK    3  A    between atoms: C_4  and  C_5
REMARK    4  A    between atoms: C_5  and  C_6
REMARK    5  A    between atoms: C_9  and  O_10
REMARK    6  A    between atoms: O_10  and  C_11
REMARK    7  A    between atoms: C_11  and  C_12
REMARK    8  A    between atoms: C_13  and  C_14
REMARK    9  A    between atoms: C_13  and  C_15
REMARK   10  A    between atoms: C_15  and  O_16
REMARK   11  A    between atoms: C_15  and  C_20
REMARK   12  A    between atoms: O_16  and  C_17
REMARK   13  A    between atoms: C_17  and  C_18
REMARK   14  A    between atoms: C_20  and  C_21
REMARK   15  A    between atoms: C_21  and  O_22
REMARK   16  A    between atoms: C_21  and  C_23
REMARK   17  A    between atoms: C_23  and  C_24
REMARK   18  A    between atoms: C_23  and  C_25
REMARK   19  A    between atoms: C_23  and  O_26
REMARK                            x       y       z     vdW  Elec       q    Type
REMARK                         _______ _______ _______ _____ _____    ______ ____
ROOT
ATOM      1  O   LIG A   1      -7.764  -0.997 131.784  0.00  0.00    -0.488 OA
ENDROOT
BRANCH   1   5
ATOM      2  C   LIG A   1      -8.805   2.824 133.115  0.00  0.00    -0.046 A 
ATOM      3  C   LIG A   1      -9.689   2.045 132.354  0.00  0.00    +0.007 A 
ATOM      4  C   LIG A   1      -9.313   0.776 131.904  0.00  0.00    +0.046 A 
ATOM      5  C   LIG A   1      -8.063   0.261 132.234  0.00  0.00    +0.121 A 
ATOM      6  C   LIG A   1      -7.150   1.047 132.938  0.00  0.00    +0.046 A 
ATOM      7  C   LIG A   1      -7.523   2.322 133.382  0.00  0.00    +0.007 A 
BRANCH   2   8
ATOM      8  C   LIG A   1      -9.260   4.154 133.680  0.00  0.00    +0.054 C 
BRANCH   8   9
ATOM      9  C   LIG A   1      -8.726   5.329 132.849  0.00  0.00    +0.109 C 
BRANCH   9  12
ATOM     10  O   LIG A   1      -8.301   6.938 130.513  0.00  0.00    -0.270 OA
ATOM     11  C   LIG A   1      -9.461   6.697 130.874  0.00  0.00    +0.244 C 
ATOM     12  N   LIG A   1      -9.743   5.964 132.006  0.00  0.00    -0.311 N 
ATOM     13  H   LIG A   1     -10.711   5.784 132.244  0.00  0.00    +0.149 HD
BRANCH  11  14
ATOM     14  C   LIG A   1     -10.609   7.191 130.038  0.00  0.00    +0.037 A 
ATOM     15  C   LIG A   1     -11.955   6.863 130.277  0.00  0.00    +0.013 A 
ATOM     16  C   LIG A   1     -12.969   7.380 129.451  0.00  0.00    +0.001 A 
ATOM     17  C   LIG A   1     -12.656   8.235 128.393  0.00  0.00    +0.000 A 
ATOM     18  C   LIG A   1     -11.329   8.579 128.160  0.00  0.00    +0.001 A 
ATOM     19  C   LIG A   1     -10.317   8.059 128.972  0.00  0.00    +0.013 A 
ENDBRANCH  11  14
ENDBRANCH   9  12
ENDBRANCH   8   9
ENDBRANCH   2   8
ENDBRANCH   1   5
BRANCH   1  20
ATOM     20  C   LIG A   1      -6.655  -0.998 130.873  0.00  0.00    +0.257 C 
BRANCH  20  21
ATOM     21  C   LIG A   1      -7.150  -0.467 129.562  0.00  0.00    +0.016 C 
ATOM     22  C   LIG A   1      -7.630  -1.146 128.496  0.00  0.00    -0.033 C 
ATOM     23  C   LIG A   1      -7.787  -2.650 128.479  0.00  0.00    +0.043 C 
BRANCH  22  24
ATOM     24  C   LIG A   1      -8.056  -0.422 127.204  0.00  0.00    +0.205 C 
BRANCH  24  25
ATOM     25  O   LIG A   1      -7.379   0.844 127.244  0.00  0.00    -0.457 OA
BRANCH  25  26
ATOM     26  C   LIG A   1      -8.169   1.930 126.992  0.00  0.00    +0.304 C 
ATOM     27  C   LIG A   1      -8.091   2.874 128.158  0.00  0.00    +0.136 C 
ATOM     28  O   LIG A   1      -8.940   2.056 126.058  0.00  0.00    -0.251 OA
ENDBRANCH  25  26
ENDBRANCH  24  25
BRANCH  24  29
ATOM     29  C   LIG A   1      -7.660  -1.212 125.922  0.00  0.00    +0.083 C 
BRANCH  29  30
ATOM     30  C   LIG A   1      -8.832  -1.648 125.025  0.00  0.00    +0.149 C 
BRANCH  30  31
ATOM     31  C   LIG A   1      -8.464  -2.689 123.910  0.00  0.00    +0.086 C 
ATOM     32  C   LIG A   1      -7.416  -3.715 124.357  0.00  0.00    +0.043 C 
ATOM     33  C   LIG A   1      -9.678  -3.433 123.355  0.00  0.00    +0.043 C 
BRANCH  31  34
ATOM     34  O   LIG A   1      -7.892  -1.974 122.799  0.00  0.00    -0.387 OA
ATOM     35  H   LIG A   1      -7.653  -2.645 122.132  0.00  0.00    +0.210 HD
ENDBRANCH  31  34
ENDBRANCH  30  31
BRANCH  30  36
ATOM     36  O   LIG A   1      -9.401  -0.502 124.370  0.00  0.00    -0.389 OA
ATOM     37  H   LIG A   1      -8.873  -0.315 123.574  0.00  0.00    +0.210 HD
ENDBRANCH  30  36
ENDBRANCH  29  30
ENDBRANCH  24  29
ENDBRANCH  22  24
ENDBRANCH  20  21
ENDBRANCH   1  20
TORSDOF 15
ENDMDL
MODEL 6
REMARK VINA RESULT:      -7.7      3.417      6.366
REMARK  Name = NuBBE_980
REMARK  19 active torsions:
REMARK  status: ('A' for Active; 'I' for Inactive)
REMARK    1  A    between atoms: C_2  and  C_30
REMARK    2  A    between atoms: N_3  and  C_4
REMARK    3  A    between atoms: C_4  and  C_5
REMARK    4  A    between atoms: C_5  and  C_6
REMARK    5  A    between atoms: C_9  and  O_10
REMARK    6  A    between atoms: O_10  and  C_11
REMARK    7  A    between atoms: C_11  and  C_12
REMARK    8  A    between atoms: C_13  and  C_14
REMARK    9  A    between atoms: C_13  and  C_15
REMARK   10  A    between atoms: C_15  and  O_16
REMARK   11  A    between atoms: C_15  and  C_20
REMARK   12  A    between atoms: O_16  and  C_17
REMARK   13  A    between atoms: C_17  and  C_18
REMARK   14  A    between atoms: C_20  and  C_21
REMARK   15  A    between atoms: C_21  and  O_22
REMARK   16  A    between atoms: C_21  and  C_23
REMARK   17  A    between atoms: C_23  and  C_24
REMARK   18  A    between atoms: C_23  and  C_25
REMARK   19  A    between atoms: C_23  and  O_26
REMARK                            x       y       z     vdW  Elec       q    Type
REMARK                         _______ _______ _______ _____ _____    ______ ____
ROOT
ATOM      1  O   LIG A   1      -9.429  -1.679 124.913  0.00  0.00    -0.488 OA
ENDROOT
BRANCH   1   5
ATOM      2  C   LIG A   1      -7.547  -2.982 128.409  0.00  0.00    -0.046 A 
ATOM      3  C   LIG A   1      -8.573  -3.724 127.807  0.00  0.00    +0.007 A 
ATOM      4  C   LIG A   1      -9.201  -3.260 126.647  0.00  0.00    +0.046 A 
ATOM      5  C   LIG A   1      -8.791  -2.066 126.062  0.00  0.00    +0.121 A 
ATOM      6  C   LIG A   1      -7.814  -1.286 126.682  0.00  0.00    +0.046 A 
ATOM      7  C   LIG A   1      -7.190  -1.747 127.848  0.00  0.00    +0.007 A 
BRANCH   2   8
ATOM      8  C   LIG A   1      -6.808  -3.543 129.607  0.00  0.00    +0.054 C 
BRANCH   8   9
ATOM      9  C   LIG A   1      -7.425  -3.057 130.925  0.00  0.00    +0.109 C 
BRANCH   9  12
ATOM     10  O   LIG A   1      -6.501  -0.490 131.810  0.00  0.00    -0.270 OA
ATOM     11  C   LIG A   1      -7.593  -0.569 131.232  0.00  0.00    +0.244 C 
ATOM     12  N   LIG A   1      -8.118  -1.771 130.811  0.00  0.00    -0.311 N 
ATOM     13  H   LIG A   1      -9.009  -1.774 130.328  0.00  0.00    +0.149 HD
BRANCH  11  14
ATOM     14  C   LIG A   1      -8.366   0.688 130.944  0.00  0.00    +0.037 A 
ATOM     15  C   LIG A   1      -8.233   1.442 129.765  0.00  0.00    +0.013 A 
ATOM     16  C   LIG A   1      -9.007   2.601 129.571  0.00  0.00    +0.001 A 
ATOM     17  C   LIG A   1      -9.925   3.012 130.540  0.00  0.00    +0.000 A 
ATOM     18  C   LIG A   1     -10.077   2.262 131.702  0.00  0.00    +0.001 A 
ATOM     19  C   LIG A   1      -9.302   1.116 131.902  0.00  0.00    +0.013 A 
ENDBRANCH  11  14
ENDBRANCH   9  12
ENDBRANCH   8   9
ENDBRANCH   2   8
ENDBRANCH   1   5
BRANCH   1  20
ATOM     20  C   LIG A   1      -8.517  -1.506 123.818  0.00  0.00    +0.257 C 
BRANCH  20  21
ATOM     21  C   LIG A   1      -8.155  -0.052 123.759  0.00  0.00    +0.016 C 
ATOM     22  C   LIG A   1      -8.853   0.976 123.227  0.00  0.00    -0.033 C 
ATOM     23  C   LIG A   1     -10.218   0.809 122.599  0.00  0.00    +0.043 C 
BRANCH  22  24
ATOM     24  C   LIG A   1      -8.294   2.413 123.223  0.00  0.00    +0.205 C 
BRANCH  24  25
ATOM     25  O   LIG A   1      -9.019   3.093 122.186  0.00  0.00    -0.457 OA
BRANCH  25  26
ATOM     26  C   LIG A   1      -8.245   3.621 121.191  0.00  0.00    +0.304 C 
ATOM     27  C   LIG A   1      -9.115   3.930 120.006  0.00  0.00    +0.136 C 
ATOM     28  O   LIG A   1      -7.029   3.688 121.185  0.00  0.00    -0.251 OA
ENDBRANCH  25  26
ENDBRANCH  24  25
BRANCH  24  29
ATOM     29  C   LIG A   1      -8.494   3.131 124.590  0.00  0.00    +0.083 C 
BRANCH  29  30
ATOM     30  C   LIG A   1      -7.463   4.224 124.919  0.00  0.00    +0.149 C 
BRANCH  30  31
ATOM     31  C   LIG A   1      -6.348   3.801 125.938  0.00  0.00    +0.086 C 
ATOM     32  C   LIG A   1      -6.562   2.402 126.529  0.00  0.00    +0.043 C 
ATOM     33  C   LIG A   1      -4.936   3.881 125.357  0.00  0.00    +0.043 C 
BRANCH  31  34
ATOM     34  O   LIG A   1      -6.377   4.723 127.044  0.00  0.00    -0.387 OA
ATOM     35  H   LIG A   1      -7.293   4.721 127.381  0.00  0.00    +0.210 HD
ENDBRANCH  31  34
ENDBRANCH  30  31
BRANCH  30  36
ATOM     36  O   LIG A   1      -8.127   5.377 125.465  0.00  0.00    -0.389 OA
ATOM     37  H   LIG A   1      -7.474   5.889 125.975  0.00  0.00    +0.210 HD
ENDBRANCH  30  36
ENDBRANCH  29  30
ENDBRANCH  24  29
ENDBRANCH  22  24
ENDBRANCH  20  21
ENDBRANCH   1  20
TORSDOF 15
ENDMDL
MODEL 7
REMARK VINA RESULT:      -7.6      4.678      8.038
REMARK  Name = NuBBE_980
REMARK  19 active torsions:
REMARK  status: ('A' for Active; 'I' for Inactive)
REMARK    1  A    between atoms: C_2  and  C_30
REMARK    2  A    between atoms: N_3  and  C_4
REMARK    3  A    between atoms: C_4  and  C_5
REMARK    4  A    between atoms: C_5  and  C_6
REMARK    5  A    between atoms: C_9  and  O_10
REMARK    6  A    between atoms: O_10  and  C_11
REMARK    7  A    between atoms: C_11  and  C_12
REMARK    8  A    between atoms: C_13  and  C_14
REMARK    9  A    between atoms: C_13  and  C_15
REMARK   10  A    between atoms: C_15  and  O_16
REMARK   11  A    between atoms: C_15  and  C_20
REMARK   12  A    between atoms: O_16  and  C_17
REMARK   13  A    between atoms: C_17  and  C_18
REMARK   14  A    between atoms: C_20  and  C_21
REMARK   15  A    between atoms: C_21  and  O_22
REMARK   16  A    between atoms: C_21  and  C_23
REMARK   17  A    between atoms: C_23  and  C_24
REMARK   18  A    between atoms: C_23  and  C_25
REMARK   19  A    between atoms: C_23  and  O_26
REMARK                            x       y       z     vdW  Elec       q    Type
REMARK                         _______ _______ _______ _____ _____    ______ ____
ROOT
ATOM      1  O   LIG A   1      -7.607  -2.856 127.260  0.00  0.00    -0.488 OA
ENDROOT
BRANCH   1   5
ATOM      2  C   LIG A   1      -7.481   1.212 126.317  0.00  0.00    -0.046 A 
ATOM      3  C   LIG A   1      -6.467   0.600 127.067  0.00  0.00    +0.007 A 
ATOM      4  C   LIG A   1      -6.538  -0.759 127.386  0.00  0.00    +0.046 A 
ATOM      5  C   LIG A   1      -7.608  -1.526 126.935  0.00  0.00    +0.121 A 
ATOM      6  C   LIG A   1      -8.655  -0.920 126.240  0.00  0.00    +0.046 A 
ATOM      7  C   LIG A   1      -8.588   0.444 125.927  0.00  0.00    +0.007 A 
BRANCH   2   8
ATOM      8  C   LIG A   1      -7.343   2.661 125.893  0.00  0.00    +0.054 C 
BRANCH   8   9
ATOM      9  C   LIG A   1      -8.508   3.096 124.995  0.00  0.00    +0.109 C 
BRANCH   9  12
ATOM     10  O   LIG A   1      -9.472   2.029 122.514  0.00  0.00    -0.270 OA
ATOM     11  C   LIG A   1      -8.634   2.940 122.491  0.00  0.00    +0.244 C 
ATOM     12  N   LIG A   1      -8.099   3.477 123.641  0.00  0.00    -0.311 N 
ATOM     13  H   LIG A   1      -7.429   4.232 123.562  0.00  0.00    +0.149 HD
BRANCH  11  14
ATOM     14  C   LIG A   1      -8.204   3.511 121.168  0.00  0.00    +0.037 A 
ATOM     15  C   LIG A   1      -9.088   3.837 120.126  0.00  0.00    +0.013 A 
ATOM     16  C   LIG A   1      -8.600   4.380 118.923  0.00  0.00    +0.001 A 
ATOM     17  C   LIG A   1      -7.234   4.614 118.753  0.00  0.00    +0.000 A 
ATOM     18  C   LIG A   1      -6.353   4.311 119.786  0.00  0.00    +0.001 A 
ATOM     19  C   LIG A   1      -6.834   3.762 120.978  0.00  0.00    +0.013 A 
ENDBRANCH  11  14
ENDBRANCH   9  12
ENDBRANCH   8   9
ENDBRANCH   2   8
ENDBRANCH   1   5
BRANCH   1  20
ATOM     20  C   LIG A   1      -8.550  -3.161 128.298  0.00  0.00    +0.257 C 
BRANCH  20  21
ATOM     21  C   LIG A   1      -7.776  -3.336 129.570  0.00  0.00    +0.016 C 
ATOM     22  C   LIG A   1      -7.587  -2.455 130.578  0.00  0.00    -0.033 C 
ATOM     23  C   LIG A   1      -8.204  -1.075 130.594  0.00  0.00    +0.043 C 
BRANCH  22  24
ATOM     24  C   LIG A   1      -6.715  -2.803 131.800  0.00  0.00    +0.205 C 
BRANCH  24  25
ATOM     25  O   LIG A   1      -7.579  -3.540 132.679  0.00  0.00    -0.457 OA
BRANCH  25  26
ATOM     26  C   LIG A   1      -7.549  -3.141 133.986  0.00  0.00    +0.304 C 
ATOM     27  C   LIG A   1      -7.771  -4.337 134.868  0.00  0.00    +0.136 C 
ATOM     28  O   LIG A   1      -7.512  -1.992 134.387  0.00  0.00    -0.251 OA
ENDBRANCH  25  26
ENDBRANCH  24  25
BRANCH  24  29
ATOM     29  C   LIG A   1      -5.471  -3.658 131.417  0.00  0.00    +0.083 C 
BRANCH  29  30
ATOM     30  C   LIG A   1      -4.125  -2.912 131.433  0.00  0.00    +0.149 C 
BRANCH  30  31
ATOM     31  C   LIG A   1      -3.708  -2.264 130.067  0.00  0.00    +0.086 C 
ATOM     32  C   LIG A   1      -4.265  -3.005 128.846  0.00  0.00    +0.043 C 
ATOM     33  C   LIG A   1      -4.083  -0.786 129.961  0.00  0.00    +0.043 C 
BRANCH  31  34
ATOM     34  O   LIG A   1      -2.273  -2.320 129.962  0.00  0.00    -0.387 OA
ATOM     35  H   LIG A   1      -2.032  -3.266 129.980  0.00  0.00    +0.210 HD
ENDBRANCH  31  34
ENDBRANCH  30  31
BRANCH  30  36
ATOM     36  O   LIG A   1      -3.071  -3.811 131.821  0.00  0.00    -0.389 OA
ATOM     37  H   LIG A   1      -3.468  -4.680 132.006  0.00  0.00    +0.210 HD
ENDBRANCH  30  36
ENDBRANCH  29  30
ENDBRANCH  24  29
ENDBRANCH  22  24
ENDBRANCH  20  21
ENDBRANCH   1  20
TORSDOF 15
ENDMDL
MODEL 8
REMARK VINA RESULT:      -7.5      2.949      7.567
REMARK  Name = NuBBE_980
REMARK  19 active torsions:
REMARK  status: ('A' for Active; 'I' for Inactive)
REMARK    1  A    between atoms: C_2  and  C_30
REMARK    2  A    between atoms: N_3  and  C_4
REMARK    3  A    between atoms: C_4  and  C_5
REMARK    4  A    between atoms: C_5  and  C_6
REMARK    5  A    between atoms: C_9  and  O_10
REMARK    6  A    between atoms: O_10  and  C_11
REMARK    7  A    between atoms: C_11  and  C_12
REMARK    8  A    between atoms: C_13  and  C_14
REMARK    9  A    between atoms: C_13  and  C_15
REMARK   10  A    between atoms: C_15  and  O_16
REMARK   11  A    between atoms: C_15  and  C_20
REMARK   12  A    between atoms: O_16  and  C_17
REMARK   13  A    between atoms: C_17  and  C_18
REMARK   14  A    between atoms: C_20  and  C_21
REMARK   15  A    between atoms: C_21  and  O_22
REMARK   16  A    between atoms: C_21  and  C_23
REMARK   17  A    between atoms: C_23  and  C_24
REMARK   18  A    between atoms: C_23  and  C_25
REMARK   19  A    between atoms: C_23  and  O_26
REMARK                            x       y       z     vdW  Elec       q    Type
REMARK                         _______ _______ _______ _____ _____    ______ ____
ROOT
ATOM      1  O   LIG A   1      -6.696  -1.908 129.594  0.00  0.00    -0.488 OA
ENDROOT
BRANCH   1   5
ATOM      2  C   LIG A   1      -7.837  -3.187 125.783  0.00  0.00    -0.046 A 
ATOM      3  C   LIG A   1      -6.668  -2.441 125.989  0.00  0.00    +0.007 A 
ATOM      4  C   LIG A   1      -6.314  -2.008 127.270  0.00  0.00    +0.046 A 
ATOM      5  C   LIG A   1      -7.110  -2.341 128.362  0.00  0.00    +0.121 A 
ATOM      6  C   LIG A   1      -8.308  -3.029 128.168  0.00  0.00    +0.046 A 
ATOM      7  C   LIG A   1      -8.666  -3.456 126.883  0.00  0.00    +0.007 A 
BRANCH   2   8
ATOM      8  C   LIG A   1      -8.156  -3.734 124.407  0.00  0.00    +0.054 C 
BRANCH   8   9
ATOM      9  C   LIG A   1      -9.216  -2.882 123.696  0.00  0.00    +0.109 C 
BRANCH   9  12
ATOM     10  O   LIG A   1      -9.805  -0.452 125.103  0.00  0.00    -0.270 OA
ATOM     11  C   LIG A   1      -9.059  -0.410 124.116  0.00  0.00    +0.244 C 
ATOM     12  N   LIG A   1      -8.760  -1.528 123.369  0.00  0.00    -0.311 N 
ATOM     13  H   LIG A   1      -8.131  -1.437 122.581  0.00  0.00    +0.149 HD
BRANCH  11  14
ATOM     14  C   LIG A   1      -8.425   0.898 123.729  0.00  0.00    +0.037 A 
ATOM     15  C   LIG A   1      -9.041   1.860 122.911  0.00  0.00    +0.013 A 
ATOM     16  C   LIG A   1      -8.379   3.064 122.609  0.00  0.00    +0.001 A 
ATOM     17  C   LIG A   1      -7.109   3.326 123.126  0.00  0.00    +0.000 A 
ATOM     18  C   LIG A   1      -6.499   2.387 123.951  0.00  0.00    +0.001 A 
ATOM     19  C   LIG A   1      -7.149   1.185 124.245  0.00  0.00    +0.013 A 
ENDBRANCH  11  14
ENDBRANCH   9  12
ENDBRANCH   8   9
ENDBRANCH   2   8
ENDBRANCH   1   5
BRANCH   1  20
ATOM     20  C   LIG A   1      -7.755  -1.275 130.330  0.00  0.00    +0.257 C 
BRANCH  20  21
ATOM     21  C   LIG A   1      -7.853   0.141 129.846  0.00  0.00    +0.016 C 
ATOM     22  C   LIG A   1      -8.520   1.181 130.393  0.00  0.00    -0.033 C 
ATOM     23  C   LIG A   1      -9.292   1.076 131.689  0.00  0.00    +0.043 C 
BRANCH  22  24
ATOM     24  C   LIG A   1      -8.540   2.569 129.722  0.00  0.00    +0.205 C 
BRANCH  24  25
ATOM     25  O   LIG A   1      -8.815   2.309 128.336  0.00  0.00    -0.457 OA
BRANCH  25  26
ATOM     26  C   LIG A   1      -8.049   3.018 127.453  0.00  0.00    +0.304 C 
ATOM     27  C   LIG A   1      -6.640   3.084 127.969  0.00  0.00    +0.136 C 
ATOM     28  O   LIG A   1      -8.455   3.637 126.486  0.00  0.00    -0.251 OA
ENDBRANCH  25  26
ENDBRANCH  24  25
BRANCH  24  29
ATOM     29  C   LIG A   1      -9.627   3.505 130.327  0.00  0.00    +0.083 C 
BRANCH  29  30
ATOM     30  C   LIG A   1      -9.437   5.006 130.046  0.00  0.00    +0.149 C 
BRANCH  30  31
ATOM     31  C   LIG A   1      -9.071   5.876 131.300  0.00  0.00    +0.086 C 
ATOM     32  C   LIG A   1      -8.912   5.054 132.585  0.00  0.00    +0.043 C 
ATOM     33  C   LIG A   1      -7.817   6.727 131.099  0.00  0.00    +0.043 C 
BRANCH  31  34
ATOM     34  O   LIG A   1     -10.148   6.802 131.535  0.00  0.00    -0.387 OA
ATOM     35  H   LIG A   1     -10.964   6.359 131.230  0.00  0.00    +0.210 HD
ENDBRANCH  31  34
ENDBRANCH  30  31
BRANCH  30  36
ATOM     36  O   LIG A   1     -10.639   5.556 129.480  0.00  0.00    -0.389 OA
ATOM     37  H   LIG A   1     -10.996   6.211 130.106  0.00  0.00    +0.210 HD
ENDBRANCH  30  36
ENDBRANCH  29  30
ENDBRANCH  24  29
ENDBRANCH  22  24
ENDBRANCH  20  21
ENDBRANCH   1  20
TORSDOF 15
ENDMDL
MODEL 9
REMARK VINA RESULT:      -7.5      2.420      8.884
REMARK  Name = NuBBE_980
REMARK  19 active torsions:
REMARK  status: ('A' for Active; 'I' for Inactive)
REMARK    1  A    between atoms: C_2  and  C_30
REMARK    2  A    between atoms: N_3  and  C_4
REMARK    3  A    between atoms: C_4  and  C_5
REMARK    4  A    between atoms: C_5  and  C_6
REMARK    5  A    between atoms: C_9  and  O_10
REMARK    6  A    between atoms: O_10  and  C_11
REMARK    7  A    between atoms: C_11  and  C_12
REMARK    8  A    between atoms: C_13  and  C_14
REMARK    9  A    between atoms: C_13  and  C_15
REMARK   10  A    between atoms: C_15  and  O_16
REMARK   11  A    between atoms: C_15  and  C_20
REMARK   12  A    between atoms: O_16  and  C_17
REMARK   13  A    between atoms: C_17  and  C_18
REMARK   14  A    between atoms: C_20  and  C_21
REMARK   15  A    between atoms: C_21  and  O_22
REMARK   16  A    between atoms: C_21  and  C_23
REMARK   17  A    between atoms: C_23  and  C_24
REMARK   18  A    between atoms: C_23  and  C_25
REMARK   19  A    between atoms: C_23  and  O_26
REMARK                            x       y       z     vdW  Elec       q    Type
REMARK                         _______ _______ _______ _____ _____    ______ ____
ROOT
ATOM      1  O   LIG A   1      -8.486   3.586 125.531  0.00  0.00    -0.488 OA
ENDROOT
BRANCH   1   5
ATOM      2  C   LIG A   1      -7.553  -0.039 123.673  0.00  0.00    -0.046 A 
ATOM      3  C   LIG A   1      -8.834   0.525 123.583  0.00  0.00    +0.007 A 
ATOM      4  C   LIG A   1      -9.130   1.730 124.227  0.00  0.00    +0.046 A 
ATOM      5  C   LIG A   1      -8.141   2.398 124.943  0.00  0.00    +0.121 A 
ATOM      6  C   LIG A   1      -6.880   1.821 125.094  0.00  0.00    +0.046 A 
ATOM      7  C   LIG A   1      -6.586   0.610 124.455  0.00  0.00    +0.007 A 
BRANCH   2   8
ATOM      8  C   LIG A   1      -7.219  -1.291 122.889  0.00  0.00    +0.054 C 
BRANCH   8   9
ATOM      9  C   LIG A   1      -7.689  -2.555 123.623  0.00  0.00    +0.109 C 
BRANCH   9  12
ATOM     10  O   LIG A   1      -9.764  -2.281 125.585  0.00  0.00    -0.270 OA
ATOM     11  C   LIG A   1      -8.590  -2.384 125.963  0.00  0.00    +0.244 C 
ATOM     12  N   LIG A   1      -7.537  -2.481 125.079  0.00  0.00    -0.311 N 
ATOM     13  H   LIG A   1      -6.598  -2.579 125.445  0.00  0.00    +0.149 HD
BRANCH  11  14
ATOM     14  C   LIG A   1      -8.292  -2.438 127.436  0.00  0.00    +0.037 A 
ATOM     15  C   LIG A   1      -8.491  -3.575 128.238  0.00  0.00    +0.013 A 
ATOM     16  C   LIG A   1      -8.173  -3.542 129.608  0.00  0.00    +0.001 A 
ATOM     17  C   LIG A   1      -7.646  -2.386 130.187  0.00  0.00    +0.000 A 
ATOM     18  C   LIG A   1      -7.429  -1.262 129.397  0.00  0.00    +0.001 A 
ATOM     19  C   LIG A   1      -7.753  -1.288 128.037  0.00  0.00    +0.013 A 
ENDBRANCH  11  14
ENDBRANCH   9  12
ENDBRANCH   8   9
ENDBRANCH   2   8
ENDBRANCH   1   5
BRANCH   1  20
ATOM     20  C   LIG A   1      -7.539   3.992 126.531  0.00  0.00    +0.257 C 
BRANCH  20  21
ATOM     21  C   LIG A   1      -8.265   4.046 127.841  0.00  0.00    +0.016 C 
ATOM     22  C   LIG A   1      -8.030   3.345 128.973  0.00  0.00    -0.033 C 
ATOM     23  C   LIG A   1      -6.894   2.358 129.111  0.00  0.00    +0.043 C 
BRANCH  22  24
ATOM     24  C   LIG A   1      -8.921   3.507 130.221  0.00  0.00    +0.205 C 
BRANCH  24  25
ATOM     25  O   LIG A   1      -8.131   3.007 131.311  0.00  0.00    -0.457 OA
BRANCH  25  26
ATOM     26  C   LIG A   1      -8.847   2.504 132.361  0.00  0.00    +0.304 C 
ATOM     27  C   LIG A   1      -9.653   1.328 131.885  0.00  0.00    +0.136 C 
ATOM     28  O   LIG A   1      -8.954   3.007 133.465  0.00  0.00    -0.251 OA
ENDBRANCH  25  26
ENDBRANCH  24  25
BRANCH  24  29
ATOM     29  C   LIG A   1      -9.323   4.990 130.474  0.00  0.00    +0.083 C 
BRANCH  29  30
ATOM     30  C   LIG A   1     -10.825   5.239 130.700  0.00  0.00    +0.149 C 
BRANCH  30  31
ATOM     31  C   LIG A   1     -11.424   6.452 129.906  0.00  0.00    +0.086 C 
ATOM     32  C   LIG A   1     -12.366   7.323 130.746  0.00  0.00    +0.043 C 
ATOM     33  C   LIG A   1     -10.357   7.345 129.273  0.00  0.00    +0.043 C 
BRANCH  31  34
ATOM     34  O   LIG A   1     -12.208   5.932 128.815  0.00  0.00    -0.387 OA
ATOM     35  H   LIG A   1     -12.774   5.232 129.192  0.00  0.00    +0.210 HD
ENDBRANCH  31  34
ENDBRANCH  30  31
BRANCH  30  36
ATOM     36  O   LIG A   1     -11.079   5.471 132.096  0.00  0.00    -0.389 OA
ATOM     37  H   LIG A   1     -10.501   4.880 132.611  0.00  0.00    +0.210 HD
ENDBRANCH  30  36
ENDBRANCH  29  30
ENDBRANCH  24  29
ENDBRANCH  22  24
ENDBRANCH  20  21
ENDBRANCH   1  20
TORSDOF 15
ENDMDL
