MODEL 1
REMARK VINA RESULT:      -7.7      0.000      0.000
REMARK  Name = NuBBE_446
REMARK  12 active torsions:
REMARK  status: ('A' for Active; 'I' for Inactive)
REMARK    1  A    between atoms: C_4  and  O_5
REMARK    2  A    between atoms: C_7  and  O_8
REMARK    3  A    between atoms: C_12  and  C_13
REMARK    4  A    between atoms: C_16  and  O_17
REMARK    5  A    between atoms: C_18  and  O_19
REMARK    6  A    between atoms: O_19  and  C_20
REMARK    7  A    between atoms: C_22  and  O_23
REMARK    8  A    between atoms: O_23  and  C_24
REMARK    9  A    between atoms: C_26  and  O_28
REMARK   10  A    between atoms: C_30  and  C_32
REMARK   11  A    between atoms: C_33  and  O_35
REMARK   12  A    between atoms: C_36  and  O_38
REMARK                            x       y       z     vdW  Elec       q    Type
REMARK                         _______ _______ _______ _____ _____    ______ ____
ROOT
ATOM      1  O   LIG A   1      -9.829   4.898 132.859  0.00  0.00    -0.283 OA
ATOM      2  C   LIG A   1      -9.168   5.596 132.112  0.00  0.00    +0.238 A 
ATOM      3  C   LIG A   1      -9.879   6.513 131.207  0.00  0.00    +0.109 A 
ATOM      4  C   LIG A   1     -11.270   6.635 131.213  0.00  0.00    +0.135 A 
ATOM      5  C   LIG A   1     -11.909   7.409 130.238  0.00  0.00    +0.091 A 
ATOM      6  C   LIG A   1     -11.140   8.063 129.281  0.00  0.00    +0.124 A 
ATOM      7  C   LIG A   1      -9.754   7.988 129.309  0.00  0.00    +0.092 A 
ATOM      8  C   LIG A   1      -9.142   7.206 130.285  0.00  0.00    +0.146 A 
ATOM      9  O   LIG A   1      -7.777   7.181 130.268  0.00  0.00    -0.451 OA
ATOM     10  C   LIG A   1      -7.092   6.299 131.088  0.00  0.00    +0.181 A 
ATOM     11  C   LIG A   1      -7.671   5.520 132.030  0.00  0.00    +0.214 A 
ENDROOT
BRANCH  10  12
ATOM     12  C   LIG A   1      -5.639   6.359 130.736  0.00  0.00    +0.025 A 
ATOM     13  C   LIG A   1      -4.766   7.126 131.534  0.00  0.00    +0.015 A 
ATOM     14  C   LIG A   1      -3.389   7.145 131.308  0.00  0.00    +0.050 A 
ATOM     15  C   LIG A   1      -2.867   6.420 130.246  0.00  0.00    +0.159 A 
ATOM     16  C   LIG A   1      -3.707   5.649 129.432  0.00  0.00    +0.162 A 
ATOM     17  C   LIG A   1      -5.085   5.598 129.707  0.00  0.00    +0.061 A 
BRANCH  15  18
ATOM     18  O   LIG A   1      -1.525   6.473 129.987  0.00  0.00    -0.503 OA
ATOM     19  H   LIG A   1      -1.045   6.559 130.827  0.00  0.00    +0.292 HD
ENDBRANCH  15  18
BRANCH  16  20
ATOM     20  O   LIG A   1      -3.124   4.941 128.412  0.00  0.00    -0.491 OA
ATOM     21  C   LIG A   1      -3.377   3.539 128.440  0.00  0.00    +0.277 C 
ENDBRANCH  16  20
ENDBRANCH  10  12
BRANCH   4  22
ATOM     22  O   LIG A   1     -12.077   6.031 132.135  0.00  0.00    -0.506 OA
ATOM     23  H   LIG A   1     -12.955   6.477 132.108  0.00  0.00    +0.292 HD
ENDBRANCH   4  22
BRANCH   6  24
ATOM     24  O   LIG A   1     -11.713   8.797 128.286  0.00  0.00    -0.506 OA
ATOM     25  H   LIG A   1     -11.985   9.657 128.647  0.00  0.00    +0.292 HD
ENDBRANCH   6  24
BRANCH  11  26
ATOM     26  O   LIG A   1      -6.960   4.601 132.807  0.00  0.00    -0.453 OA
BRANCH  26  27
ATOM     27  C   LIG A   1      -6.595   3.325 132.233  0.00  0.00    +0.340 C 
ATOM     28  C   LIG A   1      -7.058   2.188 133.188  0.00  0.00    +0.214 C 
ATOM     29  O   LIG A   1      -7.230   3.171 130.948  0.00  0.00    -0.334 OA
ATOM     30  C   LIG A   1      -6.824   1.936 130.328  0.00  0.00    +0.150 C 
ATOM     31  C   LIG A   1      -7.313   1.924 128.886  0.00  0.00    +0.040 C 
ATOM     32  C   LIG A   1      -7.356   0.737 131.125  0.00  0.00    +0.174 C 
ATOM     33  C   LIG A   1      -6.825   0.806 132.563  0.00  0.00    +0.180 C 
BRANCH  28  34
ATOM     34  O   LIG A   1      -8.474   2.283 133.476  0.00  0.00    -0.383 OA
ATOM     35  H   LIG A   1      -8.694   1.494 134.008  0.00  0.00    +0.210 HD
ENDBRANCH  28  34
BRANCH  32  36
ATOM     36  O   LIG A   1      -6.942  -0.499 130.533  0.00  0.00    -0.387 OA
ATOM     37  H   LIG A   1      -7.765  -1.003 130.371  0.00  0.00    +0.210 HD
ENDBRANCH  32  36
BRANCH  33  38
ATOM     38  O   LIG A   1      -7.492  -0.213 133.332  0.00  0.00    -0.386 OA
ATOM     39  H   LIG A   1      -8.427   0.078 133.377  0.00  0.00    +0.210 HD
ENDBRANCH  33  38
ENDBRANCH  26  27
ENDBRANCH  11  26
TORSDOF 10
ENDMDL
MODEL 2
REMARK VINA RESULT:      -7.6      3.096      6.869
REMARK  Name = NuBBE_446
REMARK  12 active torsions:
REMARK  status: ('A' for Active; 'I' for Inactive)
REMARK    1  A    between atoms: C_4  and  O_5
REMARK    2  A    between atoms: C_7  and  O_8
REMARK    3  A    between atoms: C_12  and  C_13
REMARK    4  A    between atoms: C_16  and  O_17
REMARK    5  A    between atoms: C_18  and  O_19
REMARK    6  A    between atoms: O_19  and  C_20
REMARK    7  A    between atoms: C_22  and  O_23
REMARK    8  A    between atoms: O_23  and  C_24
REMARK    9  A    between atoms: C_26  and  O_28
REMARK   10  A    between atoms: C_30  and  C_32
REMARK   11  A    between atoms: C_33  and  O_35
REMARK   12  A    between atoms: C_36  and  O_38
REMARK                            x       y       z     vdW  Elec       q    Type
REMARK                         _______ _______ _______ _____ _____    ______ ____
ROOT
ATOM      1  O   LIG A   1      -8.509   5.057 125.824  0.00  0.00    -0.283 OA
ATOM      2  C   LIG A   1      -8.133   4.062 126.417  0.00  0.00    +0.238 A 
ATOM      3  C   LIG A   1      -7.908   2.834 125.637  0.00  0.00    +0.109 A 
ATOM      4  C   LIG A   1      -8.069   2.791 124.252  0.00  0.00    +0.135 A 
ATOM      5  C   LIG A   1      -7.987   1.570 123.575  0.00  0.00    +0.091 A 
ATOM      6  C   LIG A   1      -7.727   0.411 124.298  0.00  0.00    +0.124 A 
ATOM      7  C   LIG A   1      -7.511   0.461 125.668  0.00  0.00    +0.092 A 
ATOM      8  C   LIG A   1      -7.605   1.687 126.321  0.00  0.00    +0.146 A 
ATOM      9  O   LIG A   1      -7.371   1.673 127.665  0.00  0.00    -0.451 OA
ATOM     10  C   LIG A   1      -7.611   2.810 128.420  0.00  0.00    +0.181 A 
ATOM     11  C   LIG A   1      -7.949   4.016 127.906  0.00  0.00    +0.214 A 
ENDROOT
BRANCH  10  12
ATOM     12  C   LIG A   1      -7.445   2.462 129.865  0.00  0.00    +0.025 A 
ATOM     13  C   LIG A   1      -8.395   1.626 130.487  0.00  0.00    +0.015 A 
ATOM     14  C   LIG A   1      -8.243   1.194 131.806  0.00  0.00    +0.050 A 
ATOM     15  C   LIG A   1      -7.147   1.628 132.537  0.00  0.00    +0.159 A 
ATOM     16  C   LIG A   1      -6.185   2.460 131.950  0.00  0.00    +0.162 A 
ATOM     17  C   LIG A   1      -6.326   2.842 130.605  0.00  0.00    +0.061 A 
BRANCH  15  18
ATOM     18  O   LIG A   1      -7.016   1.250 133.845  0.00  0.00    -0.503 OA
ATOM     19  H   LIG A   1      -6.313   0.582 133.912  0.00  0.00    +0.292 HD
ENDBRANCH  15  18
BRANCH  16  20
ATOM     20  O   LIG A   1      -5.116   2.836 132.723  0.00  0.00    -0.491 OA
ATOM     21  C   LIG A   1      -4.680   4.177 132.523  0.00  0.00    +0.277 C 
ENDBRANCH  16  20
ENDBRANCH  10  12
BRANCH   4  22
ATOM     22  O   LIG A   1      -8.310   3.896 123.485  0.00  0.00    -0.506 OA
ATOM     23  H   LIG A   1      -9.197   4.249 123.730  0.00  0.00    +0.292 HD
ENDBRANCH   4  22
BRANCH   6  24
ATOM     24  O   LIG A   1      -7.676  -0.810 123.694  0.00  0.00    -0.506 OA
ATOM     25  H   LIG A   1      -8.479  -1.306 123.920  0.00  0.00    +0.292 HD
ENDBRANCH   6  24
BRANCH  11  26
ATOM     26  O   LIG A   1      -8.236   5.133 128.696  0.00  0.00    -0.453 OA
BRANCH  26  27
ATOM     27  C   LIG A   1      -9.404   5.113 129.547  0.00  0.00    +0.340 C 
ATOM     28  C   LIG A   1      -9.007   5.610 130.966  0.00  0.00    +0.214 C 
ATOM     29  O   LIG A   1     -10.421   5.973 128.995  0.00  0.00    -0.334 OA
ATOM     30  C   LIG A   1     -11.620   5.913 129.793  0.00  0.00    +0.150 C 
ATOM     31  C   LIG A   1     -12.740   6.631 129.053  0.00  0.00    +0.040 C 
ATOM     32  C   LIG A   1     -11.369   6.515 131.182  0.00  0.00    +0.174 C 
ATOM     33  C   LIG A   1     -10.236   5.746 131.873  0.00  0.00    +0.180 C 
BRANCH  28  34
ATOM     34  O   LIG A   1      -8.381   6.915 130.912  0.00  0.00    -0.383 OA
ATOM     35  H   LIG A   1      -8.893   7.433 130.261  0.00  0.00    +0.210 HD
ENDBRANCH  28  34
BRANCH  32  36
ATOM     36  O   LIG A   1     -12.546   6.443 131.994  0.00  0.00    -0.387 OA
ATOM     37  H   LIG A   1     -12.789   5.495 132.023  0.00  0.00    +0.210 HD
ENDBRANCH  32  36
BRANCH  33  38
ATOM     38  O   LIG A   1      -9.894   6.450 133.082  0.00  0.00    -0.386 OA
ATOM     39  H   LIG A   1     -10.746   6.572 133.551  0.00  0.00    +0.210 HD
ENDBRANCH  33  38
ENDBRANCH  26  27
ENDBRANCH  11  26
TORSDOF 10
ENDMDL
MODEL 3
REMARK VINA RESULT:      -7.6      4.084      7.511
REMARK  Name = NuBBE_446
REMARK  12 active torsions:
REMARK  status: ('A' for Active; 'I' for Inactive)
REMARK    1  A    between atoms: C_4  and  O_5
REMARK    2  A    between atoms: C_7  and  O_8
REMARK    3  A    between atoms: C_12  and  C_13
REMARK    4  A    between atoms: C_16  and  O_17
REMARK    5  A    between atoms: C_18  and  O_19
REMARK    6  A    between atoms: O_19  and  C_20
REMARK    7  A    between atoms: C_22  and  O_23
REMARK    8  A    between atoms: O_23  and  C_24
REMARK    9  A    between atoms: C_26  and  O_28
REMARK   10  A    between atoms: C_30  and  C_32
REMARK   11  A    between atoms: C_33  and  O_35
REMARK   12  A    between atoms: C_36  and  O_38
REMARK                            x       y       z     vdW  Elec       q    Type
REMARK                         _______ _______ _______ _____ _____    ______ ____
ROOT
ATOM      1  O   LIG A   1      -8.592   3.022 127.988  0.00  0.00    -0.283 OA
ATOM      2  C   LIG A   1      -8.522   2.253 128.930  0.00  0.00    +0.238 A 
ATOM      3  C   LIG A   1      -8.965   2.730 130.249  0.00  0.00    +0.109 A 
ATOM      4  C   LIG A   1      -9.497   4.006 130.441  0.00  0.00    +0.135 A 
ATOM      5  C   LIG A   1      -9.768   4.465 131.734  0.00  0.00    +0.091 A 
ATOM      6  C   LIG A   1      -9.515   3.629 132.816  0.00  0.00    +0.124 A 
ATOM      7  C   LIG A   1      -9.040   2.340 132.623  0.00  0.00    +0.092 A 
ATOM      8  C   LIG A   1      -8.772   1.908 131.327  0.00  0.00    +0.146 A 
ATOM      9  O   LIG A   1      -8.317   0.628 131.201  0.00  0.00    -0.451 OA
ATOM     10  C   LIG A   1      -7.863   0.173 129.973  0.00  0.00    +0.181 A 
ATOM     11  C   LIG A   1      -7.950   0.870 128.817  0.00  0.00    +0.214 A 
ENDROOT
BRANCH  10  12
ATOM     12  C   LIG A   1      -7.264  -1.185 130.164  0.00  0.00    +0.025 A 
ATOM     13  C   LIG A   1      -7.962  -2.319 129.700  0.00  0.00    +0.015 A 
ATOM     14  C   LIG A   1      -7.411  -3.600 129.768  0.00  0.00    +0.050 A 
ATOM     15  C   LIG A   1      -6.159  -3.768 130.343  0.00  0.00    +0.159 A 
ATOM     16  C   LIG A   1      -5.440  -2.663 130.815  0.00  0.00    +0.162 A 
ATOM     17  C   LIG A   1      -5.987  -1.374 130.690  0.00  0.00    +0.061 A 
BRANCH  15  18
ATOM     18  O   LIG A   1      -5.634  -5.026 130.459  0.00  0.00    -0.503 OA
ATOM     19  H   LIG A   1      -6.108  -5.622 129.857  0.00  0.00    +0.292 HD
ENDBRANCH  15  18
BRANCH  16  20
ATOM     20  O   LIG A   1      -4.200  -2.897 131.354  0.00  0.00    -0.491 OA
ATOM     21  C   LIG A   1      -3.483  -1.725 131.728  0.00  0.00    +0.277 C 
ENDBRANCH  16  20
ENDBRANCH  10  12
BRANCH   4  22
ATOM     22  O   LIG A   1      -9.782   4.867 129.418  0.00  0.00    -0.506 OA
ATOM     23  H   LIG A   1     -10.746   4.805 129.229  0.00  0.00    +0.292 HD
ENDBRANCH   4  22
BRANCH   6  24
ATOM     24  O   LIG A   1      -9.724   4.041 134.099  0.00  0.00    -0.506 OA
ATOM     25  H   LIG A   1     -10.262   3.376 134.559  0.00  0.00    +0.292 HD
ENDBRANCH   6  24
BRANCH  11  26
ATOM     26  O   LIG A   1      -7.436   0.407 127.602  0.00  0.00    -0.453 OA
BRANCH  26  27
ATOM     27  C   LIG A   1      -8.334  -0.192 126.639  0.00  0.00    +0.340 C 
ATOM     28  C   LIG A   1      -8.360   0.687 125.356  0.00  0.00    +0.214 C 
ATOM     29  O   LIG A   1      -7.880  -1.520 126.312  0.00  0.00    -0.334 OA
ATOM     30  C   LIG A   1      -8.800  -2.160 125.406  0.00  0.00    +0.150 C 
ATOM     31  C   LIG A   1      -8.424  -3.629 125.279  0.00  0.00    +0.040 C 
ATOM     32  C   LIG A   1      -8.795  -1.445 124.048  0.00  0.00    +0.174 C 
ATOM     33  C   LIG A   1      -9.185   0.025 124.244  0.00  0.00    +0.180 C 
BRANCH  28  34
ATOM     34  O   LIG A   1      -7.027   0.885 124.825  0.00  0.00    -0.383 OA
ATOM     35  H   LIG A   1      -6.422   0.842 125.590  0.00  0.00    +0.210 HD
ENDBRANCH  28  34
BRANCH  32  36
ATOM     36  O   LIG A   1      -9.722  -2.056 123.142  0.00  0.00    -0.387 OA
ATOM     37  H   LIG A   1     -10.009  -1.343 122.537  0.00  0.00    +0.210 HD
ENDBRANCH  32  36
BRANCH  33  38
ATOM     38  O   LIG A   1      -8.984   0.710 122.993  0.00  0.00    -0.386 OA
ATOM     39  H   LIG A   1      -8.496   0.070 122.433  0.00  0.00    +0.210 HD
ENDBRANCH  33  38
ENDBRANCH  26  27
ENDBRANCH  11  26
TORSDOF 10
ENDMDL
MODEL 4
REMARK VINA RESULT:      -7.4      3.258      5.622
REMARK  Name = NuBBE_446
REMARK  12 active torsions:
REMARK  status: ('A' for Active; 'I' for Inactive)
REMARK    1  A    between atoms: C_4  and  O_5
REMARK    2  A    between atoms: C_7  and  O_8
REMARK    3  A    between atoms: C_12  and  C_13
REMARK    4  A    between atoms: C_16  and  O_17
REMARK    5  A    between atoms: C_18  and  O_19
REMARK    6  A    between atoms: O_19  and  C_20
REMARK    7  A    between atoms: C_22  and  O_23
REMARK    8  A    between atoms: O_23  and  C_24
REMARK    9  A    between atoms: C_26  and  O_28
REMARK   10  A    between atoms: C_30  and  C_32
REMARK   11  A    between atoms: C_33  and  O_35
REMARK   12  A    between atoms: C_36  and  O_38
REMARK                            x       y       z     vdW  Elec       q    Type
REMARK                         _______ _______ _______ _____ _____    ______ ____
ROOT
ATOM      1  O   LIG A   1      -8.670   2.848 127.252  0.00  0.00    -0.283 OA
ATOM      2  C   LIG A   1      -7.635   3.434 126.990  0.00  0.00    +0.238 A 
ATOM      3  C   LIG A   1      -7.282   3.619 125.573  0.00  0.00    +0.109 A 
ATOM      4  C   LIG A   1      -8.110   3.186 124.536  0.00  0.00    +0.135 A 
ATOM      5  C   LIG A   1      -7.666   3.252 123.212  0.00  0.00    +0.091 A 
ATOM      6  C   LIG A   1      -6.402   3.768 122.946  0.00  0.00    +0.124 A 
ATOM      7  C   LIG A   1      -5.601   4.251 123.971  0.00  0.00    +0.092 A 
ATOM      8  C   LIG A   1      -6.062   4.168 125.282  0.00  0.00    +0.146 A 
ATOM      9  O   LIG A   1      -5.234   4.669 126.245  0.00  0.00    -0.451 OA
ATOM     10  C   LIG A   1      -5.533   4.474 127.583  0.00  0.00    +0.181 A 
ATOM     11  C   LIG A   1      -6.680   3.920 128.041  0.00  0.00    +0.214 A 
ENDROOT
BRANCH  10  12
ATOM     12  C   LIG A   1      -4.380   4.963 128.401  0.00  0.00    +0.025 A 
ATOM     13  C   LIG A   1      -3.643   6.081 127.957  0.00  0.00    +0.015 A 
ATOM     14  C   LIG A   1      -2.617   6.636 128.723  0.00  0.00    +0.050 A 
ATOM     15  C   LIG A   1      -2.287   6.051 129.937  0.00  0.00    +0.159 A 
ATOM     16  C   LIG A   1      -2.997   4.939 130.407  0.00  0.00    +0.162 A 
ATOM     17  C   LIG A   1      -4.063   4.425 129.648  0.00  0.00    +0.061 A 
BRANCH  15  18
ATOM     18  O   LIG A   1      -1.250   6.559 130.671  0.00  0.00    -0.503 OA
ATOM     19  H   LIG A   1      -0.915   7.359 130.233  0.00  0.00    +0.292 HD
ENDBRANCH  15  18
BRANCH  16  20
ATOM     20  O   LIG A   1      -2.632   4.422 131.624  0.00  0.00    -0.491 OA
ATOM     21  C   LIG A   1      -3.679   4.377 132.589  0.00  0.00    +0.277 C 
ENDBRANCH  16  20
ENDBRANCH  10  12
BRANCH   4  22
ATOM     22  O   LIG A   1      -9.366   2.685 124.732  0.00  0.00    -0.506 OA
ATOM     23  H   LIG A   1      -9.416   2.341 125.654  0.00  0.00    +0.292 HD
ENDBRANCH   4  22
BRANCH   6  24
ATOM     24  O   LIG A   1      -5.905   3.819 121.678  0.00  0.00    -0.506 OA
ATOM     25  H   LIG A   1      -4.952   3.631 121.706  0.00  0.00    +0.292 HD
ENDBRANCH   6  24
BRANCH  11  26
ATOM     26  O   LIG A   1      -6.932   3.688 129.396  0.00  0.00    -0.453 OA
BRANCH  26  27
ATOM     27  C   LIG A   1      -7.648   4.684 130.161  0.00  0.00    +0.340 C 
ATOM     28  C   LIG A   1      -9.176   4.442 130.005  0.00  0.00    +0.214 C 
ATOM     29  O   LIG A   1      -7.277   4.589 131.551  0.00  0.00    -0.334 OA
ATOM     30  C   LIG A   1      -7.928   5.619 132.319  0.00  0.00    +0.150 C 
ATOM     31  C   LIG A   1      -7.330   5.642 133.719  0.00  0.00    +0.040 C 
ATOM     32  C   LIG A   1      -9.445   5.389 132.346  0.00  0.00    +0.174 C 
ATOM     33  C   LIG A   1      -9.984   5.381 130.910  0.00  0.00    +0.180 C 
BRANCH  28  34
ATOM     34  O   LIG A   1      -9.537   3.090 130.379  0.00  0.00    -0.383 OA
ATOM     35  H   LIG A   1      -8.908   2.505 129.914  0.00  0.00    +0.210 HD
ENDBRANCH  28  34
BRANCH  32  36
ATOM     36  O   LIG A   1     -10.109   6.419 133.088  0.00  0.00    -0.387 OA
ATOM     37  H   LIG A   1      -9.767   6.348 134.002  0.00  0.00    +0.210 HD
ENDBRANCH  32  36
BRANCH  33  38
ATOM     38  O   LIG A   1     -11.364   4.972 130.955  0.00  0.00    -0.386 OA
ATOM     39  H   LIG A   1     -11.723   5.201 130.072  0.00  0.00    +0.210 HD
ENDBRANCH  33  38
ENDBRANCH  26  27
ENDBRANCH  11  26
TORSDOF 10
ENDMDL
MODEL 5
REMARK VINA RESULT:      -7.4      4.038      7.497
REMARK  Name = NuBBE_446
REMARK  12 active torsions:
REMARK  status: ('A' for Active; 'I' for Inactive)
REMARK    1  A    between atoms: C_4  and  O_5
REMARK    2  A    between atoms: C_7  and  O_8
REMARK    3  A    between atoms: C_12  and  C_13
REMARK    4  A    between atoms: C_16  and  O_17
REMARK    5  A    between atoms: C_18  and  O_19
REMARK    6  A    between atoms: O_19  and  C_20
REMARK    7  A    between atoms: C_22  and  O_23
REMARK    8  A    between atoms: O_23  and  C_24
REMARK    9  A    between atoms: C_26  and  O_28
REMARK   10  A    between atoms: C_30  and  C_32
REMARK   11  A    between atoms: C_33  and  O_35
REMARK   12  A    between atoms: C_36  and  O_38
REMARK                            x       y       z     vdW  Elec       q    Type
REMARK                         _______ _______ _______ _____ _____    ______ ____
ROOT
ATOM      1  O   LIG A   1      -8.090   3.209 127.029  0.00  0.00    -0.283 OA
ATOM      2  C   LIG A   1      -7.968   2.014 126.828  0.00  0.00    +0.238 A 
ATOM      3  C   LIG A   1      -8.482   1.467 125.562  0.00  0.00    +0.109 A 
ATOM      4  C   LIG A   1      -9.058   2.275 124.581  0.00  0.00    +0.135 A 
ATOM      5  C   LIG A   1      -9.663   1.694 123.462  0.00  0.00    +0.091 A 
ATOM      6  C   LIG A   1      -9.666   0.308 123.336  0.00  0.00    +0.124 A 
ATOM      7  C   LIG A   1      -9.044  -0.493 124.283  0.00  0.00    +0.092 A 
ATOM      8  C   LIG A   1      -8.455   0.108 125.392  0.00  0.00    +0.146 A 
ATOM      9  O   LIG A   1      -7.850  -0.731 126.282  0.00  0.00    -0.451 OA
ATOM     10  C   LIG A   1      -7.391  -0.239 127.493  0.00  0.00    +0.181 A 
ATOM     11  C   LIG A   1      -7.375   1.070 127.834  0.00  0.00    +0.214 A 
ENDROOT
BRANCH  10  12
ATOM     12  C   LIG A   1      -6.944  -1.394 128.333  0.00  0.00    +0.025 A 
ATOM     13  C   LIG A   1      -7.896  -2.105 129.093  0.00  0.00    +0.015 A 
ATOM     14  C   LIG A   1      -7.552  -3.244 129.822  0.00  0.00    +0.050 A 
ATOM     15  C   LIG A   1      -6.231  -3.669 129.830  0.00  0.00    +0.159 A 
ATOM     16  C   LIG A   1      -5.260  -2.985 129.087  0.00  0.00    +0.162 A 
ATOM     17  C   LIG A   1      -5.634  -1.871 128.316  0.00  0.00    +0.061 A 
BRANCH  15  18
ATOM     18  O   LIG A   1      -5.877  -4.756 130.581  0.00  0.00    -0.503 OA
ATOM     19  H   LIG A   1      -5.076  -4.542 131.088  0.00  0.00    +0.292 HD
ENDBRANCH  15  18
BRANCH  16  20
ATOM     20  O   LIG A   1      -3.977  -3.470 129.123  0.00  0.00    -0.491 OA
ATOM     21  C   LIG A   1      -3.055  -2.658 129.843  0.00  0.00    +0.277 C 
ENDBRANCH  16  20
ENDBRANCH  10  12
BRANCH   4  22
ATOM     22  O   LIG A   1      -9.072   3.640 124.639  0.00  0.00    -0.506 OA
ATOM     23  H   LIG A   1      -9.971   3.946 124.374  0.00  0.00    +0.292 HD
ENDBRANCH   4  22
BRANCH   6  24
ATOM     24  O   LIG A   1     -10.276  -0.311 122.286  0.00  0.00    -0.506 OA
ATOM     25  H   LIG A   1     -10.259   0.284 121.518  0.00  0.00    +0.292 HD
ENDBRANCH   6  24
BRANCH  11  26
ATOM     26  O   LIG A   1      -6.954   1.532 129.084  0.00  0.00    -0.453 OA
BRANCH  26  27
ATOM     27  C   LIG A   1      -7.922   1.657 130.151  0.00  0.00    +0.340 C 
ATOM     28  C   LIG A   1      -7.182   1.583 131.517  0.00  0.00    +0.214 C 
ATOM     29  O   LIG A   1      -8.610   2.919 130.037  0.00  0.00    -0.334 OA
ATOM     30  C   LIG A   1      -9.627   3.033 131.052  0.00  0.00    +0.150 C 
ATOM     31  C   LIG A   1     -10.488   4.252 130.752  0.00  0.00    +0.040 C 
ATOM     32  C   LIG A   1      -8.987   3.109 132.444  0.00  0.00    +0.174 C 
ATOM     33  C   LIG A   1      -8.140   1.853 132.685  0.00  0.00    +0.180 C 
BRANCH  28  34
ATOM     34  O   LIG A   1      -6.129   2.573 131.603  0.00  0.00    -0.383 OA
ATOM     35  H   LIG A   1      -5.289   2.077 131.571  0.00  0.00    +0.210 HD
ENDBRANCH  28  34
BRANCH  32  36
ATOM     36  O   LIG A   1      -9.987   3.201 133.466  0.00  0.00    -0.387 OA
ATOM     37  H   LIG A   1      -9.938   4.118 133.802  0.00  0.00    +0.210 HD
ENDBRANCH  32  36
BRANCH  33  38
ATOM     38  O   LIG A   1      -7.403   2.042 133.908  0.00  0.00    -0.386 OA
ATOM     39  H   LIG A   1      -7.194   1.136 134.217  0.00  0.00    +0.210 HD
ENDBRANCH  33  38
ENDBRANCH  26  27
ENDBRANCH  11  26
TORSDOF 10
ENDMDL
MODEL 6
REMARK VINA RESULT:      -7.4      5.614      9.781
REMARK  Name = NuBBE_446
REMARK  12 active torsions:
REMARK  status: ('A' for Active; 'I' for Inactive)
REMARK    1  A    between atoms: C_4  and  O_5
REMARK    2  A    between atoms: C_7  and  O_8
REMARK    3  A    between atoms: C_12  and  C_13
REMARK    4  A    between atoms: C_16  and  O_17
REMARK    5  A    between atoms: C_18  and  O_19
REMARK    6  A    between atoms: O_19  and  C_20
REMARK    7  A    between atoms: C_22  and  O_23
REMARK    8  A    between atoms: O_23  and  C_24
REMARK    9  A    between atoms: C_26  and  O_28
REMARK   10  A    between atoms: C_30  and  C_32
REMARK   11  A    between atoms: C_33  and  O_35
REMARK   12  A    between atoms: C_36  and  O_38
REMARK                            x       y       z     vdW  Elec       q    Type
REMARK                         _______ _______ _______ _____ _____    ______ ____
ROOT
ATOM      1  O   LIG A   1      -5.809   1.530 129.353  0.00  0.00    -0.283 OA
ATOM      2  C   LIG A   1      -6.017   0.384 129.000  0.00  0.00    +0.238 A 
ATOM      3  C   LIG A   1      -5.289  -0.696 129.686  0.00  0.00    +0.109 A 
ATOM      4  C   LIG A   1      -4.413  -0.450 130.744  0.00  0.00    +0.135 A 
ATOM      5  C   LIG A   1      -3.636  -1.489 131.266  0.00  0.00    +0.091 A 
ATOM      6  C   LIG A   1      -3.762  -2.766 130.728  0.00  0.00    +0.124 A 
ATOM      7  C   LIG A   1      -4.675  -3.023 129.715  0.00  0.00    +0.092 A 
ATOM      8  C   LIG A   1      -5.432  -1.971 129.207  0.00  0.00    +0.146 A 
ATOM      9  O   LIG A   1      -6.319  -2.289 128.220  0.00  0.00    -0.451 OA
ATOM     10  C   LIG A   1      -6.987  -1.283 127.540  0.00  0.00    +0.181 A 
ATOM     11  C   LIG A   1      -6.931   0.029 127.864  0.00  0.00    +0.214 A 
ENDROOT
BRANCH  10  12
ATOM     12  C   LIG A   1      -7.745  -1.901 126.408  0.00  0.00    +0.025 A 
ATOM     13  C   LIG A   1      -8.950  -2.583 126.675  0.00  0.00    +0.015 A 
ATOM     14  C   LIG A   1      -9.746  -3.099 125.651  0.00  0.00    +0.050 A 
ATOM     15  C   LIG A   1      -9.322  -2.971 124.336  0.00  0.00    +0.159 A 
ATOM     16  C   LIG A   1      -8.129  -2.301 124.036  0.00  0.00    +0.162 A 
ATOM     17  C   LIG A   1      -7.367  -1.740 125.076  0.00  0.00    +0.061 A 
BRANCH  15  18
ATOM     18  O   LIG A   1     -10.070  -3.517 123.329  0.00  0.00    -0.503 OA
ATOM     19  H   LIG A   1     -10.946  -3.751 123.679  0.00  0.00    +0.292 HD
ENDBRANCH  15  18
BRANCH  16  20
ATOM     20  O   LIG A   1      -7.779  -2.192 122.713  0.00  0.00    -0.491 OA
ATOM     21  C   LIG A   1      -6.449  -1.734 122.487  0.00  0.00    +0.277 C 
ENDBRANCH  16  20
ENDBRANCH  10  12
BRANCH   4  22
ATOM     22  O   LIG A   1      -4.256   0.777 131.324  0.00  0.00    -0.506 OA
ATOM     23  H   LIG A   1      -4.404   1.462 130.631  0.00  0.00    +0.292 HD
ENDBRANCH   4  22
BRANCH   6  24
ATOM     24  O   LIG A   1      -3.001  -3.805 131.173  0.00  0.00    -0.506 OA
ATOM     25  H   LIG A   1      -3.222  -4.599 130.659  0.00  0.00    +0.292 HD
ENDBRANCH   6  24
BRANCH  11  26
ATOM     26  O   LIG A   1      -7.575   1.028 127.127  0.00  0.00    -0.453 OA
BRANCH  26  27
ATOM     27  C   LIG A   1      -6.881   1.644 126.017  0.00  0.00    +0.340 C 
ATOM     28  C   LIG A   1      -7.928   2.195 125.009  0.00  0.00    +0.214 C 
ATOM     29  O   LIG A   1      -6.052   2.720 126.499  0.00  0.00    -0.334 OA
ATOM     30  C   LIG A   1      -5.299   3.302 125.417  0.00  0.00    +0.150 C 
ATOM     31  C   LIG A   1      -4.265   4.258 125.994  0.00  0.00    +0.040 C 
ATOM     32  C   LIG A   1      -6.240   4.002 124.427  0.00  0.00    +0.174 C 
ATOM     33  C   LIG A   1      -7.251   2.986 123.880  0.00  0.00    +0.180 C 
BRANCH  28  34
ATOM     34  O   LIG A   1      -8.857   3.101 125.653  0.00  0.00    -0.383 OA
ATOM     35  H   LIG A   1      -9.045   3.803 125.001  0.00  0.00    +0.210 HD
ENDBRANCH  28  34
BRANCH  32  36
ATOM     36  O   LIG A   1      -5.508   4.566 123.333  0.00  0.00    -0.387 OA
ATOM     37  H   LIG A   1      -6.136   5.160 122.873  0.00  0.00    +0.210 HD
ENDBRANCH  32  36
BRANCH  33  38
ATOM     38  O   LIG A   1      -8.234   3.706 123.112  0.00  0.00    -0.386 OA
ATOM     39  H   LIG A   1      -8.301   4.581 123.548  0.00  0.00    +0.210 HD
ENDBRANCH  33  38
ENDBRANCH  26  27
ENDBRANCH  11  26
TORSDOF 10
ENDMDL
MODEL 7
REMARK VINA RESULT:      -7.3      5.444      9.926
REMARK  Name = NuBBE_446
REMARK  12 active torsions:
REMARK  status: ('A' for Active; 'I' for Inactive)
REMARK    1  A    between atoms: C_4  and  O_5
REMARK    2  A    between atoms: C_7  and  O_8
REMARK    3  A    between atoms: C_12  and  C_13
REMARK    4  A    between atoms: C_16  and  O_17
REMARK    5  A    between atoms: C_18  and  O_19
REMARK    6  A    between atoms: O_19  and  C_20
REMARK    7  A    between atoms: C_22  and  O_23
REMARK    8  A    between atoms: O_23  and  C_24
REMARK    9  A    between atoms: C_26  and  O_28
REMARK   10  A    between atoms: C_30  and  C_32
REMARK   11  A    between atoms: C_33  and  O_35
REMARK   12  A    between atoms: C_36  and  O_38
REMARK                            x       y       z     vdW  Elec       q    Type
REMARK                         _______ _______ _______ _____ _____    ______ ____
ROOT
ATOM      1  O   LIG A   1      -4.210   0.050 129.609  0.00  0.00    -0.283 OA
ATOM      2  C   LIG A   1      -4.982  -0.863 129.377  0.00  0.00    +0.238 A 
ATOM      3  C   LIG A   1      -5.069  -1.963 130.350  0.00  0.00    +0.109 A 
ATOM      4  C   LIG A   1      -4.334  -1.968 131.537  0.00  0.00    +0.135 A 
ATOM      5  C   LIG A   1      -4.338  -3.100 132.358  0.00  0.00    +0.091 A 
ATOM      6  C   LIG A   1      -5.094  -4.206 131.984  0.00  0.00    +0.124 A 
ATOM      7  C   LIG A   1      -5.870  -4.181 130.834  0.00  0.00    +0.092 A 
ATOM      8  C   LIG A   1      -5.844  -3.045 130.028  0.00  0.00    +0.146 A 
ATOM      9  O   LIG A   1      -6.635  -3.077 128.917  0.00  0.00    -0.451 OA
ATOM     10  C   LIG A   1      -6.542  -2.067 127.973  0.00  0.00    +0.181 A 
ATOM     11  C   LIG A   1      -5.799  -0.945 128.120  0.00  0.00    +0.214 A 
ENDROOT
BRANCH  10  12
ATOM     12  C   LIG A   1      -7.379  -2.445 126.793  0.00  0.00    +0.025 A 
ATOM     13  C   LIG A   1      -8.753  -2.705 126.975  0.00  0.00    +0.015 A 
ATOM     14  C   LIG A   1      -9.601  -2.972 125.899  0.00  0.00    +0.050 A 
ATOM     15  C   LIG A   1      -9.071  -3.020 124.617  0.00  0.00    +0.159 A 
ATOM     16  C   LIG A   1      -7.710  -2.769 124.401  0.00  0.00    +0.162 A 
ATOM     17  C   LIG A   1      -6.881  -2.449 125.490  0.00  0.00    +0.061 A 
BRANCH  15  18
ATOM     18  O   LIG A   1      -9.884  -3.331 123.562  0.00  0.00    -0.503 OA
ATOM     19  H   LIG A   1      -9.802  -4.279 123.368  0.00  0.00    +0.292 HD
ENDBRANCH  15  18
BRANCH  16  20
ATOM     20  O   LIG A   1      -7.255  -2.813 123.107  0.00  0.00    -0.491 OA
ATOM     21  C   LIG A   1      -6.717  -1.586 122.623  0.00  0.00    +0.277 C 
ENDBRANCH  16  20
ENDBRANCH  10  12
BRANCH   4  22
ATOM     22  O   LIG A   1      -3.585  -0.908 131.965  0.00  0.00    -0.506 OA
ATOM     23  H   LIG A   1      -3.244  -0.436 131.171  0.00  0.00    +0.292 HD
ENDBRANCH   4  22
BRANCH   6  24
ATOM     24  O   LIG A   1      -5.102  -5.348 132.728  0.00  0.00    -0.506 OA
ATOM     25  H   LIG A   1      -5.154  -6.112 132.130  0.00  0.00    +0.292 HD
ENDBRANCH   6  24
BRANCH  11  26
ATOM     26  O   LIG A   1      -5.683   0.033 127.128  0.00  0.00    -0.453 OA
BRANCH  26  27
ATOM     27  C   LIG A   1      -6.697   1.059 127.028  0.00  0.00    +0.340 C 
ATOM     28  C   LIG A   1      -6.005   2.451 126.986  0.00  0.00    +0.214 C 
ATOM     29  O   LIG A   1      -7.470   0.862 125.827  0.00  0.00    -0.334 OA
ATOM     30  C   LIG A   1      -8.530   1.835 125.744  0.00  0.00    +0.150 C 
ATOM     31  C   LIG A   1      -9.466   1.448 124.607  0.00  0.00    +0.040 C 
ATOM     32  C   LIG A   1      -7.950   3.243 125.559  0.00  0.00    +0.174 C 
ATOM     33  C   LIG A   1      -7.024   3.572 126.736  0.00  0.00    +0.180 C 
BRANCH  28  34
ATOM     34  O   LIG A   1      -5.031   2.527 125.917  0.00  0.00    -0.383 OA
ATOM     35  H   LIG A   1      -5.255   1.806 125.298  0.00  0.00    +0.210 HD
ENDBRANCH  28  34
BRANCH  32  36
ATOM     36  O   LIG A   1      -8.992   4.224 125.497  0.00  0.00    -0.387 OA
ATOM     37  H   LIG A   1      -9.219   4.427 126.427  0.00  0.00    +0.210 HD
ENDBRANCH  32  36
BRANCH  33  38
ATOM     38  O   LIG A   1      -6.348   4.809 126.439  0.00  0.00    -0.386 OA
ATOM     39  H   LIG A   1      -6.842   5.188 125.682  0.00  0.00    +0.210 HD
ENDBRANCH  33  38
ENDBRANCH  26  27
ENDBRANCH  11  26
TORSDOF 10
ENDMDL
MODEL 8
REMARK VINA RESULT:      -7.3      3.547      7.916
REMARK  Name = NuBBE_446
REMARK  12 active torsions:
REMARK  status: ('A' for Active; 'I' for Inactive)
REMARK    1  A    between atoms: C_4  and  O_5
REMARK    2  A    between atoms: C_7  and  O_8
REMARK    3  A    between atoms: C_12  and  C_13
REMARK    4  A    between atoms: C_16  and  O_17
REMARK    5  A    between atoms: C_18  and  O_19
REMARK    6  A    between atoms: O_19  and  C_20
REMARK    7  A    between atoms: C_22  and  O_23
REMARK    8  A    between atoms: O_23  and  C_24
REMARK    9  A    between atoms: C_26  and  O_28
REMARK   10  A    between atoms: C_30  and  C_32
REMARK   11  A    between atoms: C_33  and  O_35
REMARK   12  A    between atoms: C_36  and  O_38
REMARK                            x       y       z     vdW  Elec       q    Type
REMARK                         _______ _______ _______ _____ _____    ______ ____
ROOT
ATOM      1  O   LIG A   1      -7.996  -0.774 127.009  0.00  0.00    -0.283 OA
ATOM      2  C   LIG A   1      -7.975  -0.178 128.071  0.00  0.00    +0.238 A 
ATOM      3  C   LIG A   1      -7.661  -0.942 129.289  0.00  0.00    +0.109 A 
ATOM      4  C   LIG A   1      -7.347  -2.301 129.257  0.00  0.00    +0.135 A 
ATOM      5  C   LIG A   1      -7.200  -3.015 130.450  0.00  0.00    +0.091 A 
ATOM      6  C   LIG A   1      -7.354  -2.349 131.662  0.00  0.00    +0.124 A 
ATOM      7  C   LIG A   1      -7.610  -0.985 131.695  0.00  0.00    +0.092 A 
ATOM      8  C   LIG A   1      -7.759  -0.298 130.494  0.00  0.00    +0.146 A 
ATOM      9  O   LIG A   1      -7.999   1.042 130.592  0.00  0.00    -0.451 OA
ATOM     10  C   LIG A   1      -8.330   1.770 129.460  0.00  0.00    +0.181 A 
ATOM     11  C   LIG A   1      -8.314   1.278 128.200  0.00  0.00    +0.214 A 
ENDROOT
BRANCH  10  12
ATOM     12  C   LIG A   1      -8.711   3.154 129.883  0.00  0.00    +0.025 A 
ATOM     13  C   LIG A   1     -10.008   3.390 130.385  0.00  0.00    +0.015 A 
ATOM     14  C   LIG A   1     -10.388   4.639 130.879  0.00  0.00    +0.050 A 
ATOM     15  C   LIG A   1      -9.479   5.687 130.841  0.00  0.00    +0.159 A 
ATOM     16  C   LIG A   1      -8.184   5.486 130.347  0.00  0.00    +0.162 A 
ATOM     17  C   LIG A   1      -7.800   4.209 129.903  0.00  0.00    +0.061 A 
BRANCH  15  18
ATOM     18  O   LIG A   1      -9.860   6.926 131.276  0.00  0.00    -0.503 OA
ATOM     19  H   LIG A   1      -9.394   7.601 130.755  0.00  0.00    +0.292 HD
ENDBRANCH  15  18
BRANCH  16  20
ATOM     20  O   LIG A   1      -7.329   6.560 130.356  0.00  0.00    -0.491 OA
ATOM     21  C   LIG A   1      -6.340   6.523 131.380  0.00  0.00    +0.277 C 
ENDBRANCH  16  20
ENDBRANCH  10  12
BRANCH   4  22
ATOM     22  O   LIG A   1      -7.168  -3.007 128.100  0.00  0.00    -0.506 OA
ATOM     23  H   LIG A   1      -7.477  -3.930 128.257  0.00  0.00    +0.292 HD
ENDBRANCH   4  22
BRANCH   6  24
ATOM     24  O   LIG A   1      -7.259  -3.004 132.853  0.00  0.00    -0.506 OA
ATOM     25  H   LIG A   1      -8.015  -3.609 132.939  0.00  0.00    +0.292 HD
ENDBRANCH   6  24
BRANCH  11  26
ATOM     26  O   LIG A   1      -8.704   2.022 127.082  0.00  0.00    -0.453 OA
BRANCH  26  27
ATOM     27  C   LIG A   1      -7.786   2.164 125.974  0.00  0.00    +0.340 C 
ATOM     28  C   LIG A   1      -8.559   2.712 124.742  0.00  0.00    +0.214 C 
ATOM     29  O   LIG A   1      -6.729   3.076 126.334  0.00  0.00    -0.334 OA
ATOM     30  C   LIG A   1      -5.765   3.178 125.267  0.00  0.00    +0.150 C 
ATOM     31  C   LIG A   1      -4.552   3.947 125.771  0.00  0.00    +0.040 C 
ATOM     32  C   LIG A   1      -6.397   3.843 124.037  0.00  0.00    +0.174 C 
ATOM     33  C   LIG A   1      -7.607   3.019 123.578  0.00  0.00    +0.180 C 
BRANCH  28  34
ATOM     34  O   LIG A   1      -9.245   3.949 125.056  0.00  0.00    -0.383 OA
ATOM     35  H   LIG A   1     -10.132   3.691 125.373  0.00  0.00    +0.210 HD
ENDBRANCH  28  34
BRANCH  32  36
ATOM     36  O   LIG A   1      -5.457   3.931 122.960  0.00  0.00    -0.387 OA
ATOM     37  H   LIG A   1      -5.984   3.841 122.141  0.00  0.00    +0.210 HD
ENDBRANCH  32  36
BRANCH  33  38
ATOM     38  O   LIG A   1      -8.289   3.765 122.552  0.00  0.00    -0.386 OA
ATOM     39  H   LIG A   1      -8.841   3.102 122.085  0.00  0.00    +0.210 HD
ENDBRANCH  33  38
ENDBRANCH  26  27
ENDBRANCH  11  26
TORSDOF 10
ENDMDL
MODEL 9
REMARK VINA RESULT:      -7.2      3.459      6.926
REMARK  Name = NuBBE_446
REMARK  12 active torsions:
REMARK  status: ('A' for Active; 'I' for Inactive)
REMARK    1  A    between atoms: C_4  and  O_5
REMARK    2  A    between atoms: C_7  and  O_8
REMARK    3  A    between atoms: C_12  and  C_13
REMARK    4  A    between atoms: C_16  and  O_17
REMARK    5  A    between atoms: C_18  and  O_19
REMARK    6  A    between atoms: O_19  and  C_20
REMARK    7  A    between atoms: C_22  and  O_23
REMARK    8  A    between atoms: O_23  and  C_24
REMARK    9  A    between atoms: C_26  and  O_28
REMARK   10  A    between atoms: C_30  and  C_32
REMARK   11  A    between atoms: C_33  and  O_35
REMARK   12  A    between atoms: C_36  and  O_38
REMARK                            x       y       z     vdW  Elec       q    Type
REMARK                         _______ _______ _______ _____ _____    ______ ____
ROOT
ATOM      1  O   LIG A   1      -8.861   4.916 128.220  0.00  0.00    -0.283 OA
ATOM      2  C   LIG A   1      -8.258   4.149 128.948  0.00  0.00    +0.238 A 
ATOM      3  C   LIG A   1      -7.690   4.679 130.198  0.00  0.00    +0.109 A 
ATOM      4  C   LIG A   1      -7.860   6.008 130.588  0.00  0.00    +0.135 A 
ATOM      5  C   LIG A   1      -7.181   6.501 131.707  0.00  0.00    +0.091 A 
ATOM      6  C   LIG A   1      -6.354   5.647 132.429  0.00  0.00    +0.124 A 
ATOM      7  C   LIG A   1      -6.230   4.311 132.075  0.00  0.00    +0.092 A 
ATOM      8  C   LIG A   1      -6.910   3.845 130.953  0.00  0.00    +0.146 A 
ATOM      9  O   LIG A   1      -6.757   2.521 130.663  0.00  0.00    -0.451 OA
ATOM     10  C   LIG A   1      -7.254   2.012 129.474  0.00  0.00    +0.181 A 
ATOM     11  C   LIG A   1      -8.016   2.708 128.600  0.00  0.00    +0.214 A 
ENDROOT
BRANCH  10  12
ATOM     12  C   LIG A   1      -6.792   0.595 129.336  0.00  0.00    +0.025 A 
ATOM     13  C   LIG A   1      -5.419   0.331 129.153  0.00  0.00    +0.015 A 
ATOM     14  C   LIG A   1      -4.920  -0.971 129.111  0.00  0.00    +0.050 A 
ATOM     15  C   LIG A   1      -5.802  -2.037 129.213  0.00  0.00    +0.159 A 
ATOM     16  C   LIG A   1      -7.173  -1.810 129.393  0.00  0.00    +0.162 A 
ATOM     17  C   LIG A   1      -7.651  -0.492 129.488  0.00  0.00    +0.061 A 
BRANCH  15  18
ATOM     18  O   LIG A   1      -5.328  -3.317 129.122  0.00  0.00    -0.503 OA
ATOM     19  H   LIG A   1      -5.654  -3.717 128.299  0.00  0.00    +0.292 HD
ENDBRANCH  15  18
BRANCH  16  20
ATOM     20  O   LIG A   1      -7.987  -2.909 129.507  0.00  0.00    -0.491 OA
ATOM     21  C   LIG A   1      -8.593  -3.328 128.288  0.00  0.00    +0.277 C 
ENDBRANCH  16  20
ENDBRANCH  10  12
BRANCH   4  22
ATOM     22  O   LIG A   1      -8.669   6.891 129.930  0.00  0.00    -0.506 OA
ATOM     23  H   LIG A   1      -9.275   7.299 130.592  0.00  0.00    +0.292 HD
ENDBRANCH   4  22
BRANCH   6  24
ATOM     24  O   LIG A   1      -5.640   6.086 133.504  0.00  0.00    -0.506 OA
ATOM     25  H   LIG A   1      -5.686   5.416 134.206  0.00  0.00    +0.292 HD
ENDBRANCH   6  24
BRANCH  11  26
ATOM     26  O   LIG A   1      -8.461   2.184 127.382  0.00  0.00    -0.453 OA
BRANCH  26  27
ATOM     27  C   LIG A   1      -7.604   2.274 126.221  0.00  0.00    +0.340 C 
ATOM     28  C   LIG A   1      -8.435   2.800 125.017  0.00  0.00    +0.214 C 
ATOM     29  O   LIG A   1      -6.512   3.176 126.492  0.00  0.00    -0.334 OA
ATOM     30  C   LIG A   1      -5.608   3.227 125.371  0.00  0.00    +0.150 C 
ATOM     31  C   LIG A   1      -4.355   3.987 125.782  0.00  0.00    +0.040 C 
ATOM     32  C   LIG A   1      -6.296   3.866 124.157  0.00  0.00    +0.174 C 
ATOM     33  C   LIG A   1      -7.545   3.053 123.793  0.00  0.00    +0.180 C 
BRANCH  28  34
ATOM     34  O   LIG A   1      -9.081   4.059 125.330  0.00  0.00    -0.383 OA
ATOM     35  H   LIG A   1      -8.445   4.757 125.080  0.00  0.00    +0.210 HD
ENDBRANCH  28  34
BRANCH  32  36
ATOM     36  O   LIG A   1      -5.417   3.903 123.028  0.00  0.00    -0.387 OA
ATOM     37  H   LIG A   1      -5.355   4.846 122.772  0.00  0.00    +0.210 HD
ENDBRANCH  32  36
BRANCH  33  38
ATOM     38  O   LIG A   1      -8.271   3.780 122.784  0.00  0.00    -0.386 OA
ATOM     39  H   LIG A   1      -7.595   4.335 122.340  0.00  0.00    +0.210 HD
ENDBRANCH  33  38
ENDBRANCH  26  27
ENDBRANCH  11  26
TORSDOF 10
ENDMDL
