MODEL 1
REMARK VINA RESULT:      -6.3      0.000      0.000
REMARK  Name = NuBBE_1689
REMARK  17 active torsions:
REMARK  status: ('A' for Active; 'I' for Inactive)
REMARK    1  A    between atoms: C_1  and  C_2
REMARK    2  A    between atoms: C_2  and  C_3
REMARK    3  A    between atoms: C_3  and  C_4
REMARK    4  A    between atoms: C_4  and  C_5
REMARK    5  A    between atoms: C_5  and  C_6
REMARK    6  A    between atoms: C_6  and  C_7
REMARK    7  A    between atoms: C_8  and  C_9
REMARK    8  A    between atoms: C_9  and  C_10
REMARK    9  A    between atoms: C_10  and  C_11
REMARK   10  A    between atoms: C_11  and  C_12
REMARK   11  A    between atoms: C_12  and  C_13
REMARK   12  A    between atoms: C_13  and  C_14
REMARK   13  A    between atoms: C_14  and  C_15
REMARK   14  A    between atoms: C_15  and  C_16
REMARK   15  A    between atoms: C_17  and  C_18
REMARK   16  A    between atoms: C_18  and  O_19
REMARK   17  A    between atoms: C_21  and  O_22
REMARK                            x       y       z     vdW  Elec       q    Type
REMARK                         _______ _______ _______ _____ _____    ______ ____
ROOT
ATOM      1  C   LIG A   1      -8.077   1.011 127.188  0.00  0.00    +0.005 C 
ENDROOT
BRANCH   1   2
ATOM      2  C   LIG A   1      -7.953   2.429 126.637  0.00  0.00    +0.036 C 
BRANCH   2   3
ATOM      3  C   LIG A   1      -8.201   2.650 125.164  0.00  0.00    -0.030 A 
ATOM      4  C   LIG A   1      -7.367   3.359 124.280  0.00  0.00    +0.103 A 
ATOM      5  C   LIG A   1      -7.607   3.279 122.901  0.00  0.00    +0.131 A 
ATOM      6  C   LIG A   1      -8.706   2.583 122.398  0.00  0.00    +0.046 A 
ATOM      7  C   LIG A   1      -9.582   1.944 123.264  0.00  0.00    +0.004 A 
ATOM      8  C   LIG A   1      -9.322   1.957 124.631  0.00  0.00    +0.005 A 
BRANCH   5   9
ATOM      9  O   LIG A   1      -6.812   3.894 121.968  0.00  0.00    -0.506 OA
ATOM     10  H   LIG A   1      -7.198   4.767 121.746  0.00  0.00    +0.292 HD
ENDBRANCH   5   9
BRANCH   4  11
ATOM     11  C   LIG A   1      -6.216   4.228 124.671  0.00  0.00    +0.341 C 
ATOM     12  O   LIG A   1      -5.089   3.880 124.779  0.00  0.00    -0.245 OA
BRANCH  11  13
ATOM     13  O   LIG A   1      -6.555   5.535 124.736  0.00  0.00    -0.477 OA
ATOM     14  H   LIG A   1      -6.075   5.953 123.990  0.00  0.00    +0.295 HD
ENDBRANCH  11  13
ENDBRANCH   4  11
ENDBRANCH   2   3
ENDBRANCH   1   2
BRANCH   1  15
ATOM     15  C   LIG A   1      -7.017   0.043 126.723  0.00  0.00    +0.000 C 
BRANCH  15  16
ATOM     16  C   LIG A   1      -7.260  -1.234 127.499  0.00  0.00    +0.000 C 
BRANCH  16  17
ATOM     17  C   LIG A   1      -7.259  -2.545 126.765  0.00  0.00    +0.000 C 
BRANCH  17  18
ATOM     18  C   LIG A   1      -8.626  -3.254 126.881  0.00  0.00    +0.004 C 
BRANCH  18  19
ATOM     19  C   LIG A   1      -9.642  -2.828 125.762  0.00  0.00    +0.027 C 
BRANCH  19  21
ATOM     20  C   LIG A   1      -8.922  -2.883 123.276  0.00  0.00    -0.031 C 
ATOM     21  C   LIG A   1      -9.466  -3.419 124.388  0.00  0.00    -0.031 C 
BRANCH  20  22
ATOM     22  C   LIG A   1      -8.385  -1.526 122.869  0.00  0.00    +0.027 C 
BRANCH  22  23
ATOM     23  C   LIG A   1      -6.939  -1.059 123.048  0.00  0.00    +0.004 C 
BRANCH  23  24
ATOM     24  C   LIG A   1      -5.936  -2.196 122.710  0.00  0.00    +0.000 C 
BRANCH  24  25
ATOM     25  C   LIG A   1      -4.981  -2.514 123.867  0.00  0.00    -0.000 C 
BRANCH  25  27
ATOM     26  C   LIG A   1      -4.191  -4.850 123.362  0.00  0.00    +0.004 C 
ATOM     27  C   LIG A   1      -5.030  -3.985 124.284  0.00  0.00    -0.003 C 
ENDBRANCH  25  27
ENDBRANCH  24  25
ENDBRANCH  23  24
ENDBRANCH  22  23
ENDBRANCH  20  22
ENDBRANCH  19  21
ENDBRANCH  18  19
ENDBRANCH  17  18
ENDBRANCH  16  17
ENDBRANCH  15  16
ENDBRANCH   1  15
TORSDOF 16
ENDMDL
MODEL 2
REMARK VINA RESULT:      -6.0      1.717      2.706
REMARK  Name = NuBBE_1689
REMARK  17 active torsions:
REMARK  status: ('A' for Active; 'I' for Inactive)
REMARK    1  A    between atoms: C_1  and  C_2
REMARK    2  A    between atoms: C_2  and  C_3
REMARK    3  A    between atoms: C_3  and  C_4
REMARK    4  A    between atoms: C_4  and  C_5
REMARK    5  A    between atoms: C_5  and  C_6
REMARK    6  A    between atoms: C_6  and  C_7
REMARK    7  A    between atoms: C_8  and  C_9
REMARK    8  A    between atoms: C_9  and  C_10
REMARK    9  A    between atoms: C_10  and  C_11
REMARK   10  A    between atoms: C_11  and  C_12
REMARK   11  A    between atoms: C_12  and  C_13
REMARK   12  A    between atoms: C_13  and  C_14
REMARK   13  A    between atoms: C_14  and  C_15
REMARK   14  A    between atoms: C_15  and  C_16
REMARK   15  A    between atoms: C_17  and  C_18
REMARK   16  A    between atoms: C_18  and  O_19
REMARK   17  A    between atoms: C_21  and  O_22
REMARK                            x       y       z     vdW  Elec       q    Type
REMARK                         _______ _______ _______ _____ _____    ______ ____
ROOT
ATOM      1  C   LIG A   1      -7.522   0.425 127.581  0.00  0.00    +0.005 C 
ENDROOT
BRANCH   1   2
ATOM      2  C   LIG A   1      -8.263   1.656 127.064  0.00  0.00    +0.036 C 
BRANCH   2   3
ATOM      3  C   LIG A   1      -8.691   1.680 125.617  0.00  0.00    -0.030 A 
ATOM      4  C   LIG A   1      -8.564   2.768 124.733  0.00  0.00    +0.103 A 
ATOM      5  C   LIG A   1      -8.787   2.565 123.364  0.00  0.00    +0.131 A 
ATOM      6  C   LIG A   1      -9.215   1.331 122.875  0.00  0.00    +0.046 A 
ATOM      7  C   LIG A   1      -9.420   0.271 123.746  0.00  0.00    +0.004 A 
ATOM      8  C   LIG A   1      -9.140   0.434 125.100  0.00  0.00    +0.005 A 
BRANCH   5   9
ATOM      9  O   LIG A   1      -8.633   3.557 122.428  0.00  0.00    -0.506 OA
ATOM     10  H   LIG A   1      -8.610   4.424 122.884  0.00  0.00    +0.292 HD
ENDBRANCH   5   9
BRANCH   4  11
ATOM     11  C   LIG A   1      -8.214   4.170 125.115  0.00  0.00    +0.341 C 
ATOM     12  O   LIG A   1      -8.834   4.864 125.848  0.00  0.00    -0.245 OA
BRANCH  11  13
ATOM     13  O   LIG A   1      -6.994   4.538 124.666  0.00  0.00    -0.477 OA
ATOM     14  H   LIG A   1      -6.911   5.482 124.918  0.00  0.00    +0.295 HD
ENDBRANCH  11  13
ENDBRANCH   4  11
ENDBRANCH   2   3
ENDBRANCH   1   2
BRANCH   1  15
ATOM     15  C   LIG A   1      -7.038   0.515 129.007  0.00  0.00    +0.000 C 
BRANCH  15  16
ATOM     16  C   LIG A   1      -8.173  -0.012 129.859  0.00  0.00    +0.000 C 
BRANCH  16  17
ATOM     17  C   LIG A   1      -7.974  -1.283 130.636  0.00  0.00    +0.000 C 
BRANCH  17  18
ATOM     18  C   LIG A   1      -6.634  -1.959 130.273  0.00  0.00    +0.004 C 
BRANCH  18  19
ATOM     19  C   LIG A   1      -6.754  -2.966 129.074  0.00  0.00    +0.027 C 
BRANCH  19  21
ATOM     20  C   LIG A   1      -8.817  -3.613 127.651  0.00  0.00    -0.031 C 
ATOM     21  C   LIG A   1      -8.103  -3.573 128.796  0.00  0.00    -0.031 C 
BRANCH  20  22
ATOM     22  C   LIG A   1      -8.681  -3.028 126.260  0.00  0.00    +0.027 C 
BRANCH  22  23
ATOM     23  C   LIG A   1      -8.375  -3.827 124.992  0.00  0.00    +0.004 C 
BRANCH  23  24
ATOM     24  C   LIG A   1      -7.392  -3.059 124.067  0.00  0.00    +0.000 C 
BRANCH  24  25
ATOM     25  C   LIG A   1      -5.981  -2.947 124.655  0.00  0.00    -0.000 C 
BRANCH  25  27
ATOM     26  C   LIG A   1      -4.394  -4.602 123.615  0.00  0.00    +0.004 C 
ATOM     27  C   LIG A   1      -4.886  -3.166 123.608  0.00  0.00    -0.003 C 
ENDBRANCH  25  27
ENDBRANCH  24  25
ENDBRANCH  23  24
ENDBRANCH  22  23
ENDBRANCH  20  22
ENDBRANCH  19  21
ENDBRANCH  18  19
ENDBRANCH  17  18
ENDBRANCH  16  17
ENDBRANCH  15  16
ENDBRANCH   1  15
TORSDOF 16
ENDMDL
MODEL 3
REMARK VINA RESULT:      -5.9      5.319      7.923
REMARK  Name = NuBBE_1689
REMARK  17 active torsions:
REMARK  status: ('A' for Active; 'I' for Inactive)
REMARK    1  A    between atoms: C_1  and  C_2
REMARK    2  A    between atoms: C_2  and  C_3
REMARK    3  A    between atoms: C_3  and  C_4
REMARK    4  A    between atoms: C_4  and  C_5
REMARK    5  A    between atoms: C_5  and  C_6
REMARK    6  A    between atoms: C_6  and  C_7
REMARK    7  A    between atoms: C_8  and  C_9
REMARK    8  A    between atoms: C_9  and  C_10
REMARK    9  A    between atoms: C_10  and  C_11
REMARK   10  A    between atoms: C_11  and  C_12
REMARK   11  A    between atoms: C_12  and  C_13
REMARK   12  A    between atoms: C_13  and  C_14
REMARK   13  A    between atoms: C_14  and  C_15
REMARK   14  A    between atoms: C_15  and  C_16
REMARK   15  A    between atoms: C_17  and  C_18
REMARK   16  A    between atoms: C_18  and  O_19
REMARK   17  A    between atoms: C_21  and  O_22
REMARK                            x       y       z     vdW  Elec       q    Type
REMARK                         _______ _______ _______ _____ _____    ______ ____
ROOT
ATOM      1  C   LIG A   1      -6.518  -2.393 130.104  0.00  0.00    +0.005 C 
ENDROOT
BRANCH   1   2
ATOM      2  C   LIG A   1      -6.333  -2.351 131.619  0.00  0.00    +0.036 C 
BRANCH   2   3
ATOM      3  C   LIG A   1      -5.581  -3.482 132.281  0.00  0.00    -0.030 A 
ATOM      4  C   LIG A   1      -4.189  -3.684 132.243  0.00  0.00    +0.103 A 
ATOM      5  C   LIG A   1      -3.614  -4.637 133.095  0.00  0.00    +0.131 A 
ATOM      6  C   LIG A   1      -4.403  -5.445 133.914  0.00  0.00    +0.046 A 
ATOM      7  C   LIG A   1      -5.784  -5.309 133.904  0.00  0.00    +0.004 A 
ATOM      8  C   LIG A   1      -6.368  -4.323 133.114  0.00  0.00    +0.005 A 
BRANCH   5   9
ATOM      9  O   LIG A   1      -2.262  -4.861 133.160  0.00  0.00    -0.506 OA
ATOM     10  H   LIG A   1      -2.034  -5.178 134.058  0.00  0.00    +0.292 HD
ENDBRANCH   5   9
BRANCH   4  11
ATOM     11  C   LIG A   1      -3.225  -2.973 131.349  0.00  0.00    +0.341 C 
ATOM     12  O   LIG A   1      -3.090  -3.158 130.187  0.00  0.00    -0.245 OA
BRANCH  11  13
ATOM     13  O   LIG A   1      -2.608  -1.944 131.971  0.00  0.00    -0.477 OA
ATOM     14  H   LIG A   1      -1.793  -2.335 132.350  0.00  0.00    +0.295 HD
ENDBRANCH  11  13
ENDBRANCH   4  11
ENDBRANCH   2   3
ENDBRANCH   1   2
BRANCH   1  15
ATOM     15  C   LIG A   1      -7.107  -3.672 129.562  0.00  0.00    +0.000 C 
BRANCH  15  16
ATOM     16  C   LIG A   1      -8.476  -3.301 129.033  0.00  0.00    +0.000 C 
BRANCH  16  17
ATOM     17  C   LIG A   1      -8.989  -3.980 127.795  0.00  0.00    +0.000 C 
BRANCH  17  18
ATOM     18  C   LIG A   1      -8.862  -3.064 126.558  0.00  0.00    +0.004 C 
BRANCH  18  19
ATOM     19  C   LIG A   1      -8.567  -3.852 125.232  0.00  0.00    +0.027 C 
BRANCH  19  21
ATOM     20  C   LIG A   1      -9.008  -2.410 123.128  0.00  0.00    -0.031 C 
ATOM     21  C   LIG A   1      -9.284  -3.419 123.981  0.00  0.00    -0.031 C 
BRANCH  20  22
ATOM     22  C   LIG A   1      -8.018  -1.264 123.078  0.00  0.00    +0.027 C 
BRANCH  22  23
ATOM     23  C   LIG A   1      -6.500  -1.414 122.968  0.00  0.00    +0.004 C 
BRANCH  23  24
ATOM     24  C   LIG A   1      -5.838  -1.483 124.372  0.00  0.00    +0.000 C 
BRANCH  24  25
ATOM     25  C   LIG A   1      -5.221  -2.853 124.675  0.00  0.00    -0.000 C 
BRANCH  25  27
ATOM     26  C   LIG A   1      -4.425  -4.938 123.510  0.00  0.00    +0.004 C 
ATOM     27  C   LIG A   1      -4.435  -3.421 123.491  0.00  0.00    -0.003 C 
ENDBRANCH  25  27
ENDBRANCH  24  25
ENDBRANCH  23  24
ENDBRANCH  22  23
ENDBRANCH  20  22
ENDBRANCH  19  21
ENDBRANCH  18  19
ENDBRANCH  17  18
ENDBRANCH  16  17
ENDBRANCH  15  16
ENDBRANCH   1  15
TORSDOF 16
ENDMDL
MODEL 4
REMARK VINA RESULT:      -5.9      2.166      3.939
REMARK  Name = NuBBE_1689
REMARK  17 active torsions:
REMARK  status: ('A' for Active; 'I' for Inactive)
REMARK    1  A    between atoms: C_1  and  C_2
REMARK    2  A    between atoms: C_2  and  C_3
REMARK    3  A    between atoms: C_3  and  C_4
REMARK    4  A    between atoms: C_4  and  C_5
REMARK    5  A    between atoms: C_5  and  C_6
REMARK    6  A    between atoms: C_6  and  C_7
REMARK    7  A    between atoms: C_8  and  C_9
REMARK    8  A    between atoms: C_9  and  C_10
REMARK    9  A    between atoms: C_10  and  C_11
REMARK   10  A    between atoms: C_11  and  C_12
REMARK   11  A    between atoms: C_12  and  C_13
REMARK   12  A    between atoms: C_13  and  C_14
REMARK   13  A    between atoms: C_14  and  C_15
REMARK   14  A    between atoms: C_15  and  C_16
REMARK   15  A    between atoms: C_17  and  C_18
REMARK   16  A    between atoms: C_18  and  O_19
REMARK   17  A    between atoms: C_21  and  O_22
REMARK                            x       y       z     vdW  Elec       q    Type
REMARK                         _______ _______ _______ _____ _____    ______ ____
ROOT
ATOM      1  C   LIG A   1      -5.276  -0.503 125.910  0.00  0.00    +0.005 C 
ENDROOT
BRANCH   1   2
ATOM      2  C   LIG A   1      -6.439   0.325 126.455  0.00  0.00    +0.036 C 
BRANCH   2   3
ATOM      3  C   LIG A   1      -7.146   1.272 125.516  0.00  0.00    -0.030 A 
ATOM      4  C   LIG A   1      -7.859   2.427 125.887  0.00  0.00    +0.103 A 
ATOM      5  C   LIG A   1      -8.259   3.332 124.894  0.00  0.00    +0.131 A 
ATOM      6  C   LIG A   1      -8.040   3.065 123.542  0.00  0.00    +0.046 A 
ATOM      7  C   LIG A   1      -7.407   1.892 123.158  0.00  0.00    +0.004 A 
ATOM      8  C   LIG A   1      -6.943   1.014 124.133  0.00  0.00    +0.005 A 
BRANCH   5   9
ATOM      9  O   LIG A   1      -8.910   4.506 125.173  0.00  0.00    -0.506 OA
ATOM     10  H   LIG A   1      -9.836   4.306 125.424  0.00  0.00    +0.292 HD
ENDBRANCH   5   9
BRANCH   4  11
ATOM     11  C   LIG A   1      -8.259   2.799 127.278  0.00  0.00    +0.341 C 
ATOM     12  O   LIG A   1      -8.044   3.836 127.809  0.00  0.00    -0.245 OA
BRANCH  11  13
ATOM     13  O   LIG A   1      -9.064   1.875 127.848  0.00  0.00    -0.477 OA
ATOM     14  H   LIG A   1      -9.286   2.248 128.727  0.00  0.00    +0.295 HD
ENDBRANCH  11  13
ENDBRANCH   4  11
ENDBRANCH   2   3
ENDBRANCH   1   2
BRANCH   1  15
ATOM     15  C   LIG A   1      -5.508  -1.993 125.872  0.00  0.00    +0.000 C 
BRANCH  15  16
ATOM     16  C   LIG A   1      -5.329  -2.398 124.424  0.00  0.00    +0.000 C 
BRANCH  16  17
ATOM     17  C   LIG A   1      -6.373  -3.261 123.773  0.00  0.00    +0.000 C 
BRANCH  17  18
ATOM     18  C   LIG A   1      -7.487  -2.406 123.131  0.00  0.00    +0.004 C 
BRANCH  18  19
ATOM     19  C   LIG A   1      -8.889  -2.605 123.810  0.00  0.00    +0.027 C 
BRANCH  19  21
ATOM     20  C   LIG A   1      -9.051  -2.247 126.369  0.00  0.00    -0.031 C 
ATOM     21  C   LIG A   1      -9.168  -1.852 125.084  0.00  0.00    -0.031 C 
BRANCH  20  22
ATOM     22  C   LIG A   1      -8.729  -3.542 127.087  0.00  0.00    +0.027 C 
BRANCH  22  23
ATOM     23  C   LIG A   1      -8.266  -3.653 128.541  0.00  0.00    +0.004 C 
BRANCH  23  24
ATOM     24  C   LIG A   1      -7.979  -2.253 129.148  0.00  0.00    +0.000 C 
BRANCH  24  25
ATOM     25  C   LIG A   1      -6.485  -1.996 129.377  0.00  0.00    -0.000 C 
BRANCH  25  27
ATOM     26  C   LIG A   1      -4.186  -3.007 129.204  0.00  0.00    +0.004 C 
ATOM     27  C   LIG A   1      -5.663  -3.286 129.411  0.00  0.00    -0.003 C 
ENDBRANCH  25  27
ENDBRANCH  24  25
ENDBRANCH  23  24
ENDBRANCH  22  23
ENDBRANCH  20  22
ENDBRANCH  19  21
ENDBRANCH  18  19
ENDBRANCH  17  18
ENDBRANCH  16  17
ENDBRANCH  15  16
ENDBRANCH   1  15
TORSDOF 16
ENDMDL
MODEL 5
REMARK VINA RESULT:      -5.9      1.634      2.380
REMARK  Name = NuBBE_1689
REMARK  17 active torsions:
REMARK  status: ('A' for Active; 'I' for Inactive)
REMARK    1  A    between atoms: C_1  and  C_2
REMARK    2  A    between atoms: C_2  and  C_3
REMARK    3  A    between atoms: C_3  and  C_4
REMARK    4  A    between atoms: C_4  and  C_5
REMARK    5  A    between atoms: C_5  and  C_6
REMARK    6  A    between atoms: C_6  and  C_7
REMARK    7  A    between atoms: C_8  and  C_9
REMARK    8  A    between atoms: C_9  and  C_10
REMARK    9  A    between atoms: C_10  and  C_11
REMARK   10  A    between atoms: C_11  and  C_12
REMARK   11  A    between atoms: C_12  and  C_13
REMARK   12  A    between atoms: C_13  and  C_14
REMARK   13  A    between atoms: C_14  and  C_15
REMARK   14  A    between atoms: C_15  and  C_16
REMARK   15  A    between atoms: C_17  and  C_18
REMARK   16  A    between atoms: C_18  and  O_19
REMARK   17  A    between atoms: C_21  and  O_22
REMARK                            x       y       z     vdW  Elec       q    Type
REMARK                         _______ _______ _______ _____ _____    ______ ____
ROOT
ATOM      1  C   LIG A   1      -6.541  -0.138 127.309  0.00  0.00    +0.005 C 
ENDROOT
BRANCH   1   2
ATOM      2  C   LIG A   1      -5.700   0.982 126.701  0.00  0.00    +0.036 C 
BRANCH   2   3
ATOM      3  C   LIG A   1      -6.175   1.620 125.418  0.00  0.00    -0.030 A 
ATOM      4  C   LIG A   1      -5.917   2.940 125.004  0.00  0.00    +0.103 A 
ATOM      5  C   LIG A   1      -6.222   3.315 123.687  0.00  0.00    +0.131 A 
ATOM      6  C   LIG A   1      -6.854   2.432 122.812  0.00  0.00    +0.046 A 
ATOM      7  C   LIG A   1      -7.185   1.152 123.232  0.00  0.00    +0.004 A 
ATOM      8  C   LIG A   1      -6.830   0.740 124.513  0.00  0.00    +0.005 A 
BRANCH   5   9
ATOM      9  O   LIG A   1      -5.954   4.563 123.187  0.00  0.00    -0.506 OA
ATOM     10  H   LIG A   1      -5.271   4.487 122.489  0.00  0.00    +0.292 HD
ENDBRANCH   5   9
BRANCH   4  11
ATOM     11  C   LIG A   1      -5.342   4.026 125.853  0.00  0.00    +0.341 C 
ATOM     12  O   LIG A   1      -4.243   4.055 126.293  0.00  0.00    -0.245 OA
BRANCH  11  13
ATOM     13  O   LIG A   1      -6.161   5.097 125.945  0.00  0.00    -0.477 OA
ATOM     14  H   LIG A   1      -6.131   5.352 126.891  0.00  0.00    +0.295 HD
ENDBRANCH  11  13
ENDBRANCH   4  11
ENDBRANCH   2   3
ENDBRANCH   1   2
BRANCH   1  15
ATOM     15  C   LIG A   1      -7.848   0.298 127.924  0.00  0.00    +0.000 C 
BRANCH  15  16
ATOM     16  C   LIG A   1      -7.756  -0.076 129.388  0.00  0.00    +0.000 C 
BRANCH  16  17
ATOM     17  C   LIG A   1      -6.863  -1.214 129.797  0.00  0.00    +0.000 C 
BRANCH  17  18
ATOM     18  C   LIG A   1      -7.666  -2.519 129.982  0.00  0.00    +0.004 C 
BRANCH  18  19
ATOM     19  C   LIG A   1      -7.593  -3.474 128.737  0.00  0.00    +0.027 C 
BRANCH  19  21
ATOM     20  C   LIG A   1      -9.248  -3.424 126.747  0.00  0.00    -0.031 C 
ATOM     21  C   LIG A   1      -8.871  -3.766 127.997  0.00  0.00    -0.031 C 
BRANCH  20  22
ATOM     22  C   LIG A   1      -8.681  -2.567 125.633  0.00  0.00    +0.027 C 
BRANCH  22  23
ATOM     23  C   LIG A   1      -8.256  -3.079 124.256  0.00  0.00    +0.004 C 
BRANCH  23  24
ATOM     24  C   LIG A   1      -6.800  -3.620 124.282  0.00  0.00    +0.000 C 
BRANCH  24  25
ATOM     25  C   LIG A   1      -5.808  -2.702 123.558  0.00  0.00    -0.000 C 
BRANCH  25  27
ATOM     26  C   LIG A   1      -4.387  -4.780 123.583  0.00  0.00    +0.004 C 
ATOM     27  C   LIG A   1      -4.384  -3.263 123.549  0.00  0.00    -0.003 C 
ENDBRANCH  25  27
ENDBRANCH  24  25
ENDBRANCH  23  24
ENDBRANCH  22  23
ENDBRANCH  20  22
ENDBRANCH  19  21
ENDBRANCH  18  19
ENDBRANCH  17  18
ENDBRANCH  16  17
ENDBRANCH  15  16
ENDBRANCH   1  15
TORSDOF 16
ENDMDL
MODEL 6
REMARK VINA RESULT:      -5.8      1.938      4.903
REMARK  Name = NuBBE_1689
REMARK  17 active torsions:
REMARK  status: ('A' for Active; 'I' for Inactive)
REMARK    1  A    between atoms: C_1  and  C_2
REMARK    2  A    between atoms: C_2  and  C_3
REMARK    3  A    between atoms: C_3  and  C_4
REMARK    4  A    between atoms: C_4  and  C_5
REMARK    5  A    between atoms: C_5  and  C_6
REMARK    6  A    between atoms: C_6  and  C_7
REMARK    7  A    between atoms: C_8  and  C_9
REMARK    8  A    between atoms: C_9  and  C_10
REMARK    9  A    between atoms: C_10  and  C_11
REMARK   10  A    between atoms: C_11  and  C_12
REMARK   11  A    between atoms: C_12  and  C_13
REMARK   12  A    between atoms: C_13  and  C_14
REMARK   13  A    between atoms: C_14  and  C_15
REMARK   14  A    between atoms: C_15  and  C_16
REMARK   15  A    between atoms: C_17  and  C_18
REMARK   16  A    between atoms: C_18  and  O_19
REMARK   17  A    between atoms: C_21  and  O_22
REMARK                            x       y       z     vdW  Elec       q    Type
REMARK                         _______ _______ _______ _____ _____    ______ ____
ROOT
ATOM      1  C   LIG A   1      -5.558  -0.481 125.527  0.00  0.00    +0.005 C 
ENDROOT
BRANCH   1   2
ATOM      2  C   LIG A   1      -6.660   0.513 125.167  0.00  0.00    +0.036 C 
BRANCH   2   3
ATOM      3  C   LIG A   1      -6.386   1.986 125.355  0.00  0.00    -0.030 A 
ATOM      4  C   LIG A   1      -7.276   3.037 125.065  0.00  0.00    +0.103 A 
ATOM      5  C   LIG A   1      -6.972   4.331 125.510  0.00  0.00    +0.131 A 
ATOM      6  C   LIG A   1      -5.768   4.610 126.156  0.00  0.00    +0.046 A 
ATOM      7  C   LIG A   1      -4.847   3.597 126.379  0.00  0.00    +0.004 A 
ATOM      8  C   LIG A   1      -5.160   2.294 126.004  0.00  0.00    +0.005 A 
BRANCH   5   9
ATOM      9  O   LIG A   1      -7.808   5.401 125.318  0.00  0.00    -0.506 OA
ATOM     10  H   LIG A   1      -8.561   5.121 124.757  0.00  0.00    +0.292 HD
ENDBRANCH   5   9
BRANCH   4  11
ATOM     11  C   LIG A   1      -8.551   2.917 124.295  0.00  0.00    +0.341 C 
ATOM     12  O   LIG A   1      -9.561   2.444 124.694  0.00  0.00    -0.245 OA
BRANCH  11  13
ATOM     13  O   LIG A   1      -8.503   3.568 123.112  0.00  0.00    -0.477 OA
ATOM     14  H   LIG A   1      -7.590   3.921 123.060  0.00  0.00    +0.295 HD
ENDBRANCH  11  13
ENDBRANCH   4  11
ENDBRANCH   2   3
ENDBRANCH   1   2
BRANCH   1  15
ATOM     15  C   LIG A   1      -5.437  -1.671 124.609  0.00  0.00    +0.000 C 
BRANCH  15  16
ATOM     16  C   LIG A   1      -6.370  -2.721 125.174  0.00  0.00    +0.000 C 
BRANCH  16  17
ATOM     17  C   LIG A   1      -7.293  -3.456 124.243  0.00  0.00    +0.000 C 
BRANCH  17  18
ATOM     18  C   LIG A   1      -8.710  -3.583 124.841  0.00  0.00    +0.004 C 
BRANCH  18  19
ATOM     19  C   LIG A   1      -8.861  -2.872 126.233  0.00  0.00    +0.027 C 
BRANCH  19  21
ATOM     20  C   LIG A   1      -8.442  -3.612 128.678  0.00  0.00    -0.031 C 
ATOM     21  C   LIG A   1      -9.000  -3.739 127.456  0.00  0.00    -0.031 C 
BRANCH  20  22
ATOM     22  C   LIG A   1      -7.415  -2.700 129.319  0.00  0.00    +0.027 C 
BRANCH  22  23
ATOM     23  C   LIG A   1      -7.667  -1.254 129.750  0.00  0.00    +0.004 C 
BRANCH  23  24
ATOM     24  C   LIG A   1      -7.580  -0.284 128.540  0.00  0.00    +0.000 C 
BRANCH  24  25
ATOM     25  C   LIG A   1      -7.345   1.173 128.958  0.00  0.00    -0.000 C 
BRANCH  25  27
ATOM     26  C   LIG A   1      -8.739   3.206 129.462  0.00  0.00    +0.004 C 
ATOM     27  C   LIG A   1      -8.439   2.115 128.452  0.00  0.00    -0.003 C 
ENDBRANCH  25  27
ENDBRANCH  24  25
ENDBRANCH  23  24
ENDBRANCH  22  23
ENDBRANCH  20  22
ENDBRANCH  19  21
ENDBRANCH  18  19
ENDBRANCH  17  18
ENDBRANCH  16  17
ENDBRANCH  15  16
ENDBRANCH   1  15
TORSDOF 16
ENDMDL
MODEL 7
REMARK VINA RESULT:      -5.8      2.779      5.918
REMARK  Name = NuBBE_1689
REMARK  17 active torsions:
REMARK  status: ('A' for Active; 'I' for Inactive)
REMARK    1  A    between atoms: C_1  and  C_2
REMARK    2  A    between atoms: C_2  and  C_3
REMARK    3  A    between atoms: C_3  and  C_4
REMARK    4  A    between atoms: C_4  and  C_5
REMARK    5  A    between atoms: C_5  and  C_6
REMARK    6  A    between atoms: C_6  and  C_7
REMARK    7  A    between atoms: C_8  and  C_9
REMARK    8  A    between atoms: C_9  and  C_10
REMARK    9  A    between atoms: C_10  and  C_11
REMARK   10  A    between atoms: C_11  and  C_12
REMARK   11  A    between atoms: C_12  and  C_13
REMARK   12  A    between atoms: C_13  and  C_14
REMARK   13  A    between atoms: C_14  and  C_15
REMARK   14  A    between atoms: C_15  and  C_16
REMARK   15  A    between atoms: C_17  and  C_18
REMARK   16  A    between atoms: C_18  and  O_19
REMARK   17  A    between atoms: C_21  and  O_22
REMARK                            x       y       z     vdW  Elec       q    Type
REMARK                         _______ _______ _______ _____ _____    ______ ____
ROOT
ATOM      1  C   LIG A   1      -8.885  -3.061 126.871  0.00  0.00    +0.005 C 
ENDROOT
BRANCH   1   2
ATOM      2  C   LIG A   1      -8.654  -3.768 125.538  0.00  0.00    +0.036 C 
BRANCH   2   3
ATOM      3  C   LIG A   1      -7.687  -3.149 124.557  0.00  0.00    -0.030 A 
ATOM      4  C   LIG A   1      -7.841  -1.906 123.914  0.00  0.00    +0.103 A 
ATOM      5  C   LIG A   1      -6.756  -1.359 123.216  0.00  0.00    +0.131 A 
ATOM      6  C   LIG A   1      -5.559  -2.061 123.074  0.00  0.00    +0.046 A 
ATOM      7  C   LIG A   1      -5.420  -3.322 123.637  0.00  0.00    +0.004 A 
ATOM      8  C   LIG A   1      -6.463  -3.853 124.390  0.00  0.00    +0.005 A 
BRANCH   5   9
ATOM      9  O   LIG A   1      -6.803  -0.131 122.607  0.00  0.00    -0.506 OA
ATOM     10  H   LIG A   1      -7.731   0.068 122.364  0.00  0.00    +0.292 HD
ENDBRANCH   5   9
BRANCH   4  11
ATOM     11  C   LIG A   1      -9.089  -1.084 123.887  0.00  0.00    +0.341 C 
ATOM     12  O   LIG A   1      -9.454  -0.349 124.741  0.00  0.00    -0.245 OA
BRANCH  11  13
ATOM     13  O   LIG A   1      -9.709  -1.126 122.687  0.00  0.00    -0.477 OA
ATOM     14  H   LIG A   1     -10.506  -1.675 122.839  0.00  0.00    +0.295 HD
ENDBRANCH  11  13
ENDBRANCH   4  11
ENDBRANCH   2   3
ENDBRANCH   1   2
BRANCH   1  15
ATOM     15  C   LIG A   1      -8.996  -3.969 128.071  0.00  0.00    +0.000 C 
BRANCH  15  16
ATOM     16  C   LIG A   1      -8.316  -3.233 129.206  0.00  0.00    +0.000 C 
BRANCH  16  17
ATOM     17  C   LIG A   1      -7.004  -3.747 129.728  0.00  0.00    +0.000 C 
BRANCH  17  18
ATOM     18  C   LIG A   1      -6.035  -2.589 130.050  0.00  0.00    +0.004 C 
BRANCH  18  19
ATOM     19  C   LIG A   1      -4.853  -2.466 129.024  0.00  0.00    +0.027 C 
BRANCH  19  21
ATOM     20  C   LIG A   1      -5.483  -1.271 126.815  0.00  0.00    -0.031 C 
ATOM     21  C   LIG A   1      -5.198  -2.358 127.562  0.00  0.00    -0.031 C 
BRANCH  20  22
ATOM     22  C   LIG A   1      -5.690   0.208 127.076  0.00  0.00    +0.027 C 
BRANCH  22  23
ATOM     23  C   LIG A   1      -6.973   0.985 126.777  0.00  0.00    +0.004 C 
BRANCH  23  24
ATOM     24  C   LIG A   1      -8.135   0.529 127.701  0.00  0.00    +0.000 C 
BRANCH  24  25
ATOM     25  C   LIG A   1      -7.741   0.486 129.182  0.00  0.00    -0.000 C 
BRANCH  25  27
ATOM     26  C   LIG A   1      -8.967   2.650 129.567  0.00  0.00    +0.004 C 
ATOM     27  C   LIG A   1      -7.687   1.876 129.819  0.00  0.00    -0.003 C 
ENDBRANCH  25  27
ENDBRANCH  24  25
ENDBRANCH  23  24
ENDBRANCH  22  23
ENDBRANCH  20  22
ENDBRANCH  19  21
ENDBRANCH  18  19
ENDBRANCH  17  18
ENDBRANCH  16  17
ENDBRANCH  15  16
ENDBRANCH   1  15
TORSDOF 16
ENDMDL
MODEL 8
REMARK VINA RESULT:      -5.8      4.772      7.634
REMARK  Name = NuBBE_1689
REMARK  17 active torsions:
REMARK  status: ('A' for Active; 'I' for Inactive)
REMARK    1  A    between atoms: C_1  and  C_2
REMARK    2  A    between atoms: C_2  and  C_3
REMARK    3  A    between atoms: C_3  and  C_4
REMARK    4  A    between atoms: C_4  and  C_5
REMARK    5  A    between atoms: C_5  and  C_6
REMARK    6  A    between atoms: C_6  and  C_7
REMARK    7  A    between atoms: C_8  and  C_9
REMARK    8  A    between atoms: C_9  and  C_10
REMARK    9  A    between atoms: C_10  and  C_11
REMARK   10  A    between atoms: C_11  and  C_12
REMARK   11  A    between atoms: C_12  and  C_13
REMARK   12  A    between atoms: C_13  and  C_14
REMARK   13  A    between atoms: C_14  and  C_15
REMARK   14  A    between atoms: C_15  and  C_16
REMARK   15  A    between atoms: C_17  and  C_18
REMARK   16  A    between atoms: C_18  and  O_19
REMARK   17  A    between atoms: C_21  and  O_22
REMARK                            x       y       z     vdW  Elec       q    Type
REMARK                         _______ _______ _______ _____ _____    ______ ____
ROOT
ATOM      1  C   LIG A   1      -8.415  -2.905 128.684  0.00  0.00    +0.005 C 
ENDROOT
BRANCH   1   2
ATOM      2  C   LIG A   1      -7.659  -3.528 129.856  0.00  0.00    +0.036 C 
BRANCH   2   3
ATOM      3  C   LIG A   1      -6.169  -3.300 129.949  0.00  0.00    -0.030 A 
ATOM      4  C   LIG A   1      -5.355  -3.587 131.061  0.00  0.00    +0.103 A 
ATOM      5  C   LIG A   1      -3.961  -3.543 130.917  0.00  0.00    +0.131 A 
ATOM      6  C   LIG A   1      -3.370  -3.137 129.721  0.00  0.00    +0.046 A 
ATOM      7  C   LIG A   1      -4.162  -2.777 128.640  0.00  0.00    +0.004 A 
ATOM      8  C   LIG A   1      -5.546  -2.878 128.743  0.00  0.00    +0.005 A 
BRANCH   5   9
ATOM      9  O   LIG A   1      -3.097  -3.859 131.933  0.00  0.00    -0.506 OA
ATOM     10  H   LIG A   1      -3.614  -4.091 132.732  0.00  0.00    +0.292 HD
ENDBRANCH   5   9
BRANCH   4  11
ATOM     11  C   LIG A   1      -5.838  -3.935 132.432  0.00  0.00    +0.341 C 
ATOM     12  O   LIG A   1      -6.479  -3.235 133.141  0.00  0.00    -0.245 OA
BRANCH  11  13
ATOM     13  O   LIG A   1      -5.613  -5.230 132.745  0.00  0.00    -0.477 OA
ATOM     14  H   LIG A   1      -6.220  -5.414 133.492  0.00  0.00    +0.295 HD
ENDBRANCH  11  13
ENDBRANCH   4  11
ENDBRANCH   2   3
ENDBRANCH   1   2
BRANCH   1  15
ATOM     15  C   LIG A   1      -9.099  -3.886 127.765  0.00  0.00    +0.000 C 
BRANCH  15  16
ATOM     16  C   LIG A   1      -8.564  -3.591 126.380  0.00  0.00    +0.000 C 
BRANCH  16  17
ATOM     17  C   LIG A   1      -9.468  -2.941 125.370  0.00  0.00    +0.000 C 
BRANCH  17  18
ATOM     18  C   LIG A   1      -9.035  -3.282 123.928  0.00  0.00    +0.004 C 
BRANCH  18  19
ATOM     19  C   LIG A   1      -8.486  -2.042 123.137  0.00  0.00    +0.027 C 
BRANCH  19  21
ATOM     20  C   LIG A   1      -5.921  -2.049 123.481  0.00  0.00    -0.031 C 
ATOM     21  C   LIG A   1      -7.038  -2.054 122.724  0.00  0.00    -0.031 C 
BRANCH  20  22
ATOM     22  C   LIG A   1      -5.603  -1.924 124.957  0.00  0.00    +0.027 C 
BRANCH  22  23
ATOM     23  C   LIG A   1      -5.405  -0.607 125.709  0.00  0.00    +0.004 C 
BRANCH  23  24
ATOM     24  C   LIG A   1      -6.658   0.303 125.588  0.00  0.00    +0.000 C 
BRANCH  24  25
ATOM     25  C   LIG A   1      -7.670   0.079 126.718  0.00  0.00    -0.000 C 
BRANCH  25  27
ATOM     26  C   LIG A   1      -8.116   1.236 128.909  0.00  0.00    +0.004 C 
ATOM     27  C   LIG A   1      -7.109   0.446 128.094  0.00  0.00    -0.003 C 
ENDBRANCH  25  27
ENDBRANCH  24  25
ENDBRANCH  23  24
ENDBRANCH  22  23
ENDBRANCH  20  22
ENDBRANCH  19  21
ENDBRANCH  18  19
ENDBRANCH  17  18
ENDBRANCH  16  17
ENDBRANCH  15  16
ENDBRANCH   1  15
TORSDOF 16
ENDMDL
MODEL 9
REMARK VINA RESULT:      -5.8      2.446      3.548
REMARK  Name = NuBBE_1689
REMARK  17 active torsions:
REMARK  status: ('A' for Active; 'I' for Inactive)
REMARK    1  A    between atoms: C_1  and  C_2
REMARK    2  A    between atoms: C_2  and  C_3
REMARK    3  A    between atoms: C_3  and  C_4
REMARK    4  A    between atoms: C_4  and  C_5
REMARK    5  A    between atoms: C_5  and  C_6
REMARK    6  A    between atoms: C_6  and  C_7
REMARK    7  A    between atoms: C_8  and  C_9
REMARK    8  A    between atoms: C_9  and  C_10
REMARK    9  A    between atoms: C_10  and  C_11
REMARK   10  A    between atoms: C_11  and  C_12
REMARK   11  A    between atoms: C_12  and  C_13
REMARK   12  A    between atoms: C_13  and  C_14
REMARK   13  A    between atoms: C_14  and  C_15
REMARK   14  A    between atoms: C_15  and  C_16
REMARK   15  A    between atoms: C_17  and  C_18
REMARK   16  A    between atoms: C_18  and  O_19
REMARK   17  A    between atoms: C_21  and  O_22
REMARK                            x       y       z     vdW  Elec       q    Type
REMARK                         _______ _______ _______ _____ _____    ______ ____
ROOT
ATOM      1  C   LIG A   1      -7.144  -0.966 129.586  0.00  0.00    +0.005 C 
ENDROOT
BRANCH   1   2
ATOM      2  C   LIG A   1      -7.809   0.393 129.794  0.00  0.00    +0.036 C 
BRANCH   2   3
ATOM      3  C   LIG A   1      -7.873   1.346 128.625  0.00  0.00    -0.030 A 
ATOM      4  C   LIG A   1      -8.241   2.703 128.682  0.00  0.00    +0.103 A 
ATOM      5  C   LIG A   1      -8.027   3.516 127.560  0.00  0.00    +0.131 A 
ATOM      6  C   LIG A   1      -7.539   2.987 126.365  0.00  0.00    +0.046 A 
ATOM      7  C   LIG A   1      -7.245   1.634 126.272  0.00  0.00    +0.004 A 
ATOM      8  C   LIG A   1      -7.388   0.824 127.394  0.00  0.00    +0.005 A 
BRANCH   5   9
ATOM      9  O   LIG A   1      -8.307   4.859 127.548  0.00  0.00    -0.506 OA
ATOM     10  H   LIG A   1      -8.112   5.217 126.658  0.00  0.00    +0.292 HD
ENDBRANCH   5   9
BRANCH   4  11
ATOM     11  C   LIG A   1      -8.869   3.391 129.850  0.00  0.00    +0.341 C 
ATOM     12  O   LIG A   1      -8.321   4.127 130.599  0.00  0.00    -0.245 OA
BRANCH  11  13
ATOM     13  O   LIG A   1     -10.210   3.225 129.887  0.00  0.00    -0.477 OA
ATOM     14  H   LIG A   1     -10.353   2.507 130.540  0.00  0.00    +0.295 HD
ENDBRANCH  11  13
ENDBRANCH   4  11
ENDBRANCH   2   3
ENDBRANCH   1   2
BRANCH   1  15
ATOM     15  C   LIG A   1      -8.038  -2.162 129.807  0.00  0.00    +0.000 C 
BRANCH  15  16
ATOM     16  C   LIG A   1      -7.751  -3.105 128.659  0.00  0.00    +0.000 C 
BRANCH  16  17
ATOM     17  C   LIG A   1      -7.902  -2.607 127.249  0.00  0.00    +0.000 C 
BRANCH  17  18
ATOM     18  C   LIG A   1      -9.020  -3.365 126.502  0.00  0.00    +0.004 C 
BRANCH  18  19
ATOM     19  C   LIG A   1      -8.589  -3.853 125.073  0.00  0.00    +0.027 C 
BRANCH  19  21
ATOM     20  C   LIG A   1      -9.087  -2.230 123.119  0.00  0.00    -0.031 C 
ATOM     21  C   LIG A   1      -9.340  -3.311 123.886  0.00  0.00    -0.031 C 
BRANCH  20  22
ATOM     22  C   LIG A   1      -8.095  -1.085 123.141  0.00  0.00    +0.027 C 
BRANCH  22  23
ATOM     23  C   LIG A   1      -6.578  -1.228 123.004  0.00  0.00    +0.004 C 
BRANCH  23  24
ATOM     24  C   LIG A   1      -5.891  -1.286 124.396  0.00  0.00    +0.000 C 
BRANCH  24  25
ATOM     25  C   LIG A   1      -5.197  -2.626 124.666  0.00  0.00    -0.000 C 
BRANCH  25  27
ATOM     26  C   LIG A   1      -4.136  -4.619 123.554  0.00  0.00    +0.004 C 
ATOM     27  C   LIG A   1      -5.207  -3.551 123.446  0.00  0.00    -0.003 C 
ENDBRANCH  25  27
ENDBRANCH  24  25
ENDBRANCH  23  24
ENDBRANCH  22  23
ENDBRANCH  20  22
ENDBRANCH  19  21
ENDBRANCH  18  19
ENDBRANCH  17  18
ENDBRANCH  16  17
ENDBRANCH  15  16
ENDBRANCH   1  15
TORSDOF 16
ENDMDL
