MODEL 1
REMARK VINA RESULT:      -8.4      0.000      0.000
REMARK  Name = NuBBE_57
REMARK  19 active torsions:
REMARK  status: ('A' for Active; 'I' for Inactive)
REMARK    1  A    between atoms: C_1  and  C_2
REMARK    2  A    between atoms: C_2  and  O_3
REMARK    3  A    between atoms: O_3  and  C_4
REMARK    4  A    between atoms: C_8  and  O_10
REMARK    5  A    between atoms: O_10  and  C_11
REMARK    6  A    between atoms: C_11  and  C_12
REMARK    7  A    between atoms: C_15  and  O_17
REMARK    8  A    between atoms: O_17  and  C_18
REMARK    9  A    between atoms: C_18  and  C_19
REMARK   10  A    between atoms: C_22  and  O_24
REMARK   11  A    between atoms: O_24  and  C_25
REMARK   12  A    between atoms: C_25  and  C_26
REMARK   13  A    between atoms: C_29  and  O_30
REMARK   14  A    between atoms: C_35  and  C_37
REMARK   15  A    between atoms: C_38  and  C_39
REMARK   16  A    between atoms: C_38  and  C_40
REMARK   17  A    between atoms: C_40  and  C_41
REMARK   18  A    between atoms: C_42  and  C_43
REMARK   19  A    between atoms: C_42  and  C_44
REMARK                            x       y       z     vdW  Elec       q    Type
REMARK                         _______ _______ _______ _____ _____    ______ ____
ROOT
ATOM      1  C   LIG A   1      -8.656   4.120 129.550  0.00  0.00    +0.200 C 
ATOM      2  C   LIG A   1      -9.325   2.788 129.634  0.00  0.00    +0.023 C 
ATOM      3  C   LIG A   1      -8.443   1.795 129.830  0.00  0.00    +0.013 C 
ATOM      4  C   LIG A   1      -7.539   1.599 131.065  0.00  0.00    +0.343 C 
ATOM      5  O   LIG A   1      -6.435   0.826 130.581  0.00  0.00    -0.297 OA
ATOM      6  C   LIG A   1      -6.967   0.155 129.436  0.00  0.00    +0.328 C 
ATOM      7  C   LIG A   1      -7.627   1.311 128.609  0.00  0.00    +0.100 C 
ATOM      8  C   LIG A   1      -8.382   0.692 127.398  0.00  0.00    +0.194 C 
ATOM      9  C   LIG A   1      -8.635   1.690 126.269  0.00  0.00    +0.049 C 
ATOM     10  C   LIG A   1      -7.397   2.390 125.657  0.00  0.00    -0.004 C 
ATOM     11  C   LIG A   1      -7.948   3.531 124.783  0.00  0.00    +0.008 C 
ATOM     12  C   LIG A   1      -6.247   2.746 126.701  0.00  0.00    -0.022 C 
ATOM     13  C   LIG A   1      -5.136   1.655 126.558  0.00  0.00    +0.012 C 
ATOM     14  C   LIG A   1      -6.800   2.663 128.200  0.00  0.00    +0.019 C 
ATOM     15  C   LIG A   1      -7.631   3.997 128.423  0.00  0.00    +0.054 C 
ENDROOT
BRANCH   1  16
ATOM     16  O   LIG A   1      -9.570   5.176 129.228  0.00  0.00    -0.457 OA
BRANCH  16  18
ATOM     17  C   LIG A   1      -9.191   6.568 131.070  0.00  0.00    +0.136 C 
ATOM     18  C   LIG A   1     -10.182   5.754 130.300  0.00  0.00    +0.304 C 
ATOM     19  O   LIG A   1     -11.347   5.606 130.630  0.00  0.00    -0.251 OA
ENDBRANCH  16  18
ENDBRANCH   1  16
BRANCH   4  20
ATOM     20  O   LIG A   1      -7.099   2.840 131.596  0.00  0.00    -0.431 OA
BRANCH  20  21
ATOM     21  C   LIG A   1      -7.231   2.939 132.945  0.00  0.00    +0.306 C 
ATOM     22  C   LIG A   1      -8.652   3.246 133.321  0.00  0.00    +0.136 C 
ATOM     23  O   LIG A   1      -6.342   2.766 133.763  0.00  0.00    -0.251 OA
ENDBRANCH  20  21
ENDBRANCH   4  20
BRANCH   6  24
ATOM     24  O   LIG A   1      -8.051  -0.754 129.845  0.00  0.00    -0.434 OA
BRANCH  24  25
ATOM     25  C   LIG A   1      -7.764  -2.023 130.209  0.00  0.00    +0.306 C 
ATOM     26  C   LIG A   1      -8.182  -3.008 129.146  0.00  0.00    +0.136 C 
ATOM     27  O   LIG A   1      -7.278  -2.339 131.294  0.00  0.00    -0.251 OA
ENDBRANCH  24  25
ENDBRANCH   6  24
BRANCH   8  28
ATOM     28  O   LIG A   1      -7.636  -0.411 126.802  0.00  0.00    -0.457 OA
BRANCH  28  29
ATOM     29  C   LIG A   1      -8.299  -1.226 125.923  0.00  0.00    +0.340 C 
ATOM     30  O   LIG A   1      -9.488  -1.246 125.736  0.00  0.00    -0.245 OA
BRANCH  29  31
ATOM     31  C   LIG A   1      -7.337  -2.084 125.150  0.00  0.00    +0.059 A 
ATOM     32  C   LIG A   1      -6.120  -1.517 124.732  0.00  0.00    +0.018 A 
ATOM     33  C   LIG A   1      -5.141  -2.304 124.107  0.00  0.00    +0.046 A 
ATOM     34  C   LIG A   1      -5.385  -3.657 123.903  0.00  0.00    +0.117 A 
ATOM     35  C   LIG A   1      -6.599  -4.224 124.279  0.00  0.00    +0.046 A 
ATOM     36  C   LIG A   1      -7.576  -3.437 124.897  0.00  0.00    +0.018 A 
BRANCH  34  37
ATOM     37  O   LIG A   1      -4.452  -4.479 123.345  0.00  0.00    -0.507 OA
ATOM     38  H   LIG A   1      -3.942  -3.979 122.687  0.00  0.00    +0.292 HD
ENDBRANCH  34  37
ENDBRANCH  29  31
ENDBRANCH  28  29
ENDBRANCH   8  28
BRANCH  12  39
ATOM     39  C   LIG A   1      -5.462   4.144 126.396  0.00  0.00    +0.034 C 
BRANCH  39  40
ATOM     40  C   LIG A   1      -4.421   4.723 127.352  0.00  0.00    -0.023 C 
ATOM     41  C   LIG A   1      -3.095   4.513 127.490  0.00  0.00    -0.055 C 
ATOM     42  C   LIG A   1      -2.255   3.623 126.625  0.00  0.00    +0.043 C 
BRANCH  41  43
ATOM     43  C   LIG A   1      -2.423   5.184 128.601  0.00  0.00    -0.005 C 
ATOM     44  C   LIG A   1      -2.261   6.510 128.702  0.00  0.00    +0.008 C 
ENDBRANCH  41  43
ENDBRANCH  39  40
ENDBRANCH  12  39
TORSDOF 13
ENDMDL
MODEL 2
REMARK VINA RESULT:      -8.4      2.248      3.802
REMARK  Name = NuBBE_57
REMARK  19 active torsions:
REMARK  status: ('A' for Active; 'I' for Inactive)
REMARK    1  A    between atoms: C_1  and  C_2
REMARK    2  A    between atoms: C_2  and  O_3
REMARK    3  A    between atoms: O_3  and  C_4
REMARK    4  A    between atoms: C_8  and  O_10
REMARK    5  A    between atoms: O_10  and  C_11
REMARK    6  A    between atoms: C_11  and  C_12
REMARK    7  A    between atoms: C_15  and  O_17
REMARK    8  A    between atoms: O_17  and  C_18
REMARK    9  A    between atoms: C_18  and  C_19
REMARK   10  A    between atoms: C_22  and  O_24
REMARK   11  A    between atoms: O_24  and  C_25
REMARK   12  A    between atoms: C_25  and  C_26
REMARK   13  A    between atoms: C_29  and  O_30
REMARK   14  A    between atoms: C_35  and  C_37
REMARK   15  A    between atoms: C_38  and  C_39
REMARK   16  A    between atoms: C_38  and  C_40
REMARK   17  A    between atoms: C_40  and  C_41
REMARK   18  A    between atoms: C_42  and  C_43
REMARK   19  A    between atoms: C_42  and  C_44
REMARK                            x       y       z     vdW  Elec       q    Type
REMARK                         _______ _______ _______ _____ _____    ______ ____
ROOT
ATOM      1  C   LIG A   1      -8.096   4.083 129.279  0.00  0.00    +0.200 C 
ATOM      2  C   LIG A   1      -7.958   2.809 130.044  0.00  0.00    +0.023 C 
ATOM      3  C   LIG A   1      -6.721   2.296 129.947  0.00  0.00    +0.013 C 
ATOM      4  C   LIG A   1      -5.416   2.936 130.465  0.00  0.00    +0.343 C 
ATOM      5  O   LIG A   1      -4.388   2.363 129.652  0.00  0.00    -0.297 OA
ATOM      6  C   LIG A   1      -4.956   1.129 129.207  0.00  0.00    +0.328 C 
ATOM      7  C   LIG A   1      -6.354   1.554 128.641  0.00  0.00    +0.100 C 
ATOM      8  C   LIG A   1      -7.150   0.273 128.256  0.00  0.00    +0.194 C 
ATOM      9  C   LIG A   1      -8.279   0.538 127.261  0.00  0.00    +0.049 C 
ATOM     10  C   LIG A   1      -7.890   1.192 125.913  0.00  0.00    -0.004 C 
ATOM     11  C   LIG A   1      -9.214   1.612 125.252  0.00  0.00    +0.008 C 
ATOM     12  C   LIG A   1      -6.731   2.281 126.008  0.00  0.00    -0.022 C 
ATOM     13  C   LIG A   1      -5.408   1.594 125.537  0.00  0.00    +0.012 C 
ATOM     14  C   LIG A   1      -6.511   2.740 127.525  0.00  0.00    +0.019 C 
ATOM     15  C   LIG A   1      -7.698   3.746 127.842  0.00  0.00    +0.054 C 
ENDROOT
BRANCH   1  16
ATOM     16  O   LIG A   1      -9.439   4.583 129.279  0.00  0.00    -0.457 OA
BRANCH  16  18
ATOM     17  C   LIG A   1      -9.308   6.622 130.419  0.00  0.00    +0.136 C 
ATOM     18  C   LIG A   1      -9.550   5.931 129.115  0.00  0.00    +0.304 C 
ATOM     19  O   LIG A   1      -9.849   6.508 128.083  0.00  0.00    -0.251 OA
ENDBRANCH  16  18
ENDBRANCH   1  16
BRANCH   4  20
ATOM     20  O   LIG A   1      -5.438   4.351 130.337  0.00  0.00    -0.431 OA
BRANCH  20  21
ATOM     21  C   LIG A   1      -4.230   4.895 130.041  0.00  0.00    +0.306 C 
ATOM     22  C   LIG A   1      -4.225   5.460 128.650  0.00  0.00    +0.136 C 
ATOM     23  O   LIG A   1      -3.275   4.966 130.798  0.00  0.00    -0.251 OA
ENDBRANCH  20  21
ENDBRANCH   4  20
BRANCH   6  24
ATOM     24  O   LIG A   1      -5.209   0.247 130.359  0.00  0.00    -0.434 OA
BRANCH  24  25
ATOM     25  C   LIG A   1      -4.220  -0.541 130.833  0.00  0.00    +0.306 C 
ATOM     26  C   LIG A   1      -3.860  -0.179 132.253  0.00  0.00    +0.136 C 
ATOM     27  O   LIG A   1      -3.645  -1.404 130.172  0.00  0.00    -0.251 OA
ENDBRANCH  24  25
ENDBRANCH   6  24
BRANCH   8  28
ATOM     28  O   LIG A   1      -6.291  -0.730 127.634  0.00  0.00    -0.457 OA
BRANCH  28  29
ATOM     29  C   LIG A   1      -6.644  -2.046 127.776  0.00  0.00    +0.340 C 
ATOM     30  O   LIG A   1      -6.370  -2.754 128.710  0.00  0.00    -0.245 OA
BRANCH  29  31
ATOM     31  C   LIG A   1      -7.489  -2.506 126.622  0.00  0.00    +0.059 A 
ATOM     32  C   LIG A   1      -8.803  -2.936 126.882  0.00  0.00    +0.018 A 
ATOM     33  C   LIG A   1      -9.668  -3.267 125.829  0.00  0.00    +0.046 A 
ATOM     34  C   LIG A   1      -9.215  -3.168 124.519  0.00  0.00    +0.117 A 
ATOM     35  C   LIG A   1      -7.907  -2.780 124.248  0.00  0.00    +0.046 A 
ATOM     36  C   LIG A   1      -7.043  -2.454 125.299  0.00  0.00    +0.018 A 
BRANCH  34  37
ATOM     37  O   LIG A   1     -10.027  -3.431 123.457  0.00  0.00    -0.507 OA
ATOM     38  H   LIG A   1     -10.803  -3.927 123.766  0.00  0.00    +0.292 HD
ENDBRANCH  34  37
ENDBRANCH  29  31
ENDBRANCH  28  29
ENDBRANCH   8  28
BRANCH  12  39
ATOM     39  C   LIG A   1      -6.900   3.543 124.985  0.00  0.00    +0.034 C 
BRANCH  39  40
ATOM     40  C   LIG A   1      -6.275   3.555 123.592  0.00  0.00    -0.023 C 
ATOM     41  C   LIG A   1      -6.790   3.349 122.362  0.00  0.00    -0.055 C 
ATOM     42  C   LIG A   1      -8.232   3.089 122.049  0.00  0.00    +0.043 C 
BRANCH  41  43
ATOM     43  C   LIG A   1      -5.856   3.342 121.237  0.00  0.00    -0.005 C 
ATOM     44  C   LIG A   1      -5.423   4.440 120.603  0.00  0.00    +0.008 C 
ENDBRANCH  41  43
ENDBRANCH  39  40
ENDBRANCH  12  39
TORSDOF 13
ENDMDL
MODEL 3
REMARK VINA RESULT:      -8.2      3.255      8.351
REMARK  Name = NuBBE_57
REMARK  19 active torsions:
REMARK  status: ('A' for Active; 'I' for Inactive)
REMARK    1  A    between atoms: C_1  and  C_2
REMARK    2  A    between atoms: C_2  and  O_3
REMARK    3  A    between atoms: O_3  and  C_4
REMARK    4  A    between atoms: C_8  and  O_10
REMARK    5  A    between atoms: O_10  and  C_11
REMARK    6  A    between atoms: C_11  and  C_12
REMARK    7  A    between atoms: C_15  and  O_17
REMARK    8  A    between atoms: O_17  and  C_18
REMARK    9  A    between atoms: C_18  and  C_19
REMARK   10  A    between atoms: C_22  and  O_24
REMARK   11  A    between atoms: O_24  and  C_25
REMARK   12  A    between atoms: C_25  and  C_26
REMARK   13  A    between atoms: C_29  and  O_30
REMARK   14  A    between atoms: C_35  and  C_37
REMARK   15  A    between atoms: C_38  and  C_39
REMARK   16  A    between atoms: C_38  and  C_40
REMARK   17  A    between atoms: C_40  and  C_41
REMARK   18  A    between atoms: C_42  and  C_43
REMARK   19  A    between atoms: C_42  and  C_44
REMARK                            x       y       z     vdW  Elec       q    Type
REMARK                         _______ _______ _______ _____ _____    ______ ____
ROOT
ATOM      1  C   LIG A   1      -8.010   2.646 125.616  0.00  0.00    +0.200 C 
ATOM      2  C   LIG A   1      -7.756   3.992 126.211  0.00  0.00    +0.023 C 
ATOM      3  C   LIG A   1      -6.449   4.208 126.425  0.00  0.00    +0.013 C 
ATOM      4  C   LIG A   1      -5.343   4.296 125.353  0.00  0.00    +0.343 C 
ATOM      5  O   LIG A   1      -4.141   3.948 126.048  0.00  0.00    -0.297 OA
ATOM      6  C   LIG A   1      -4.437   4.259 127.412  0.00  0.00    +0.328 C 
ATOM      7  C   LIG A   1      -5.806   3.539 127.662  0.00  0.00    +0.100 C 
ATOM      8  C   LIG A   1      -6.323   3.923 129.078  0.00  0.00    +0.194 C 
ATOM      9  C   LIG A   1      -7.350   2.938 129.635  0.00  0.00    +0.049 C 
ATOM     10  C   LIG A   1      -6.913   1.457 129.753  0.00  0.00    -0.004 C 
ATOM     11  C   LIG A   1      -8.198   0.662 130.043  0.00  0.00    +0.008 C 
ATOM     12  C   LIG A   1      -5.972   0.942 128.575  0.00  0.00    -0.022 C 
ATOM     13  C   LIG A   1      -4.505   0.945 129.116  0.00  0.00    +0.012 C 
ATOM     14  C   LIG A   1      -6.020   1.950 127.333  0.00  0.00    +0.019 C 
ATOM     15  C   LIG A   1      -7.387   1.643 126.587  0.00  0.00    +0.054 C 
ENDROOT
BRANCH   1  16
ATOM     16  O   LIG A   1      -9.407   2.356 125.487  0.00  0.00    -0.457 OA
BRANCH  16  18
ATOM     17  C   LIG A   1      -9.587   1.661 123.260  0.00  0.00    +0.136 C 
ATOM     18  C   LIG A   1      -9.700   1.281 124.702  0.00  0.00    +0.304 C 
ATOM     19  O   LIG A   1     -10.051   0.180 125.091  0.00  0.00    -0.251 OA
ENDBRANCH  16  18
ENDBRANCH   1  16
BRANCH   4  20
ATOM     20  O   LIG A   1      -5.584   3.403 124.275  0.00  0.00    -0.431 OA
BRANCH  20  21
ATOM     21  C   LIG A   1      -5.620   4.006 123.058  0.00  0.00    +0.306 C 
ATOM     22  C   LIG A   1      -6.492   3.238 122.107  0.00  0.00    +0.136 C 
ATOM     23  O   LIG A   1      -5.062   5.051 122.764  0.00  0.00    -0.251 OA
ENDBRANCH  20  21
ENDBRANCH   4  20
BRANCH   6  24
ATOM     24  O   LIG A   1      -4.679   5.704 127.557  0.00  0.00    -0.434 OA
BRANCH  24  25
ATOM     25  C   LIG A   1      -3.724   6.496 128.093  0.00  0.00    +0.306 C 
ATOM     26  C   LIG A   1      -2.439   5.737 128.311  0.00  0.00    +0.136 C 
ATOM     27  O   LIG A   1      -3.900   7.670 128.417  0.00  0.00    -0.251 OA
ENDBRANCH  24  25
ENDBRANCH   6  24
BRANCH   8  28
ATOM     28  O   LIG A   1      -5.240   3.972 130.054  0.00  0.00    -0.457 OA
BRANCH  28  29
ATOM     29  C   LIG A   1      -5.371   4.838 131.108  0.00  0.00    +0.340 C 
ATOM     30  O   LIG A   1      -6.403   5.151 131.641  0.00  0.00    -0.245 OA
BRANCH  29  31
ATOM     31  C   LIG A   1      -4.029   5.326 131.577  0.00  0.00    +0.059 A 
ATOM     32  C   LIG A   1      -3.011   4.381 131.797  0.00  0.00    +0.018 A 
ATOM     33  C   LIG A   1      -1.711   4.793 132.126  0.00  0.00    +0.046 A 
ATOM     34  C   LIG A   1      -1.436   6.151 132.233  0.00  0.00    +0.117 A 
ATOM     35  C   LIG A   1      -2.441   7.096 132.053  0.00  0.00    +0.046 A 
ATOM     36  C   LIG A   1      -3.737   6.684 131.730  0.00  0.00    +0.018 A 
BRANCH  34  37
ATOM     37  O   LIG A   1      -0.180   6.609 132.502  0.00  0.00    -0.507 OA
ATOM     38  H   LIG A   1      -0.199   7.118 133.329  0.00  0.00    +0.292 HD
ENDBRANCH  34  37
ENDBRANCH  29  31
ENDBRANCH  28  29
ENDBRANCH   8  28
BRANCH  12  39
ATOM     39  C   LIG A   1      -6.222  -0.611 128.137  0.00  0.00    +0.034 C 
BRANCH  39  40
ATOM     40  C   LIG A   1      -5.341  -1.753 128.638  0.00  0.00    -0.023 C 
ATOM     41  C   LIG A   1      -5.596  -2.822 129.421  0.00  0.00    -0.055 C 
ATOM     42  C   LIG A   1      -6.934  -3.195 129.986  0.00  0.00    +0.043 C 
BRANCH  41  43
ATOM     43  C   LIG A   1      -4.465  -3.674 129.782  0.00  0.00    -0.005 C 
ATOM     44  C   LIG A   1      -3.232  -3.557 129.270  0.00  0.00    +0.008 C 
ENDBRANCH  41  43
ENDBRANCH  39  40
ENDBRANCH  12  39
TORSDOF 13
ENDMDL
MODEL 4
REMARK VINA RESULT:      -8.1      2.974      8.016
REMARK  Name = NuBBE_57
REMARK  19 active torsions:
REMARK  status: ('A' for Active; 'I' for Inactive)
REMARK    1  A    between atoms: C_1  and  C_2
REMARK    2  A    between atoms: C_2  and  O_3
REMARK    3  A    between atoms: O_3  and  C_4
REMARK    4  A    between atoms: C_8  and  O_10
REMARK    5  A    between atoms: O_10  and  C_11
REMARK    6  A    between atoms: C_11  and  C_12
REMARK    7  A    between atoms: C_15  and  O_17
REMARK    8  A    between atoms: O_17  and  C_18
REMARK    9  A    between atoms: C_18  and  C_19
REMARK   10  A    between atoms: C_22  and  O_24
REMARK   11  A    between atoms: O_24  and  C_25
REMARK   12  A    between atoms: C_25  and  C_26
REMARK   13  A    between atoms: C_29  and  O_30
REMARK   14  A    between atoms: C_35  and  C_37
REMARK   15  A    between atoms: C_38  and  C_39
REMARK   16  A    between atoms: C_38  and  C_40
REMARK   17  A    between atoms: C_40  and  C_41
REMARK   18  A    between atoms: C_42  and  C_43
REMARK   19  A    between atoms: C_42  and  C_44
REMARK                            x       y       z     vdW  Elec       q    Type
REMARK                         _______ _______ _______ _____ _____    ______ ____
ROOT
ATOM      1  C   LIG A   1      -8.071   2.843 125.296  0.00  0.00    +0.200 C 
ATOM      2  C   LIG A   1      -7.742   4.176 125.882  0.00  0.00    +0.023 C 
ATOM      3  C   LIG A   1      -6.421   4.334 126.060  0.00  0.00    +0.013 C 
ATOM      4  C   LIG A   1      -5.343   4.374 124.958  0.00  0.00    +0.343 C 
ATOM      5  O   LIG A   1      -4.138   3.973 125.620  0.00  0.00    -0.297 OA
ATOM      6  C   LIG A   1      -4.383   4.296 126.991  0.00  0.00    +0.328 C 
ATOM      7  C   LIG A   1      -5.775   3.636 127.279  0.00  0.00    +0.100 C 
ATOM      8  C   LIG A   1      -6.236   4.042 128.709  0.00  0.00    +0.194 C 
ATOM      9  C   LIG A   1      -7.289   3.103 129.295  0.00  0.00    +0.049 C 
ATOM     10  C   LIG A   1      -6.914   1.604 129.401  0.00  0.00    -0.004 C 
ATOM     11  C   LIG A   1      -8.224   0.866 129.727  0.00  0.00    +0.008 C 
ATOM     12  C   LIG A   1      -6.030   1.050 128.198  0.00  0.00    -0.022 C 
ATOM     13  C   LIG A   1      -4.550   0.988 128.699  0.00  0.00    +0.012 C 
ATOM     14  C   LIG A   1      -6.067   2.059 126.957  0.00  0.00    +0.019 C 
ATOM     15  C   LIG A   1      -7.467   1.813 126.250  0.00  0.00    +0.054 C 
ENDROOT
BRANCH   1  16
ATOM     16  O   LIG A   1      -9.483   2.614 125.205  0.00  0.00    -0.457 OA
BRANCH  16  18
ATOM     17  C   LIG A   1      -9.519   1.560 123.116  0.00  0.00    +0.136 C 
ATOM     18  C   LIG A   1      -9.839   1.460 124.574  0.00  0.00    +0.304 C 
ATOM     19  O   LIG A   1     -10.381   0.496 125.088  0.00  0.00    -0.251 OA
ENDBRANCH  16  18
ENDBRANCH   1  16
BRANCH   4  20
ATOM     20  O   LIG A   1      -5.653   3.493 123.887  0.00  0.00    -0.431 OA
BRANCH  20  21
ATOM     21  C   LIG A   1      -5.642   4.086 122.666  0.00  0.00    +0.306 C 
ATOM     22  C   LIG A   1      -6.691   3.489 121.773  0.00  0.00    +0.136 C 
ATOM     23  O   LIG A   1      -4.917   5.008 122.327  0.00  0.00    -0.251 OA
ENDBRANCH  20  21
ENDBRANCH   4  20
BRANCH   6  24
ATOM     24  O   LIG A   1      -4.557   5.750 127.142  0.00  0.00    -0.434 OA
BRANCH  24  25
ATOM     25  C   LIG A   1      -3.725   6.448 127.946  0.00  0.00    +0.306 C 
ATOM     26  C   LIG A   1      -2.424   5.715 128.161  0.00  0.00    +0.136 C 
ATOM     27  O   LIG A   1      -4.014   7.517 128.482  0.00  0.00    -0.251 OA
ENDBRANCH  24  25
ENDBRANCH   6  24
BRANCH   8  28
ATOM     28  O   LIG A   1      -5.125   4.043 129.655  0.00  0.00    -0.457 OA
BRANCH  28  29
ATOM     29  C   LIG A   1      -5.332   4.621 130.879  0.00  0.00    +0.340 C 
ATOM     30  O   LIG A   1      -5.937   5.640 131.087  0.00  0.00    -0.245 OA
BRANCH  29  31
ATOM     31  C   LIG A   1      -4.747   3.780 131.979  0.00  0.00    +0.059 A 
ATOM     32  C   LIG A   1      -5.622   3.044 132.798  0.00  0.00    +0.018 A 
ATOM     33  C   LIG A   1      -5.122   2.157 133.764  0.00  0.00    +0.046 A 
ATOM     34  C   LIG A   1      -3.747   2.013 133.907  0.00  0.00    +0.117 A 
ATOM     35  C   LIG A   1      -2.870   2.762 133.129  0.00  0.00    +0.046 A 
ATOM     36  C   LIG A   1      -3.369   3.649 132.170  0.00  0.00    +0.018 A 
BRANCH  34  37
ATOM     37  O   LIG A   1      -3.207   1.132 134.795  0.00  0.00    -0.507 OA
ATOM     38  H   LIG A   1      -3.308   1.485 135.694  0.00  0.00    +0.292 HD
ENDBRANCH  34  37
ENDBRANCH  29  31
ENDBRANCH  28  29
ENDBRANCH   8  28
BRANCH  12  39
ATOM     39  C   LIG A   1      -6.360  -0.491 127.768  0.00  0.00    +0.034 C 
BRANCH  39  40
ATOM     40  C   LIG A   1      -5.727  -1.151 126.545  0.00  0.00    -0.023 C 
ATOM     41  C   LIG A   1      -6.254  -1.809 125.491  0.00  0.00    -0.055 C 
ATOM     42  C   LIG A   1      -7.716  -2.015 125.230  0.00  0.00    +0.043 C 
BRANCH  41  43
ATOM     43  C   LIG A   1      -5.320  -2.405 124.537  0.00  0.00    -0.005 C 
ATOM     44  C   LIG A   1      -5.565  -2.560 123.230  0.00  0.00    +0.008 C 
ENDBRANCH  41  43
ENDBRANCH  39  40
ENDBRANCH  12  39
TORSDOF 13
ENDMDL
MODEL 5
REMARK VINA RESULT:      -8.1      2.658      5.861
REMARK  Name = NuBBE_57
REMARK  19 active torsions:
REMARK  status: ('A' for Active; 'I' for Inactive)
REMARK    1  A    between atoms: C_1  and  C_2
REMARK    2  A    between atoms: C_2  and  O_3
REMARK    3  A    between atoms: O_3  and  C_4
REMARK    4  A    between atoms: C_8  and  O_10
REMARK    5  A    between atoms: O_10  and  C_11
REMARK    6  A    between atoms: C_11  and  C_12
REMARK    7  A    between atoms: C_15  and  O_17
REMARK    8  A    between atoms: O_17  and  C_18
REMARK    9  A    between atoms: C_18  and  C_19
REMARK   10  A    between atoms: C_22  and  O_24
REMARK   11  A    between atoms: O_24  and  C_25
REMARK   12  A    between atoms: C_25  and  C_26
REMARK   13  A    between atoms: C_29  and  O_30
REMARK   14  A    between atoms: C_35  and  C_37
REMARK   15  A    between atoms: C_38  and  C_39
REMARK   16  A    between atoms: C_38  and  C_40
REMARK   17  A    between atoms: C_40  and  C_41
REMARK   18  A    between atoms: C_42  and  C_43
REMARK   19  A    between atoms: C_42  and  C_44
REMARK                            x       y       z     vdW  Elec       q    Type
REMARK                         _______ _______ _______ _____ _____    ______ ____
ROOT
ATOM      1  C   LIG A   1      -6.052   4.422 132.456  0.00  0.00    +0.200 C 
ATOM      2  C   LIG A   1      -4.929   3.740 131.747  0.00  0.00    +0.023 C 
ATOM      3  C   LIG A   1      -5.009   3.892 130.416  0.00  0.00    +0.013 C 
ATOM      4  C   LIG A   1      -4.909   5.218 129.634  0.00  0.00    +0.343 C 
ATOM      5  O   LIG A   1      -5.610   4.966 128.411  0.00  0.00    -0.297 OA
ATOM      6  C   LIG A   1      -5.538   3.546 128.266  0.00  0.00    +0.328 C 
ATOM      7  C   LIG A   1      -6.027   3.011 129.655  0.00  0.00    +0.100 C 
ATOM      8  C   LIG A   1      -5.853   1.465 129.686  0.00  0.00    +0.194 C 
ATOM      9  C   LIG A   1      -6.723   0.779 130.738  0.00  0.00    +0.049 C 
ATOM     10  C   LIG A   1      -8.251   1.012 130.649  0.00  0.00    -0.004 C 
ATOM     11  C   LIG A   1      -8.836   0.475 131.967  0.00  0.00    +0.008 C 
ATOM     12  C   LIG A   1      -8.678   2.477 130.192  0.00  0.00    -0.022 C 
ATOM     13  C   LIG A   1      -9.060   2.398 128.677  0.00  0.00    +0.012 C 
ATOM     14  C   LIG A   1      -7.445   3.489 130.316  0.00  0.00    +0.019 C 
ATOM     15  C   LIG A   1      -7.331   3.834 131.861  0.00  0.00    +0.054 C 
ENDROOT
BRANCH   1  16
ATOM     16  O   LIG A   1      -6.044   4.174 133.867  0.00  0.00    -0.457 OA
BRANCH  16  18
ATOM     17  C   LIG A   1      -7.578   5.200 135.306  0.00  0.00    +0.136 C 
ATOM     18  C   LIG A   1      -6.238   5.276 134.645  0.00  0.00    +0.304 C 
ATOM     19  O   LIG A   1      -5.472   6.218 134.764  0.00  0.00    -0.251 OA
ENDBRANCH  16  18
ENDBRANCH   1  16
BRANCH   4  20
ATOM     20  O   LIG A   1      -5.500   6.294 130.348  0.00  0.00    -0.431 OA
BRANCH  20  21
ATOM     21  C   LIG A   1      -4.694   7.381 130.471  0.00  0.00    +0.306 C 
ATOM     22  C   LIG A   1      -3.876   7.298 131.728  0.00  0.00    +0.136 C 
ATOM     23  O   LIG A   1      -4.598   8.292 129.666  0.00  0.00    -0.251 OA
ENDBRANCH  20  21
ENDBRANCH   4  20
BRANCH   6  24
ATOM     24  O   LIG A   1      -4.135   3.127 128.113  0.00  0.00    -0.434 OA
BRANCH  24  25
ATOM     25  C   LIG A   1      -3.528   3.232 126.911  0.00  0.00    +0.306 C 
ATOM     26  C   LIG A   1      -2.028   3.149 127.043  0.00  0.00    +0.136 C 
ATOM     27  O   LIG A   1      -4.120   3.431 125.851  0.00  0.00    -0.251 OA
ENDBRANCH  24  25
ENDBRANCH   6  24
BRANCH   8  28
ATOM     28  O   LIG A   1      -6.209   0.855 128.408  0.00  0.00    -0.457 OA
BRANCH  28  29
ATOM     29  C   LIG A   1      -5.894  -0.465 128.223  0.00  0.00    +0.340 C 
ATOM     30  O   LIG A   1      -4.921  -1.026 128.654  0.00  0.00    -0.245 OA
BRANCH  29  31
ATOM     31  C   LIG A   1      -6.966  -1.172 127.443  0.00  0.00    +0.059 A 
ATOM     32  C   LIG A   1      -7.456  -2.395 127.933  0.00  0.00    +0.018 A 
ATOM     33  C   LIG A   1      -8.533  -3.038 127.305  0.00  0.00    +0.046 A 
ATOM     34  C   LIG A   1      -9.115  -2.453 126.187  0.00  0.00    +0.117 A 
ATOM     35  C   LIG A   1      -8.618  -1.261 125.669  0.00  0.00    +0.046 A 
ATOM     36  C   LIG A   1      -7.541  -0.624 126.293  0.00  0.00    +0.018 A 
BRANCH  34  37
ATOM     37  O   LIG A   1     -10.194  -3.008 125.566  0.00  0.00    -0.507 OA
ATOM     38  H   LIG A   1      -9.903  -3.782 125.055  0.00  0.00    +0.292 HD
ENDBRANCH  34  37
ENDBRANCH  29  31
ENDBRANCH  28  29
ENDBRANCH   8  28
BRANCH  12  39
ATOM     39  C   LIG A   1     -10.033   3.043 130.905  0.00  0.00    +0.034 C 
BRANCH  39  40
ATOM     40  C   LIG A   1     -10.705   4.342 130.468  0.00  0.00    -0.023 C 
ATOM     41  C   LIG A   1     -10.821   5.550 131.059  0.00  0.00    -0.055 C 
ATOM     42  C   LIG A   1     -10.218   5.943 132.374  0.00  0.00    +0.043 C 
BRANCH  41  43
ATOM     43  C   LIG A   1     -11.635   6.555 130.376  0.00  0.00    -0.005 C 
ATOM     44  C   LIG A   1     -12.684   7.183 130.924  0.00  0.00    +0.008 C 
ENDBRANCH  41  43
ENDBRANCH  39  40
ENDBRANCH  12  39
TORSDOF 13
ENDMDL
MODEL 6
REMARK VINA RESULT:      -8.0      1.478      2.027
REMARK  Name = NuBBE_57
REMARK  19 active torsions:
REMARK  status: ('A' for Active; 'I' for Inactive)
REMARK    1  A    between atoms: C_1  and  C_2
REMARK    2  A    between atoms: C_2  and  O_3
REMARK    3  A    between atoms: O_3  and  C_4
REMARK    4  A    between atoms: C_8  and  O_10
REMARK    5  A    between atoms: O_10  and  C_11
REMARK    6  A    between atoms: C_11  and  C_12
REMARK    7  A    between atoms: C_15  and  O_17
REMARK    8  A    between atoms: O_17  and  C_18
REMARK    9  A    between atoms: C_18  and  C_19
REMARK   10  A    between atoms: C_22  and  O_24
REMARK   11  A    between atoms: O_24  and  C_25
REMARK   12  A    between atoms: C_25  and  C_26
REMARK   13  A    between atoms: C_29  and  O_30
REMARK   14  A    between atoms: C_35  and  C_37
REMARK   15  A    between atoms: C_38  and  C_39
REMARK   16  A    between atoms: C_38  and  C_40
REMARK   17  A    between atoms: C_40  and  C_41
REMARK   18  A    between atoms: C_42  and  C_43
REMARK   19  A    between atoms: C_42  and  C_44
REMARK                            x       y       z     vdW  Elec       q    Type
REMARK                         _______ _______ _______ _____ _____    ______ ____
ROOT
ATOM      1  C   LIG A   1      -8.875   4.206 129.866  0.00  0.00    +0.200 C 
ATOM      2  C   LIG A   1      -9.389   2.886 130.338  0.00  0.00    +0.023 C 
ATOM      3  C   LIG A   1      -8.409   2.113 130.833  0.00  0.00    +0.013 C 
ATOM      4  C   LIG A   1      -7.550   2.406 132.081  0.00  0.00    +0.343 C 
ATOM      5  O   LIG A   1      -6.342   1.668 131.864  0.00  0.00    -0.297 OA
ATOM      6  C   LIG A   1      -6.736   0.628 130.967  0.00  0.00    +0.328 C 
ATOM      7  C   LIG A   1      -7.484   1.395 129.824  0.00  0.00    +0.100 C 
ATOM      8  C   LIG A   1      -8.103   0.356 128.844  0.00  0.00    +0.194 C 
ATOM      9  C   LIG A   1      -8.415   0.935 127.465  0.00  0.00    +0.049 C 
ATOM     10  C   LIG A   1      -7.238   1.572 126.687  0.00  0.00    -0.004 C 
ATOM     11  C   LIG A   1      -7.873   2.324 125.505  0.00  0.00    +0.008 C 
ATOM     12  C   LIG A   1      -6.189   2.361 127.589  0.00  0.00    -0.022 C 
ATOM     13  C   LIG A   1      -4.953   1.424 127.792  0.00  0.00    +0.012 C 
ATOM     14  C   LIG A   1      -6.800   2.657 129.038  0.00  0.00    +0.019 C 
ATOM     15  C   LIG A   1      -7.790   3.883 128.840  0.00  0.00    +0.054 C 
ENDROOT
BRANCH   1  16
ATOM     16  O   LIG A   1      -9.889   4.996 129.232  0.00  0.00    -0.457 OA
BRANCH  16  18
ATOM     17  C   LIG A   1      -9.415   6.748 130.708  0.00  0.00    +0.136 C 
ATOM     18  C   LIG A   1      -9.691   6.343 129.295  0.00  0.00    +0.304 C 
ATOM     19  O   LIG A   1      -9.769   7.127 128.364  0.00  0.00    -0.251 OA
ENDBRANCH  16  18
ENDBRANCH   1  16
BRANCH   4  20
ATOM     20  O   LIG A   1      -7.282   3.793 132.221  0.00  0.00    -0.431 OA
BRANCH  20  21
ATOM     21  C   LIG A   1      -6.022   4.070 132.649  0.00  0.00    +0.306 C 
ATOM     22  C   LIG A   1      -5.224   4.735 131.564  0.00  0.00    +0.136 C 
ATOM     23  O   LIG A   1      -5.587   3.856 133.768  0.00  0.00    -0.251 OA
ENDBRANCH  20  21
ENDBRANCH   4  20
BRANCH   6  24
ATOM     24  O   LIG A   1      -7.726  -0.247 131.616  0.00  0.00    -0.434 OA
BRANCH  24  25
ATOM     25  C   LIG A   1      -7.312  -1.275 132.389  0.00  0.00    +0.306 C 
ATOM     26  C   LIG A   1      -6.084  -1.935 131.814  0.00  0.00    +0.136 C 
ATOM     27  O   LIG A   1      -7.898  -1.662 133.400  0.00  0.00    -0.251 OA
ENDBRANCH  24  25
ENDBRANCH   6  24
BRANCH   8  28
ATOM     28  O   LIG A   1      -7.207  -0.772 128.616  0.00  0.00    -0.457 OA
BRANCH  28  29
ATOM     29  C   LIG A   1      -7.773  -1.991 128.349  0.00  0.00    +0.340 C 
ATOM     30  O   LIG A   1      -8.227  -2.752 129.163  0.00  0.00    -0.245 OA
BRANCH  29  31
ATOM     31  C   LIG A   1      -7.816  -2.255 126.870  0.00  0.00    +0.059 A 
ATOM     32  C   LIG A   1      -9.035  -2.654 126.296  0.00  0.00    +0.018 A 
ATOM     33  C   LIG A   1      -9.156  -2.804 124.906  0.00  0.00    +0.046 A 
ATOM     34  C   LIG A   1      -8.054  -2.554 124.097  0.00  0.00    +0.117 A 
ATOM     35  C   LIG A   1      -6.832  -2.194 124.655  0.00  0.00    +0.046 A 
ATOM     36  C   LIG A   1      -6.710  -2.050 126.040  0.00  0.00    +0.018 A 
BRANCH  34  37
ATOM     37  O   LIG A   1      -8.128  -2.636 122.739  0.00  0.00    -0.507 OA
ATOM     38  H   LIG A   1      -7.255  -2.880 122.388  0.00  0.00    +0.292 HD
ENDBRANCH  34  37
ENDBRANCH  29  31
ENDBRANCH  28  29
ENDBRANCH   8  28
BRANCH  12  39
ATOM     39  C   LIG A   1      -5.556   3.692 126.888  0.00  0.00    +0.034 C 
BRANCH  39  40
ATOM     40  C   LIG A   1      -4.515   4.566 127.583  0.00  0.00    -0.023 C 
ATOM     41  C   LIG A   1      -3.165   4.556 127.575  0.00  0.00    -0.055 C 
ATOM     42  C   LIG A   1      -2.302   3.633 126.768  0.00  0.00    +0.043 C 
BRANCH  41  43
ATOM     43  C   LIG A   1      -2.482   5.501 128.456  0.00  0.00    -0.005 C 
ATOM     44  C   LIG A   1      -2.330   6.807 128.197  0.00  0.00    +0.008 C 
ENDBRANCH  41  43
ENDBRANCH  39  40
ENDBRANCH  12  39
TORSDOF 13
ENDMDL
MODEL 7
REMARK VINA RESULT:      -8.0      3.022      6.485
REMARK  Name = NuBBE_57
REMARK  19 active torsions:
REMARK  status: ('A' for Active; 'I' for Inactive)
REMARK    1  A    between atoms: C_1  and  C_2
REMARK    2  A    between atoms: C_2  and  O_3
REMARK    3  A    between atoms: O_3  and  C_4
REMARK    4  A    between atoms: C_8  and  O_10
REMARK    5  A    between atoms: O_10  and  C_11
REMARK    6  A    between atoms: C_11  and  C_12
REMARK    7  A    between atoms: C_15  and  O_17
REMARK    8  A    between atoms: O_17  and  C_18
REMARK    9  A    between atoms: C_18  and  C_19
REMARK   10  A    between atoms: C_22  and  O_24
REMARK   11  A    between atoms: O_24  and  C_25
REMARK   12  A    between atoms: C_25  and  C_26
REMARK   13  A    between atoms: C_29  and  O_30
REMARK   14  A    between atoms: C_35  and  C_37
REMARK   15  A    between atoms: C_38  and  C_39
REMARK   16  A    between atoms: C_38  and  C_40
REMARK   17  A    between atoms: C_40  and  C_41
REMARK   18  A    between atoms: C_42  and  C_43
REMARK   19  A    between atoms: C_42  and  C_44
REMARK                            x       y       z     vdW  Elec       q    Type
REMARK                         _______ _______ _______ _____ _____    ______ ____
ROOT
ATOM      1  C   LIG A   1      -6.574   2.697 125.723  0.00  0.00    +0.200 C 
ATOM      2  C   LIG A   1      -6.163   1.304 125.381  0.00  0.00    +0.023 C 
ATOM      3  C   LIG A   1      -7.106   0.407 125.710  0.00  0.00    +0.013 C 
ATOM      4  C   LIG A   1      -8.526   0.305 125.116  0.00  0.00    +0.343 C 
ATOM      5  O   LIG A   1      -9.293  -0.350 126.132  0.00  0.00    -0.297 OA
ATOM      6  C   LIG A   1      -8.314  -1.073 126.882  0.00  0.00    +0.328 C 
ATOM      7  C   LIG A   1      -7.225   0.007 127.199  0.00  0.00    +0.100 C 
ATOM      8  C   LIG A   1      -6.016  -0.687 127.890  0.00  0.00    +0.194 C 
ATOM      9  C   LIG A   1      -5.135   0.278 128.682  0.00  0.00    +0.049 C 
ATOM     10  C   LIG A   1      -5.821   1.102 129.800  0.00  0.00    -0.004 C 
ATOM     11  C   LIG A   1      -4.803   2.178 130.214  0.00  0.00    +0.008 C 
ATOM     12  C   LIG A   1      -7.305   1.574 129.466  0.00  0.00    -0.022 C 
ATOM     13  C   LIG A   1      -8.280   0.603 130.210  0.00  0.00    +0.012 C 
ATOM     14  C   LIG A   1      -7.604   1.436 127.900  0.00  0.00    +0.019 C 
ATOM     15  C   LIG A   1      -6.887   2.679 127.219  0.00  0.00    +0.054 C 
ENDROOT
BRANCH   1  16
ATOM     16  O   LIG A   1      -5.534   3.653 125.483  0.00  0.00    -0.457 OA
BRANCH  16  18
ATOM     17  C   LIG A   1      -5.616   4.309 123.238  0.00  0.00    +0.136 C 
ATOM     18  C   LIG A   1      -5.880   4.684 124.661  0.00  0.00    +0.304 C 
ATOM     19  O   LIG A   1      -6.298   5.775 125.013  0.00  0.00    -0.251 OA
ENDBRANCH  16  18
ENDBRANCH   1  16
BRANCH   4  20
ATOM     20  O   LIG A   1      -9.064   1.586 124.818  0.00  0.00    -0.431 OA
BRANCH  20  21
ATOM     21  C   LIG A   1      -9.713   1.646 123.627  0.00  0.00    +0.306 C 
ATOM     22  C   LIG A   1      -8.952   2.491 122.646  0.00  0.00    +0.136 C 
ATOM     23  O   LIG A   1     -10.753   1.069 123.352  0.00  0.00    -0.251 OA
ENDBRANCH  20  21
ENDBRANCH   4  20
BRANCH   6  24
ATOM     24  O   LIG A   1      -7.675  -2.089 126.027  0.00  0.00    -0.434 OA
BRANCH  24  25
ATOM     25  C   LIG A   1      -8.203  -3.329 125.947  0.00  0.00    +0.306 C 
ATOM     26  C   LIG A   1      -8.816  -3.753 127.259  0.00  0.00    +0.136 C 
ATOM     27  O   LIG A   1      -8.139  -4.046 124.949  0.00  0.00    -0.251 OA
ENDBRANCH  24  25
ENDBRANCH   6  24
BRANCH   8  28
ATOM     28  O   LIG A   1      -6.449  -1.708 128.838  0.00  0.00    -0.457 OA
BRANCH  28  29
ATOM     29  C   LIG A   1      -5.581  -2.733 129.109  0.00  0.00    +0.340 C 
ATOM     30  O   LIG A   1      -4.668  -3.090 128.411  0.00  0.00    -0.245 OA
BRANCH  29  31
ATOM     31  C   LIG A   1      -5.873  -3.348 130.449  0.00  0.00    +0.059 A 
ATOM     32  C   LIG A   1      -5.205  -4.534 130.802  0.00  0.00    +0.018 A 
ATOM     33  C   LIG A   1      -5.356  -5.085 132.084  0.00  0.00    +0.046 A 
ATOM     34  C   LIG A   1      -6.177  -4.447 133.006  0.00  0.00    +0.117 A 
ATOM     35  C   LIG A   1      -6.872  -3.293 132.658  0.00  0.00    +0.046 A 
ATOM     36  C   LIG A   1      -6.725  -2.747 131.380  0.00  0.00    +0.018 A 
BRANCH  34  37
ATOM     37  O   LIG A   1      -6.322  -4.911 134.279  0.00  0.00    -0.507 OA
ATOM     38  H   LIG A   1      -6.816  -4.257 134.801  0.00  0.00    +0.292 HD
ENDBRANCH  34  37
ENDBRANCH  29  31
ENDBRANCH  28  29
ENDBRANCH   8  28
BRANCH  12  39
ATOM     39  C   LIG A   1      -7.698   3.045 130.056  0.00  0.00    +0.034 C 
BRANCH  39  40
ATOM     40  C   LIG A   1      -8.179   3.249 131.491  0.00  0.00    -0.023 C 
ATOM     41  C   LIG A   1      -7.816   4.117 132.458  0.00  0.00    -0.055 C 
ATOM     42  C   LIG A   1      -6.802   5.212 132.316  0.00  0.00    +0.043 C 
BRANCH  41  43
ATOM     43  C   LIG A   1      -8.437   3.956 133.771  0.00  0.00    -0.005 C 
ATOM     44  C   LIG A   1      -8.049   4.600 134.880  0.00  0.00    +0.008 C 
ENDBRANCH  41  43
ENDBRANCH  39  40
ENDBRANCH  12  39
TORSDOF 13
ENDMDL
MODEL 8
REMARK VINA RESULT:      -8.0      2.797      6.427
REMARK  Name = NuBBE_57
REMARK  19 active torsions:
REMARK  status: ('A' for Active; 'I' for Inactive)
REMARK    1  A    between atoms: C_1  and  C_2
REMARK    2  A    between atoms: C_2  and  O_3
REMARK    3  A    between atoms: O_3  and  C_4
REMARK    4  A    between atoms: C_8  and  O_10
REMARK    5  A    between atoms: O_10  and  C_11
REMARK    6  A    between atoms: C_11  and  C_12
REMARK    7  A    between atoms: C_15  and  O_17
REMARK    8  A    between atoms: O_17  and  C_18
REMARK    9  A    between atoms: C_18  and  C_19
REMARK   10  A    between atoms: C_22  and  O_24
REMARK   11  A    between atoms: O_24  and  C_25
REMARK   12  A    between atoms: C_25  and  C_26
REMARK   13  A    between atoms: C_29  and  O_30
REMARK   14  A    between atoms: C_35  and  C_37
REMARK   15  A    between atoms: C_38  and  C_39
REMARK   16  A    between atoms: C_38  and  C_40
REMARK   17  A    between atoms: C_40  and  C_41
REMARK   18  A    between atoms: C_42  and  C_43
REMARK   19  A    between atoms: C_42  and  C_44
REMARK                            x       y       z     vdW  Elec       q    Type
REMARK                         _______ _______ _______ _____ _____    ______ ____
ROOT
ATOM      1  C   LIG A   1      -5.086   5.322 131.378  0.00  0.00    +0.200 C 
ATOM      2  C   LIG A   1      -4.768   3.906 131.028  0.00  0.00    +0.023 C 
ATOM      3  C   LIG A   1      -5.442   3.493 129.944  0.00  0.00    +0.013 C 
ATOM      4  C   LIG A   1      -5.307   4.047 128.510  0.00  0.00    +0.343 C 
ATOM      5  O   LIG A   1      -6.560   3.742 127.888  0.00  0.00    -0.297 OA
ATOM      6  C   LIG A   1      -7.050   2.631 128.642  0.00  0.00    +0.328 C 
ATOM      7  C   LIG A   1      -6.930   3.115 130.127  0.00  0.00    +0.100 C 
ATOM      8  C   LIG A   1      -7.294   1.933 131.072  0.00  0.00    +0.194 C 
ATOM      9  C   LIG A   1      -7.698   2.381 132.475  0.00  0.00    +0.049 C 
ATOM     10  C   LIG A   1      -8.887   3.366 132.585  0.00  0.00    -0.004 C 
ATOM     11  C   LIG A   1      -8.880   3.873 134.038  0.00  0.00    +0.008 C 
ATOM     12  C   LIG A   1      -8.965   4.452 131.422  0.00  0.00    -0.022 C 
ATOM     13  C   LIG A   1     -10.050   3.966 130.405  0.00  0.00    +0.012 C 
ATOM     14  C   LIG A   1      -7.577   4.532 130.630  0.00  0.00    +0.019 C 
ATOM     15  C   LIG A   1      -6.603   5.370 131.561  0.00  0.00    +0.054 C 
ENDROOT
BRANCH   1  16
ATOM     16  O   LIG A   1      -4.462   5.742 132.598  0.00  0.00    -0.457 OA
BRANCH  16  18
ATOM     17  C   LIG A   1      -3.591   7.562 131.414  0.00  0.00    +0.136 C 
ATOM     18  C   LIG A   1      -3.342   6.502 132.438  0.00  0.00    +0.304 C 
ATOM     19  O   LIG A   1      -2.271   6.333 132.998  0.00  0.00    -0.251 OA
ENDBRANCH  16  18
ENDBRANCH   1  16
BRANCH   4  20
ATOM     20  O   LIG A   1      -5.064   5.446 128.508  0.00  0.00    -0.431 OA
BRANCH  20  21
ATOM     21  C   LIG A   1      -3.867   5.796 127.970  0.00  0.00    +0.306 C 
ATOM     22  C   LIG A   1      -3.171   4.598 127.392  0.00  0.00    +0.136 C 
ATOM     23  O   LIG A   1      -3.415   6.929 127.914  0.00  0.00    -0.251 OA
ENDBRANCH  20  21
ENDBRANCH   4  20
BRANCH   6  24
ATOM     24  O   LIG A   1      -6.143   1.481 128.491  0.00  0.00    -0.434 OA
BRANCH  24  25
ATOM     25  C   LIG A   1      -6.265   0.663 127.423  0.00  0.00    +0.306 C 
ATOM     26  C   LIG A   1      -7.711   0.480 127.032  0.00  0.00    +0.136 C 
ATOM     27  O   LIG A   1      -5.322   0.092 126.876  0.00  0.00    -0.251 OA
ENDBRANCH  24  25
ENDBRANCH   6  24
BRANCH   8  28
ATOM     28  O   LIG A   1      -8.418   1.157 130.557  0.00  0.00    -0.457 OA
BRANCH  28  29
ATOM     29  C   LIG A   1      -8.845   0.087 131.299  0.00  0.00    +0.340 C 
ATOM     30  O   LIG A   1      -9.805   0.068 132.024  0.00  0.00    -0.245 OA
BRANCH  29  31
ATOM     31  C   LIG A   1      -7.984  -1.120 131.053  0.00  0.00    +0.059 A 
ATOM     32  C   LIG A   1      -7.297  -1.686 132.141  0.00  0.00    +0.018 A 
ATOM     33  C   LIG A   1      -6.571  -2.878 131.987  0.00  0.00    +0.046 A 
ATOM     34  C   LIG A   1      -6.537  -3.496 130.743  0.00  0.00    +0.117 A 
ATOM     35  C   LIG A   1      -7.181  -2.928 129.649  0.00  0.00    +0.046 A 
ATOM     36  C   LIG A   1      -7.900  -1.738 129.802  0.00  0.00    +0.018 A 
BRANCH  34  37
ATOM     37  O   LIG A   1      -5.888  -4.679 130.548  0.00  0.00    -0.507 OA
ATOM     38  H   LIG A   1      -5.684  -5.075 131.412  0.00  0.00    +0.292 HD
ENDBRANCH  34  37
ENDBRANCH  29  31
ENDBRANCH  28  29
ENDBRANCH   8  28
BRANCH  12  39
ATOM     39  C   LIG A   1      -9.506   5.917 131.896  0.00  0.00    +0.034 C 
BRANCH  39  40
ATOM     40  C   LIG A   1     -10.799   6.525 131.358  0.00  0.00    -0.023 C 
ATOM     41  C   LIG A   1     -11.060   7.316 130.296  0.00  0.00    -0.055 C 
ATOM     42  C   LIG A   1     -10.058   7.777 129.281  0.00  0.00    +0.043 C 
BRANCH  41  43
ATOM     43  C   LIG A   1     -12.432   7.795 130.138  0.00  0.00    -0.005 C 
ATOM     44  C   LIG A   1     -12.770   8.949 129.547  0.00  0.00    +0.008 C 
ENDBRANCH  41  43
ENDBRANCH  39  40
ENDBRANCH  12  39
TORSDOF 13
ENDMDL
MODEL 9
REMARK VINA RESULT:      -7.9      2.181      5.348
REMARK  Name = NuBBE_57
REMARK  19 active torsions:
REMARK  status: ('A' for Active; 'I' for Inactive)
REMARK    1  A    between atoms: C_1  and  C_2
REMARK    2  A    between atoms: C_2  and  O_3
REMARK    3  A    between atoms: O_3  and  C_4
REMARK    4  A    between atoms: C_8  and  O_10
REMARK    5  A    between atoms: O_10  and  C_11
REMARK    6  A    between atoms: C_11  and  C_12
REMARK    7  A    between atoms: C_15  and  O_17
REMARK    8  A    between atoms: O_17  and  C_18
REMARK    9  A    between atoms: C_18  and  C_19
REMARK   10  A    between atoms: C_22  and  O_24
REMARK   11  A    between atoms: O_24  and  C_25
REMARK   12  A    between atoms: C_25  and  C_26
REMARK   13  A    between atoms: C_29  and  O_30
REMARK   14  A    between atoms: C_35  and  C_37
REMARK   15  A    between atoms: C_38  and  C_39
REMARK   16  A    between atoms: C_38  and  C_40
REMARK   17  A    between atoms: C_40  and  C_41
REMARK   18  A    between atoms: C_42  and  C_43
REMARK   19  A    between atoms: C_42  and  C_44
REMARK                            x       y       z     vdW  Elec       q    Type
REMARK                         _______ _______ _______ _____ _____    ______ ____
ROOT
ATOM      1  C   LIG A   1      -4.988   3.824 129.916  0.00  0.00    +0.200 C 
ATOM      2  C   LIG A   1      -4.889   3.248 128.543  0.00  0.00    +0.023 C 
ATOM      3  C   LIG A   1      -6.085   2.855 128.075  0.00  0.00    +0.013 C 
ATOM      4  C   LIG A   1      -7.300   3.760 127.783  0.00  0.00    +0.343 C 
ATOM      5  O   LIG A   1      -8.430   2.886 127.885  0.00  0.00    -0.297 OA
ATOM      6  C   LIG A   1      -7.881   1.591 127.629  0.00  0.00    +0.328 C 
ATOM      7  C   LIG A   1      -6.654   1.516 128.599  0.00  0.00    +0.100 C 
ATOM      8  C   LIG A   1      -5.868   0.203 128.313  0.00  0.00    +0.194 C 
ATOM      9  C   LIG A   1      -4.978  -0.235 129.474  0.00  0.00    +0.049 C 
ATOM     10  C   LIG A   1      -5.667  -0.467 130.841  0.00  0.00    -0.004 C 
ATOM     11  C   LIG A   1      -4.529  -0.597 131.869  0.00  0.00    +0.008 C 
ATOM     12  C   LIG A   1      -6.852   0.545 131.172  0.00  0.00    -0.022 C 
ATOM     13  C   LIG A   1      -8.195  -0.202 130.881  0.00  0.00    +0.012 C 
ATOM     14  C   LIG A   1      -6.798   1.815 130.201  0.00  0.00    +0.019 C 
ATOM     15  C   LIG A   1      -5.639   2.739 130.773  0.00  0.00    +0.054 C 
ENDROOT
BRANCH   1  16
ATOM     16  O   LIG A   1      -3.707   4.143 130.473  0.00  0.00    -0.457 OA
BRANCH  16  18
ATOM     17  C   LIG A   1      -2.431   6.058 130.051  0.00  0.00    +0.136 C 
ATOM     18  C   LIG A   1      -3.547   5.447 130.836  0.00  0.00    +0.304 C 
ATOM     19  O   LIG A   1      -4.173   6.035 131.702  0.00  0.00    -0.251 OA
ENDBRANCH  16  18
ENDBRANCH   1  16
BRANCH   4  20
ATOM     20  O   LIG A   1      -7.396   4.829 128.713  0.00  0.00    -0.431 OA
BRANCH  20  21
ATOM     21  C   LIG A   1      -8.670   5.139 129.065  0.00  0.00    +0.306 C 
ATOM     22  C   LIG A   1      -8.951   4.721 130.479  0.00  0.00    +0.136 C 
ATOM     23  O   LIG A   1      -9.484   5.716 128.361  0.00  0.00    -0.251 OA
ENDBRANCH  20  21
ENDBRANCH   4  20
BRANCH   6  24
ATOM     24  O   LIG A   1      -7.349   1.534 126.257  0.00  0.00    -0.434 OA
BRANCH  24  25
ATOM     25  C   LIG A   1      -8.115   1.044 125.258  0.00  0.00    +0.306 C 
ATOM     26  C   LIG A   1      -9.476   0.629 125.760  0.00  0.00    +0.136 C 
ATOM     27  O   LIG A   1      -7.731   0.898 124.098  0.00  0.00    -0.251 OA
ENDBRANCH  24  25
ENDBRANCH   6  24
BRANCH   8  28
ATOM     28  O   LIG A   1      -6.766  -0.916 128.047  0.00  0.00    -0.457 OA
BRANCH  28  29
ATOM     29  C   LIG A   1      -6.266  -1.979 127.342  0.00  0.00    +0.340 C 
ATOM     30  O   LIG A   1      -5.206  -2.517 127.531  0.00  0.00    -0.245 OA
BRANCH  29  31
ATOM     31  C   LIG A   1      -7.249  -2.452 126.308  0.00  0.00    +0.059 A 
ATOM     32  C   LIG A   1      -8.559  -2.755 126.717  0.00  0.00    +0.018 A 
ATOM     33  C   LIG A   1      -9.543  -3.091 125.775  0.00  0.00    +0.046 A 
ATOM     34  C   LIG A   1      -9.210  -3.122 124.426  0.00  0.00    +0.117 A 
ATOM     35  C   LIG A   1      -7.909  -2.859 124.010  0.00  0.00    +0.046 A 
ATOM     36  C   LIG A   1      -6.928  -2.530 124.950  0.00  0.00    +0.018 A 
BRANCH  34  37
ATOM     37  O   LIG A   1     -10.137  -3.394 123.464  0.00  0.00    -0.507 OA
ATOM     38  H   LIG A   1     -11.002  -3.059 123.753  0.00  0.00    +0.292 HD
ENDBRANCH  34  37
ENDBRANCH  29  31
ENDBRANCH  28  29
ENDBRANCH   8  28
BRANCH  12  39
ATOM     39  C   LIG A   1      -6.971   0.959 132.747  0.00  0.00    +0.034 C 
BRANCH  39  40
ATOM     40  C   LIG A   1      -7.749   2.188 133.212  0.00  0.00    -0.023 C 
ATOM     41  C   LIG A   1      -7.428   3.211 134.031  0.00  0.00    -0.055 C 
ATOM     42  C   LIG A   1      -6.097   3.422 134.689  0.00  0.00    +0.043 C 
BRANCH  41  43
ATOM     43  C   LIG A   1      -8.478   4.182 134.334  0.00  0.00    -0.005 C 
ATOM     44  C   LIG A   1      -8.371   5.503 134.135  0.00  0.00    +0.008 C 
ENDBRANCH  41  43
ENDBRANCH  39  40
ENDBRANCH  12  39
TORSDOF 13
ENDMDL
