MODEL 1
REMARK VINA RESULT:      -8.1      0.000      0.000
REMARK  Name = NuBBE_262
REMARK  10 active torsions:
REMARK  status: ('A' for Active; 'I' for Inactive)
REMARK    1  A    between atoms: C_1  and  O_2
REMARK    2  A    between atoms: O_2  and  C_3
REMARK    3  A    between atoms: C_5  and  C_6
REMARK    4  A    between atoms: C_6  and  C_7
REMARK    5  A    between atoms: C_11  and  C_12
REMARK    6  A    between atoms: C_14  and  C_16
REMARK    7  A    between atoms: C_18  and  O_19
REMARK    8  A    between atoms: O_19  and  C_20
REMARK    9  A    between atoms: C_21  and  O_22
REMARK   10  A    between atoms: O_22  and  C_23
REMARK                            x       y       z     vdW  Elec       q    Type
REMARK                         _______ _______ _______ _____ _____    ______ ____
ROOT
ATOM      1  C   LIG A   1      -8.956  -0.685 123.680  0.00  0.00    +0.160 C 
ATOM      2  C   LIG A   1      -7.869  -1.397 123.313  0.00  0.00    +0.037 C 
ATOM      3  C   LIG A   1      -6.877  -1.992 124.306  0.00  0.00    +0.058 C 
ATOM      4  C   LIG A   1      -6.760  -0.817 125.256  0.00  0.00    +0.155 C 
ATOM      5  O   LIG A   1      -5.887   0.042 125.260  0.00  0.00    -0.296 OA
ATOM      6  C   LIG A   1      -7.496  -3.057 125.277  0.00  0.00    +0.012 C 
ATOM      7  C   LIG A   1      -8.585  -3.964 124.684  0.00  0.00    +0.009 C 
ATOM      8  C   LIG A   1      -8.083  -2.254 126.488  0.00  0.00    +0.041 C 
ATOM      9  C   LIG A   1      -7.998  -0.776 126.088  0.00  0.00    +0.138 C 
ATOM     10  C   LIG A   1      -9.170  -0.451 125.174  0.00  0.00    +0.208 C 
ATOM     11  O   LIG A   1     -10.258  -0.121 125.642  0.00  0.00    -0.288 OA
ENDROOT
BRANCH   8  12
ATOM     12  C   LIG A   1      -7.356  -2.566 127.786  0.00  0.00    -0.039 A 
ATOM     13  C   LIG A   1      -5.961  -2.469 127.933  0.00  0.00    +0.053 A 
ATOM     14  C   LIG A   1      -5.317  -2.777 129.144  0.00  0.00    +0.162 A 
ATOM     15  C   LIG A   1      -6.080  -3.212 130.234  0.00  0.00    +0.162 A 
ATOM     16  C   LIG A   1      -7.472  -3.294 130.099  0.00  0.00    +0.050 A 
ATOM     17  C   LIG A   1      -8.100  -2.980 128.893  0.00  0.00    +0.008 A 
BRANCH  14  18
ATOM     18  O   LIG A   1      -3.955  -2.611 129.068  0.00  0.00    -0.491 OA
ATOM     19  C   LIG A   1      -3.141  -3.766 128.926  0.00  0.00    +0.277 C 
ENDBRANCH  14  18
BRANCH  15  20
ATOM     20  O   LIG A   1      -5.459  -3.488 131.424  0.00  0.00    -0.491 OA
ATOM     21  C   LIG A   1      -5.326  -4.863 131.758  0.00  0.00    +0.277 C 
ENDBRANCH  15  20
ENDBRANCH   8  12
BRANCH   1  23
ATOM     22  C   LIG A   1      -9.887   1.222 122.603  0.00  0.00    +0.277 C 
ATOM     23  O   LIG A   1      -9.794  -0.195 122.697  0.00  0.00    -0.492 OA
ENDBRANCH   1  23
BRANCH   3  24
ATOM     24  C   LIG A   1      -5.480  -2.352 123.754  0.00  0.00    +0.045 C 
BRANCH  24  25
ATOM     25  C   LIG A   1      -4.849  -3.601 124.314  0.00  0.00    -0.033 C 
ATOM     26  C   LIG A   1      -4.453  -4.646 123.576  0.00  0.00    +0.004 C 
ENDBRANCH  24  25
ENDBRANCH   3  24
TORSDOF 6
ENDMDL
MODEL 2
REMARK VINA RESULT:      -7.8      0.950      1.854
REMARK  Name = NuBBE_262
REMARK  10 active torsions:
REMARK  status: ('A' for Active; 'I' for Inactive)
REMARK    1  A    between atoms: C_1  and  O_2
REMARK    2  A    between atoms: O_2  and  C_3
REMARK    3  A    between atoms: C_5  and  C_6
REMARK    4  A    between atoms: C_6  and  C_7
REMARK    5  A    between atoms: C_11  and  C_12
REMARK    6  A    between atoms: C_14  and  C_16
REMARK    7  A    between atoms: C_18  and  O_19
REMARK    8  A    between atoms: O_19  and  C_20
REMARK    9  A    between atoms: C_21  and  O_22
REMARK   10  A    between atoms: O_22  and  C_23
REMARK                            x       y       z     vdW  Elec       q    Type
REMARK                         _______ _______ _______ _____ _____    ______ ____
ROOT
ATOM      1  C   LIG A   1      -9.043  -0.839 123.586  0.00  0.00    +0.160 C 
ATOM      2  C   LIG A   1      -7.997  -1.572 123.148  0.00  0.00    +0.037 C 
ATOM      3  C   LIG A   1      -6.892  -2.092 124.061  0.00  0.00    +0.058 C 
ATOM      4  C   LIG A   1      -6.680  -0.853 124.907  0.00  0.00    +0.155 C 
ATOM      5  O   LIG A   1      -5.823   0.007 124.751  0.00  0.00    -0.296 OA
ATOM      6  C   LIG A   1      -7.386  -3.087 125.169  0.00  0.00    +0.012 C 
ATOM      7  C   LIG A   1      -8.524  -4.037 124.769  0.00  0.00    +0.009 C 
ATOM      8  C   LIG A   1      -7.840  -2.202 126.379  0.00  0.00    +0.041 C 
ATOM      9  C   LIG A   1      -7.816  -0.756 125.870  0.00  0.00    +0.138 C 
ATOM     10  C   LIG A   1      -9.088  -0.500 125.075  0.00  0.00    +0.208 C 
ATOM     11  O   LIG A   1     -10.119  -0.140 125.640  0.00  0.00    -0.288 OA
ENDROOT
BRANCH   8  12
ATOM     12  C   LIG A   1      -6.966  -2.420 127.605  0.00  0.00    -0.039 A 
ATOM     13  C   LIG A   1      -7.482  -2.672 128.887  0.00  0.00    +0.053 A 
ATOM     14  C   LIG A   1      -6.647  -2.857 130.003  0.00  0.00    +0.162 A 
ATOM     15  C   LIG A   1      -5.259  -2.771 129.841  0.00  0.00    +0.162 A 
ATOM     16  C   LIG A   1      -4.738  -2.538 128.562  0.00  0.00    +0.050 A 
ATOM     17  C   LIG A   1      -5.577  -2.360 127.461  0.00  0.00    +0.008 A 
BRANCH  14  18
ATOM     18  O   LIG A   1      -7.358  -3.093 131.154  0.00  0.00    -0.491 OA
ATOM     19  C   LIG A   1      -7.555  -2.016 132.060  0.00  0.00    +0.277 C 
ENDBRANCH  14  18
BRANCH  15  20
ATOM     20  O   LIG A   1      -4.441  -2.977 130.920  0.00  0.00    -0.491 OA
ATOM     21  C   LIG A   1      -3.762  -1.832 131.420  0.00  0.00    +0.277 C 
ENDBRANCH  15  20
ENDBRANCH   8  12
BRANCH   1  23
ATOM     22  C   LIG A   1     -10.094   0.984 122.473  0.00  0.00    +0.277 C 
ATOM     23  O   LIG A   1      -9.993  -0.422 122.674  0.00  0.00    -0.492 OA
ENDBRANCH   1  23
BRANCH   3  24
ATOM     24  C   LIG A   1      -5.563  -2.487 123.379  0.00  0.00    +0.045 C 
BRANCH  24  25
ATOM     25  C   LIG A   1      -4.768  -3.572 124.058  0.00  0.00    -0.033 C 
ATOM     26  C   LIG A   1      -4.251  -4.637 123.431  0.00  0.00    +0.004 C 
ENDBRANCH  24  25
ENDBRANCH   3  24
TORSDOF 6
ENDMDL
MODEL 3
REMARK VINA RESULT:      -7.1      8.635     10.025
REMARK  Name = NuBBE_262
REMARK  10 active torsions:
REMARK  status: ('A' for Active; 'I' for Inactive)
REMARK    1  A    between atoms: C_1  and  O_2
REMARK    2  A    between atoms: O_2  and  C_3
REMARK    3  A    between atoms: C_5  and  C_6
REMARK    4  A    between atoms: C_6  and  C_7
REMARK    5  A    between atoms: C_11  and  C_12
REMARK    6  A    between atoms: C_14  and  C_16
REMARK    7  A    between atoms: C_18  and  O_19
REMARK    8  A    between atoms: O_19  and  C_20
REMARK    9  A    between atoms: C_21  and  O_22
REMARK   10  A    between atoms: O_22  and  C_23
REMARK                            x       y       z     vdW  Elec       q    Type
REMARK                         _______ _______ _______ _____ _____    ______ ____
ROOT
ATOM      1  C   LIG A   1     -11.692   6.517 129.149  0.00  0.00    +0.160 C 
ATOM      2  C   LIG A   1     -11.637   5.335 129.798  0.00  0.00    +0.037 C 
ATOM      3  C   LIG A   1     -10.379   4.806 130.479  0.00  0.00    +0.058 C 
ATOM      4  C   LIG A   1      -9.365   5.161 129.412  0.00  0.00    +0.155 C 
ATOM      5  O   LIG A   1      -8.921   4.421 128.543  0.00  0.00    -0.296 OA
ATOM      6  C   LIG A   1      -9.855   5.705 131.653  0.00  0.00    +0.012 C 
ATOM      7  C   LIG A   1     -10.926   6.396 132.509  0.00  0.00    +0.009 C 
ATOM      8  C   LIG A   1      -8.930   6.785 130.994  0.00  0.00    +0.041 C 
ATOM      9  C   LIG A   1      -9.123   6.632 129.481  0.00  0.00    +0.138 C 
ATOM     10  C   LIG A   1     -10.408   7.341 129.080  0.00  0.00    +0.208 C 
ATOM     11  O   LIG A   1     -10.406   8.542 128.820  0.00  0.00    -0.288 OA
ENDROOT
BRANCH   8  12
ATOM     12  C   LIG A   1      -7.481   6.639 131.432  0.00  0.00    -0.039 A 
ATOM     13  C   LIG A   1      -6.405   7.236 130.753  0.00  0.00    +0.053 A 
ATOM     14  C   LIG A   1      -5.074   7.071 131.176  0.00  0.00    +0.162 A 
ATOM     15  C   LIG A   1      -4.805   6.275 132.296  0.00  0.00    +0.162 A 
ATOM     16  C   LIG A   1      -5.876   5.693 132.988  0.00  0.00    +0.050 A 
ATOM     17  C   LIG A   1      -7.193   5.867 132.560  0.00  0.00    +0.008 A 
BRANCH  14  18
ATOM     18  O   LIG A   1      -4.184   7.741 130.374  0.00  0.00    -0.491 OA
ATOM     19  C   LIG A   1      -3.734   7.106 129.186  0.00  0.00    +0.277 C 
ENDBRANCH  14  18
BRANCH  15  20
ATOM     20  O   LIG A   1      -3.513   6.134 132.728  0.00  0.00    -0.491 OA
ATOM     21  C   LIG A   1      -3.070   7.073 133.699  0.00  0.00    +0.277 C 
ENDBRANCH  15  20
ENDBRANCH   8  12
BRANCH   1  23
ATOM     22  C   LIG A   1     -12.878   7.046 127.154  0.00  0.00    +0.277 C 
ATOM     23  O   LIG A   1     -12.885   6.905 128.571  0.00  0.00    -0.492 OA
ENDBRANCH   1  23
BRANCH   3  24
ATOM     24  C   LIG A   1     -10.332   3.287 130.755  0.00  0.00    +0.045 C 
BRANCH  24  25
ATOM     25  C   LIG A   1      -9.202   2.808 131.629  0.00  0.00    -0.033 C 
ATOM     26  C   LIG A   1      -9.328   2.492 132.925  0.00  0.00    +0.004 C 
ENDBRANCH  24  25
ENDBRANCH   3  24
TORSDOF 6
ENDMDL
MODEL 4
REMARK VINA RESULT:      -7.0      1.755      3.088
REMARK  Name = NuBBE_262
REMARK  10 active torsions:
REMARK  status: ('A' for Active; 'I' for Inactive)
REMARK    1  A    between atoms: C_1  and  O_2
REMARK    2  A    between atoms: O_2  and  C_3
REMARK    3  A    between atoms: C_5  and  C_6
REMARK    4  A    between atoms: C_6  and  C_7
REMARK    5  A    between atoms: C_11  and  C_12
REMARK    6  A    between atoms: C_14  and  C_16
REMARK    7  A    between atoms: C_18  and  O_19
REMARK    8  A    between atoms: O_19  and  C_20
REMARK    9  A    between atoms: C_21  and  O_22
REMARK   10  A    between atoms: O_22  and  C_23
REMARK                            x       y       z     vdW  Elec       q    Type
REMARK                         _______ _______ _______ _____ _____    ______ ____
ROOT
ATOM      1  C   LIG A   1      -8.907  -0.913 124.033  0.00  0.00    +0.160 C 
ATOM      2  C   LIG A   1      -7.888  -0.030 124.103  0.00  0.00    +0.037 C 
ATOM      3  C   LIG A   1      -6.924   0.052 125.282  0.00  0.00    +0.058 C 
ATOM      4  C   LIG A   1      -7.922  -0.084 126.414  0.00  0.00    +0.155 C 
ATOM      5  O   LIG A   1      -8.424   0.822 127.066  0.00  0.00    -0.296 OA
ATOM      6  C   LIG A   1      -6.079  -1.248 125.515  0.00  0.00    +0.012 C 
ATOM      7  C   LIG A   1      -5.645  -2.011 124.254  0.00  0.00    +0.009 C 
ATOM      8  C   LIG A   1      -6.955  -2.182 126.418  0.00  0.00    +0.041 C 
ATOM      9  C   LIG A   1      -8.334  -1.517 126.490  0.00  0.00    +0.138 C 
ATOM     10  C   LIG A   1      -9.103  -1.854 125.221  0.00  0.00    +0.208 C 
ATOM     11  O   LIG A   1      -9.759  -2.891 125.142  0.00  0.00    -0.288 OA
ENDROOT
BRANCH   8  12
ATOM     12  C   LIG A   1      -6.326  -2.406 127.785  0.00  0.00    -0.039 A 
ATOM     13  C   LIG A   1      -7.075  -2.632 128.952  0.00  0.00    +0.053 A 
ATOM     14  C   LIG A   1      -6.464  -2.824 130.204  0.00  0.00    +0.162 A 
ATOM     15  C   LIG A   1      -5.069  -2.772 130.299  0.00  0.00    +0.162 A 
ATOM     16  C   LIG A   1      -4.316  -2.565 129.135  0.00  0.00    +0.050 A 
ATOM     17  C   LIG A   1      -4.934  -2.381 127.898  0.00  0.00    +0.008 A 
BRANCH  14  18
ATOM     18  O   LIG A   1      -7.380  -3.031 131.206  0.00  0.00    -0.491 OA
ATOM     19  C   LIG A   1      -7.634  -1.972 132.119  0.00  0.00    +0.277 C 
ENDBRANCH  14  18
BRANCH  15  20
ATOM     20  O   LIG A   1      -4.468  -2.986 131.511  0.00  0.00    -0.491 OA
ATOM     21  C   LIG A   1      -3.724  -1.896 132.043  0.00  0.00    +0.277 C 
ENDBRANCH  15  20
ENDBRANCH   8  12
BRANCH   1  23
ATOM     22  C   LIG A   1     -10.146   0.373 122.460  0.00  0.00    +0.277 C 
ATOM     23  O   LIG A   1      -9.719  -0.907 122.916  0.00  0.00    -0.492 OA
ENDBRANCH   1  23
BRANCH   3  24
ATOM     24  C   LIG A   1      -6.139   1.373 125.439  0.00  0.00    +0.045 C 
BRANCH  24  25
ATOM     25  C   LIG A   1      -4.945   1.328 126.356  0.00  0.00    -0.033 C 
ATOM     26  C   LIG A   1      -4.969   1.675 127.650  0.00  0.00    +0.004 C 
ENDBRANCH  24  25
ENDBRANCH   3  24
TORSDOF 6
ENDMDL
MODEL 5
REMARK VINA RESULT:      -6.9      3.479      7.124
REMARK  Name = NuBBE_262
REMARK  10 active torsions:
REMARK  status: ('A' for Active; 'I' for Inactive)
REMARK    1  A    between atoms: C_1  and  O_2
REMARK    2  A    between atoms: O_2  and  C_3
REMARK    3  A    between atoms: C_5  and  C_6
REMARK    4  A    between atoms: C_6  and  C_7
REMARK    5  A    between atoms: C_11  and  C_12
REMARK    6  A    between atoms: C_14  and  C_16
REMARK    7  A    between atoms: C_18  and  O_19
REMARK    8  A    between atoms: O_19  and  C_20
REMARK    9  A    between atoms: C_21  and  O_22
REMARK   10  A    between atoms: O_22  and  C_23
REMARK                            x       y       z     vdW  Elec       q    Type
REMARK                         _______ _______ _______ _____ _____    ______ ____
ROOT
ATOM      1  C   LIG A   1      -8.609  -2.113 125.694  0.00  0.00    +0.160 C 
ATOM      2  C   LIG A   1      -7.802  -1.550 126.619  0.00  0.00    +0.037 C 
ATOM      3  C   LIG A   1      -6.906  -0.349 126.336  0.00  0.00    +0.058 C 
ATOM      4  C   LIG A   1      -6.373  -0.764 124.980  0.00  0.00    +0.155 C 
ATOM      5  O   LIG A   1      -5.305  -1.317 124.747  0.00  0.00    -0.296 OA
ATOM      6  C   LIG A   1      -7.682   0.952 125.929  0.00  0.00    +0.012 C 
ATOM      7  C   LIG A   1      -9.033   1.182 126.622  0.00  0.00    +0.009 C 
ATOM      8  C   LIG A   1      -7.894   0.865 124.379  0.00  0.00    +0.041 C 
ATOM      9  C   LIG A   1      -7.456  -0.547 123.977  0.00  0.00    +0.138 C 
ATOM     10  C   LIG A   1      -8.588  -1.515 124.288  0.00  0.00    +0.208 C 
ATOM     11  O   LIG A   1      -9.488  -1.710 123.474  0.00  0.00    -0.288 OA
ENDROOT
BRANCH   8  12
ATOM     12  C   LIG A   1      -7.142   1.960 123.638  0.00  0.00    -0.039 A 
ATOM     13  C   LIG A   1      -6.719   3.155 124.246  0.00  0.00    +0.053 A 
ATOM     14  C   LIG A   1      -6.036   4.153 123.530  0.00  0.00    +0.162 A 
ATOM     15  C   LIG A   1      -5.782   3.966 122.166  0.00  0.00    +0.162 A 
ATOM     16  C   LIG A   1      -6.185   2.768 121.559  0.00  0.00    +0.050 A 
ATOM     17  C   LIG A   1      -6.858   1.783 122.282  0.00  0.00    +0.008 A 
BRANCH  14  18
ATOM     18  O   LIG A   1      -5.715   5.233 124.316  0.00  0.00    -0.491 OA
ATOM     19  C   LIG A   1      -5.699   5.061 125.726  0.00  0.00    +0.277 C 
ENDBRANCH  14  18
BRANCH  15  20
ATOM     20  O   LIG A   1      -5.093   4.924 121.471  0.00  0.00    -0.491 OA
ATOM     21  C   LIG A   1      -5.377   5.016 120.081  0.00  0.00    +0.277 C 
ENDBRANCH  15  20
ENDBRANCH   8  12
BRANCH   1  23
ATOM     22  C   LIG A   1      -9.039  -3.830 127.284  0.00  0.00    +0.277 C 
ATOM     23  O   LIG A   1      -9.385  -3.196 126.057  0.00  0.00    -0.492 OA
ENDBRANCH   1  23
BRANCH   3  24
ATOM     24  C   LIG A   1      -5.728  -0.124 127.310  0.00  0.00    +0.045 C 
BRANCH  24  25
ATOM     25  C   LIG A   1      -5.230   1.293 127.429  0.00  0.00    -0.033 C 
ATOM     26  C   LIG A   1      -4.271   1.826 126.660  0.00  0.00    +0.004 C 
ENDBRANCH  24  25
ENDBRANCH   3  24
TORSDOF 6
ENDMDL
MODEL 6
REMARK VINA RESULT:      -6.7      3.666      6.000
REMARK  Name = NuBBE_262
REMARK  10 active torsions:
REMARK  status: ('A' for Active; 'I' for Inactive)
REMARK    1  A    between atoms: C_1  and  O_2
REMARK    2  A    between atoms: O_2  and  C_3
REMARK    3  A    between atoms: C_5  and  C_6
REMARK    4  A    between atoms: C_6  and  C_7
REMARK    5  A    between atoms: C_11  and  C_12
REMARK    6  A    between atoms: C_14  and  C_16
REMARK    7  A    between atoms: C_18  and  O_19
REMARK    8  A    between atoms: O_19  and  C_20
REMARK    9  A    between atoms: C_21  and  O_22
REMARK   10  A    between atoms: O_22  and  C_23
REMARK                            x       y       z     vdW  Elec       q    Type
REMARK                         _______ _______ _______ _____ _____    ______ ____
ROOT
ATOM      1  C   LIG A   1      -7.711  -2.226 124.742  0.00  0.00    +0.160 C 
ATOM      2  C   LIG A   1      -8.069  -2.138 126.041  0.00  0.00    +0.037 C 
ATOM      3  C   LIG A   1      -7.679  -0.975 126.946  0.00  0.00    +0.058 C 
ATOM      4  C   LIG A   1      -6.234  -0.818 126.520  0.00  0.00    +0.155 C 
ATOM      5  O   LIG A   1      -5.247  -1.278 127.081  0.00  0.00    -0.296 OA
ATOM      6  C   LIG A   1      -8.243   0.416 126.488  0.00  0.00    +0.012 C 
ATOM      7  C   LIG A   1      -9.642   0.406 125.856  0.00  0.00    +0.009 C 
ATOM      8  C   LIG A   1      -7.207   0.989 125.462  0.00  0.00    +0.041 C 
ATOM      9  C   LIG A   1      -6.220  -0.150 125.185  0.00  0.00    +0.138 C 
ATOM     10  C   LIG A   1      -6.845  -1.102 124.176  0.00  0.00    +0.208 C 
ATOM     11  O   LIG A   1      -6.735  -0.896 122.969  0.00  0.00    -0.288 OA
ENDROOT
BRANCH   8  12
ATOM     12  C   LIG A   1      -6.534   2.253 125.976  0.00  0.00    -0.039 A 
ATOM     13  C   LIG A   1      -7.010   2.989 127.075  0.00  0.00    +0.053 A 
ATOM     14  C   LIG A   1      -6.373   4.161 127.519  0.00  0.00    +0.162 A 
ATOM     15  C   LIG A   1      -5.240   4.623 126.838  0.00  0.00    +0.162 A 
ATOM     16  C   LIG A   1      -4.751   3.884 125.753  0.00  0.00    +0.050 A 
ATOM     17  C   LIG A   1      -5.390   2.719 125.326  0.00  0.00    +0.008 A 
BRANCH  14  18
ATOM     18  O   LIG A   1      -7.000   4.718 128.606  0.00  0.00    -0.491 OA
ATOM     19  C   LIG A   1      -6.558   4.347 129.904  0.00  0.00    +0.277 C 
ENDBRANCH  14  18
BRANCH  15  20
ATOM     20  O   LIG A   1      -4.600   5.750 127.283  0.00  0.00    -0.491 OA
ATOM     21  C   LIG A   1      -3.299   5.560 127.824  0.00  0.00    +0.277 C 
ENDBRANCH  15  20
ENDBRANCH   8  12
BRANCH   1  23
ATOM     22  C   LIG A   1      -9.452  -3.269 123.499  0.00  0.00    +0.277 C 
ATOM     23  O   LIG A   1      -8.123  -3.321 124.009  0.00  0.00    -0.492 OA
ENDBRANCH   1  23
BRANCH   3  24
ATOM     24  C   LIG A   1      -7.746  -1.233 128.467  0.00  0.00    +0.045 C 
BRANCH  24  25
ATOM     25  C   LIG A   1      -8.062  -2.646 128.886  0.00  0.00    -0.033 C 
ATOM     26  C   LIG A   1      -7.189  -3.473 129.478  0.00  0.00    +0.004 C 
ENDBRANCH  24  25
ENDBRANCH   3  24
TORSDOF 6
ENDMDL
MODEL 7
REMARK VINA RESULT:      -6.6      8.707     10.737
REMARK  Name = NuBBE_262
REMARK  10 active torsions:
REMARK  status: ('A' for Active; 'I' for Inactive)
REMARK    1  A    between atoms: C_1  and  O_2
REMARK    2  A    between atoms: O_2  and  C_3
REMARK    3  A    between atoms: C_5  and  C_6
REMARK    4  A    between atoms: C_6  and  C_7
REMARK    5  A    between atoms: C_11  and  C_12
REMARK    6  A    between atoms: C_14  and  C_16
REMARK    7  A    between atoms: C_18  and  O_19
REMARK    8  A    between atoms: O_19  and  C_20
REMARK    9  A    between atoms: C_21  and  O_22
REMARK   10  A    between atoms: O_22  and  C_23
REMARK                            x       y       z     vdW  Elec       q    Type
REMARK                         _______ _______ _______ _____ _____    ______ ____
ROOT
ATOM      1  C   LIG A   1      -2.245   5.608 132.102  0.00  0.00    +0.160 C 
ATOM      2  C   LIG A   1      -2.449   5.474 130.774  0.00  0.00    +0.037 C 
ATOM      3  C   LIG A   1      -3.830   5.319 130.146  0.00  0.00    +0.058 C 
ATOM      4  C   LIG A   1      -4.430   4.338 131.133  0.00  0.00    +0.155 C 
ATOM      5  O   LIG A   1      -4.498   3.121 131.014  0.00  0.00    -0.296 OA
ATOM      6  C   LIG A   1      -4.784   6.542 130.375  0.00  0.00    +0.012 C 
ATOM      7  C   LIG A   1      -4.123   7.928 130.375  0.00  0.00    +0.009 C 
ATOM      8  C   LIG A   1      -5.487   6.296 131.753  0.00  0.00    +0.041 C 
ATOM      9  C   LIG A   1      -4.772   5.091 132.376  0.00  0.00    +0.138 C 
ATOM     10  C   LIG A   1      -3.473   5.570 133.009  0.00  0.00    +0.208 C 
ATOM     11  O   LIG A   1      -3.459   6.001 134.160  0.00  0.00    -0.288 OA
ENDROOT
BRANCH   8  12
ATOM     12  C   LIG A   1      -6.986   6.089 131.600  0.00  0.00    -0.039 A 
ATOM     13  C   LIG A   1      -7.666   4.965 132.101  0.00  0.00    +0.053 A 
ATOM     14  C   LIG A   1      -9.052   4.797 131.932  0.00  0.00    +0.162 A 
ATOM     15  C   LIG A   1      -9.778   5.766 131.230  0.00  0.00    +0.162 A 
ATOM     16  C   LIG A   1      -9.108   6.897 130.744  0.00  0.00    +0.050 A 
ATOM     17  C   LIG A   1      -7.733   7.055 130.922  0.00  0.00    +0.008 A 
BRANCH  14  18
ATOM     18  O   LIG A   1      -9.510   3.634 132.501  0.00  0.00    -0.491 OA
ATOM     19  C   LIG A   1      -8.650   2.929 133.385  0.00  0.00    +0.277 C 
ENDBRANCH  14  18
BRANCH  15  20
ATOM     20  O   LIG A   1     -11.133   5.620 131.086  0.00  0.00    -0.491 OA
ATOM     21  C   LIG A   1     -11.932   6.703 131.542  0.00  0.00    +0.277 C 
ENDBRANCH  15  20
ENDBRANCH   8  12
BRANCH   1  23
ATOM     22  C   LIG A   1      -0.415   7.067 132.533  0.00  0.00    +0.277 C 
ATOM     23  O   LIG A   1      -0.951   5.749 132.566  0.00  0.00    -0.492 OA
ENDBRANCH   1  23
BRANCH   3  24
ATOM     24  C   LIG A   1      -3.877   4.716 128.725  0.00  0.00    +0.045 C 
BRANCH  24  25
ATOM     25  C   LIG A   1      -2.556   4.612 128.007  0.00  0.00    -0.033 C 
ATOM     26  C   LIG A   1      -2.214   3.605 127.192  0.00  0.00    +0.004 C 
ENDBRANCH  24  25
ENDBRANCH   3  24
TORSDOF 6
ENDMDL
MODEL 8
REMARK VINA RESULT:      -6.6      4.311      5.778
REMARK  Name = NuBBE_262
REMARK  10 active torsions:
REMARK  status: ('A' for Active; 'I' for Inactive)
REMARK    1  A    between atoms: C_1  and  O_2
REMARK    2  A    between atoms: O_2  and  C_3
REMARK    3  A    between atoms: C_5  and  C_6
REMARK    4  A    between atoms: C_6  and  C_7
REMARK    5  A    between atoms: C_11  and  C_12
REMARK    6  A    between atoms: C_14  and  C_16
REMARK    7  A    between atoms: C_18  and  O_19
REMARK    8  A    between atoms: O_19  and  C_20
REMARK    9  A    between atoms: C_21  and  O_22
REMARK   10  A    between atoms: O_22  and  C_23
REMARK                            x       y       z     vdW  Elec       q    Type
REMARK                         _______ _______ _______ _____ _____    ______ ____
ROOT
ATOM      1  C   LIG A   1      -8.426  -0.017 123.853  0.00  0.00    +0.160 C 
ATOM      2  C   LIG A   1      -7.431   0.872 123.645  0.00  0.00    +0.037 C 
ATOM      3  C   LIG A   1      -6.975   1.886 124.688  0.00  0.00    +0.058 C 
ATOM      4  C   LIG A   1      -8.332   2.333 125.193  0.00  0.00    +0.155 C 
ATOM      5  O   LIG A   1      -8.956   3.327 124.843  0.00  0.00    -0.296 OA
ATOM      6  C   LIG A   1      -6.401   1.247 126.001  0.00  0.00    +0.012 C 
ATOM      7  C   LIG A   1      -5.599  -0.052 125.830  0.00  0.00    +0.009 C 
ATOM      8  C   LIG A   1      -7.634   0.984 126.932  0.00  0.00    +0.041 C 
ATOM      9  C   LIG A   1      -8.872   1.254 126.070  0.00  0.00    +0.138 C 
ATOM     10  C   LIG A   1      -9.138   0.031 125.204  0.00  0.00    +0.208 C 
ATOM     11  O   LIG A   1      -9.808  -0.907 125.632  0.00  0.00    -0.288 OA
ENDROOT
BRANCH   8  12
ATOM     12  C   LIG A   1      -7.586   1.832 128.194  0.00  0.00    -0.039 A 
ATOM     13  C   LIG A   1      -8.706   2.066 129.011  0.00  0.00    +0.053 A 
ATOM     14  C   LIG A   1      -8.632   2.865 130.165  0.00  0.00    +0.162 A 
ATOM     15  C   LIG A   1      -7.413   3.463 130.507  0.00  0.00    +0.162 A 
ATOM     16  C   LIG A   1      -6.289   3.218 129.706  0.00  0.00    +0.050 A 
ATOM     17  C   LIG A   1      -6.374   2.419 128.565  0.00  0.00    +0.008 A 
BRANCH  14  18
ATOM     18  O   LIG A   1      -9.838   2.958 130.815  0.00  0.00    -0.491 OA
ATOM     19  C   LIG A   1     -10.688   4.054 130.509  0.00  0.00    +0.277 C 
ENDBRANCH  14  18
BRANCH  15  20
ATOM     20  O   LIG A   1      -7.329   4.220 131.645  0.00  0.00    -0.491 OA
ATOM     21  C   LIG A   1      -6.041   4.321 132.238  0.00  0.00    +0.277 C 
ENDBRANCH  15  20
ENDBRANCH   8  12
BRANCH   1  23
ATOM     22  C   LIG A   1      -7.983  -2.091 122.773  0.00  0.00    +0.277 C 
ATOM     23  O   LIG A   1      -8.756  -0.897 122.841  0.00  0.00    -0.492 OA
ENDBRANCH   1  23
BRANCH   3  24
ATOM     24  C   LIG A   1      -6.188   3.107 124.164  0.00  0.00    +0.045 C 
BRANCH  24  25
ATOM     25  C   LIG A   1      -5.261   3.770 125.150  0.00  0.00    -0.033 C 
ATOM     26  C   LIG A   1      -5.579   4.845 125.884  0.00  0.00    +0.004 C 
ENDBRANCH  24  25
ENDBRANCH   3  24
TORSDOF 6
ENDMDL
MODEL 9
REMARK VINA RESULT:      -6.5      8.477     11.319
REMARK  Name = NuBBE_262
REMARK  10 active torsions:
REMARK  status: ('A' for Active; 'I' for Inactive)
REMARK    1  A    between atoms: C_1  and  O_2
REMARK    2  A    between atoms: O_2  and  C_3
REMARK    3  A    between atoms: C_5  and  C_6
REMARK    4  A    between atoms: C_6  and  C_7
REMARK    5  A    between atoms: C_11  and  C_12
REMARK    6  A    between atoms: C_14  and  C_16
REMARK    7  A    between atoms: C_18  and  O_19
REMARK    8  A    between atoms: O_19  and  C_20
REMARK    9  A    between atoms: C_21  and  O_22
REMARK   10  A    between atoms: O_22  and  C_23
REMARK                            x       y       z     vdW  Elec       q    Type
REMARK                         _______ _______ _______ _____ _____    ______ ____
ROOT
ATOM      1  C   LIG A   1      -6.484   3.454 131.009  0.00  0.00    +0.160 C 
ATOM      2  C   LIG A   1      -6.901   3.867 132.225  0.00  0.00    +0.037 C 
ATOM      3  C   LIG A   1      -8.000   4.904 132.431  0.00  0.00    +0.058 C 
ATOM      4  C   LIG A   1      -7.590   5.899 131.365  0.00  0.00    +0.155 C 
ATOM      5  O   LIG A   1      -6.926   6.916 131.523  0.00  0.00    -0.296 OA
ATOM      6  C   LIG A   1      -9.402   4.478 131.872  0.00  0.00    +0.012 C 
ATOM      7  C   LIG A   1      -9.757   2.988 131.992  0.00  0.00    +0.009 C 
ATOM      8  C   LIG A   1      -9.415   4.901 130.363  0.00  0.00    +0.041 C 
ATOM      9  C   LIG A   1      -7.982   5.336 130.039  0.00  0.00    +0.138 C 
ATOM     10  C   LIG A   1      -7.141   4.093 129.787  0.00  0.00    +0.208 C 
ATOM     11  O   LIG A   1      -7.094   3.584 128.670  0.00  0.00    -0.288 OA
ENDROOT
BRANCH   8  12
ATOM     12  C   LIG A   1     -10.448   5.983 130.084  0.00  0.00    -0.039 A 
ATOM     13  C   LIG A   1     -10.442   6.775 128.923  0.00  0.00    +0.053 A 
ATOM     14  C   LIG A   1     -11.403   7.776 128.700  0.00  0.00    +0.162 A 
ATOM     15  C   LIG A   1     -12.388   8.008 129.668  0.00  0.00    +0.162 A 
ATOM     16  C   LIG A   1     -12.409   7.209 130.819  0.00  0.00    +0.050 A 
ATOM     17  C   LIG A   1     -11.452   6.215 131.027  0.00  0.00    +0.008 A 
BRANCH  14  18
ATOM     18  O   LIG A   1     -11.214   8.426 127.505  0.00  0.00    -0.491 OA
ATOM     19  C   LIG A   1     -10.893   7.651 126.358  0.00  0.00    +0.277 C 
ENDBRANCH  14  18
BRANCH  15  20
ATOM     20  O   LIG A   1     -13.342   8.964 129.443  0.00  0.00    -0.491 OA
ATOM     21  C   LIG A   1     -13.093  10.245 130.008  0.00  0.00    +0.277 C 
ENDBRANCH  15  20
ENDBRANCH   8  12
BRANCH   1  23
ATOM     22  C   LIG A   1      -4.182   2.989 130.621  0.00  0.00    +0.277 C 
ATOM     23  O   LIG A   1      -5.484   2.504 130.935  0.00  0.00    -0.492 OA
ENDBRANCH   1  23
BRANCH   3  24
ATOM     24  C   LIG A   1      -8.036   5.605 133.807  0.00  0.00    +0.045 C 
BRANCH  24  25
ATOM     25  C   LIG A   1      -6.952   5.213 134.778  0.00  0.00    -0.033 C 
ATOM     26  C   LIG A   1      -6.952   5.528 136.081  0.00  0.00    +0.004 C 
ENDBRANCH  24  25
ENDBRANCH   3  24
TORSDOF 6
ENDMDL
