MODEL 1
REMARK VINA RESULT:      -7.4      0.000      0.000
REMARK  Name = NuBBE_22
REMARK  4 active torsions:
REMARK  status: ('A' for Active; 'I' for Inactive)
REMARK    1  A    between atoms: C_2  and  C_9
REMARK    2  A    between atoms: C_10  and  C_11
REMARK    3  A    between atoms: C_11  and  C_12
REMARK    4  A    between atoms: C_12  and  C_13
REMARK                            x       y       z     vdW  Elec       q    Type
REMARK                         _______ _______ _______ _____ _____    ______ ____
ROOT
ATOM      1  C   LIG A   1      -7.274   3.713 124.858  0.00  0.00    +0.032 C 
ENDROOT
BRANCH   1   3
ATOM      2  C   LIG A   1      -7.955   1.302 124.935  0.00  0.00    +0.063 C 
ATOM      3  C   LIG A   1      -8.076   2.557 125.399  0.00  0.00    -0.021 C 
BRANCH   2   5
ATOM      4  O   LIG A   1      -9.845   0.409 126.025  0.00  0.00    -0.271 OA
ATOM      5  C   LIG A   1      -8.801   0.180 125.432  0.00  0.00    +0.239 C 
ATOM      6  N   LIG A   1      -8.349  -1.097 125.101  0.00  0.00    -0.298 N 
ATOM      7  C   LIG A   1      -9.207  -2.226 125.458  0.00  0.00    +0.108 C 
ATOM      8  C   LIG A   1      -8.989  -3.425 124.536  0.00  0.00    +0.019 C 
ATOM      9  C   LIG A   1      -7.513  -3.798 124.441  0.00  0.00    +0.003 C 
ATOM     10  C   LIG A   1      -6.687  -2.586 124.026  0.00  0.00    +0.019 C 
ATOM     11  C   LIG A   1      -6.924  -1.414 124.970  0.00  0.00    +0.108 C 
ENDBRANCH   2   5
ENDBRANCH   1   3
BRANCH   1  12
ATOM     12  C   LIG A   1      -6.187   3.236 123.890  0.00  0.00    +0.039 C 
BRANCH  12  13
ATOM     13  C   LIG A   1      -6.500   3.547 122.443  0.00  0.00    -0.043 A 
ATOM     14  C   LIG A   1      -7.821   3.465 121.970  0.00  0.00    +0.053 A 
ATOM     15  C   LIG A   1      -8.067   3.810 120.656  0.00  0.00    +0.167 A 
ATOM     16  O   LIG A   1      -9.286   3.817 120.051  0.00  0.00    -0.453 OA
ATOM     17  C   LIG A   1      -8.934   4.307 118.739  0.00  0.00    +0.466 C 
ATOM     18  O   LIG A   1      -7.517   4.520 118.567  0.00  0.00    -0.453 OA
ATOM     19  C   LIG A   1      -7.060   4.210 119.810  0.00  0.00    +0.166 A 
ATOM     20  C   LIG A   1      -5.750   4.281 120.229  0.00  0.00    +0.050 A 
ATOM     21  C   LIG A   1      -5.470   3.945 121.559  0.00  0.00    +0.007 A 
ENDBRANCH  12  13
ENDBRANCH   1  12
TORSDOF 4
ENDMDL
MODEL 2
REMARK VINA RESULT:      -7.3      2.112      2.974
REMARK  Name = NuBBE_22
REMARK  4 active torsions:
REMARK  status: ('A' for Active; 'I' for Inactive)
REMARK    1  A    between atoms: C_2  and  C_9
REMARK    2  A    between atoms: C_10  and  C_11
REMARK    3  A    between atoms: C_11  and  C_12
REMARK    4  A    between atoms: C_12  and  C_13
REMARK                            x       y       z     vdW  Elec       q    Type
REMARK                         _______ _______ _______ _____ _____    ______ ____
ROOT
ATOM      1  C   LIG A   1      -4.749   1.957 126.271  0.00  0.00    +0.032 C 
ENDROOT
BRANCH   1   3
ATOM      2  C   LIG A   1      -5.448  -0.357 125.609  0.00  0.00    +0.063 C 
ATOM      3  C   LIG A   1      -5.312   0.588 126.555  0.00  0.00    -0.021 C 
BRANCH   2   5
ATOM      4  O   LIG A   1      -5.717  -2.337 126.859  0.00  0.00    -0.271 OA
ATOM      5  C   LIG A   1      -6.067  -1.683 125.888  0.00  0.00    +0.239 C 
ATOM      6  N   LIG A   1      -7.095  -2.053 125.020  0.00  0.00    -0.298 N 
ATOM      7  C   LIG A   1      -7.818  -3.288 125.324  0.00  0.00    +0.108 C 
ATOM      8  C   LIG A   1      -9.242  -3.267 124.772  0.00  0.00    +0.019 C 
ATOM      9  C   LIG A   1      -9.265  -2.907 123.290  0.00  0.00    +0.003 C 
ATOM     10  C   LIG A   1      -8.530  -1.592 123.055  0.00  0.00    +0.019 C 
ATOM     11  C   LIG A   1      -7.113  -1.651 123.611  0.00  0.00    +0.108 C 
ENDBRANCH   2   5
ENDBRANCH   1   3
BRANCH   1  12
ATOM     12  C   LIG A   1      -5.858   2.963 125.947  0.00  0.00    +0.039 C 
BRANCH  12  13
ATOM     13  C   LIG A   1      -6.058   3.173 124.463  0.00  0.00    -0.043 A 
ATOM     14  C   LIG A   1      -5.303   4.137 123.775  0.00  0.00    +0.053 A 
ATOM     15  C   LIG A   1      -5.480   4.256 122.411  0.00  0.00    +0.167 A 
ATOM     16  O   LIG A   1      -4.810   5.113 121.593  0.00  0.00    -0.453 OA
ATOM     17  C   LIG A   1      -5.362   4.750 120.310  0.00  0.00    +0.466 C 
ATOM     18  O   LIG A   1      -6.386   3.737 120.391  0.00  0.00    -0.453 OA
ATOM     19  C   LIG A   1      -6.378   3.473 121.726  0.00  0.00    +0.166 A 
ATOM     20  C   LIG A   1      -7.154   2.533 122.367  0.00  0.00    +0.050 A 
ATOM     21  C   LIG A   1      -6.989   2.384 123.750  0.00  0.00    +0.007 A 
ENDBRANCH  12  13
ENDBRANCH   1  12
TORSDOF 4
ENDMDL
MODEL 3
REMARK VINA RESULT:      -7.3      1.681      2.061
REMARK  Name = NuBBE_22
REMARK  4 active torsions:
REMARK  status: ('A' for Active; 'I' for Inactive)
REMARK    1  A    between atoms: C_2  and  C_9
REMARK    2  A    between atoms: C_10  and  C_11
REMARK    3  A    between atoms: C_11  and  C_12
REMARK    4  A    between atoms: C_12  and  C_13
REMARK                            x       y       z     vdW  Elec       q    Type
REMARK                         _______ _______ _______ _____ _____    ______ ____
ROOT
ATOM      1  C   LIG A   1      -8.117   3.103 124.065  0.00  0.00    +0.032 C 
ENDROOT
BRANCH   1   3
ATOM      2  C   LIG A   1      -8.270   0.602 124.085  0.00  0.00    +0.063 C 
ATOM      3  C   LIG A   1      -8.848   1.801 124.270  0.00  0.00    -0.021 C 
BRANCH   2   5
ATOM      4  O   LIG A   1      -9.750  -1.069 123.327  0.00  0.00    -0.271 OA
ATOM      5  C   LIG A   1      -9.021  -0.678 124.226  0.00  0.00    +0.239 C 
ATOM      6  N   LIG A   1      -8.760  -1.394 125.394  0.00  0.00    -0.298 N 
ATOM      7  C   LIG A   1      -9.377  -2.714 125.523  0.00  0.00    +0.108 C 
ATOM      8  C   LIG A   1      -8.568  -3.636 126.434  0.00  0.00    +0.019 C 
ATOM      9  C   LIG A   1      -8.270  -2.978 127.778  0.00  0.00    +0.003 C 
ATOM     10  C   LIG A   1      -7.593  -1.629 127.566  0.00  0.00    +0.019 C 
ATOM     11  C   LIG A   1      -8.430  -0.733 126.660  0.00  0.00    +0.108 C 
ENDBRANCH   2   5
ENDBRANCH   1   3
BRANCH   1  12
ATOM     12  C   LIG A   1      -6.638   2.872 123.743  0.00  0.00    +0.039 C 
BRANCH  12  13
ATOM     13  C   LIG A   1      -6.173   3.616 122.511  0.00  0.00    -0.043 A 
ATOM     14  C   LIG A   1      -6.932   3.573 121.329  0.00  0.00    +0.053 A 
ATOM     15  C   LIG A   1      -6.497   4.310 120.246  0.00  0.00    +0.167 A 
ATOM     16  O   LIG A   1      -7.126   4.404 119.043  0.00  0.00    -0.453 OA
ATOM     17  C   LIG A   1      -6.261   5.333 118.356  0.00  0.00    +0.466 C 
ATOM     18  O   LIG A   1      -5.108   5.723 119.131  0.00  0.00    -0.453 OA
ATOM     19  C   LIG A   1      -5.347   5.062 120.295  0.00  0.00    +0.166 A 
ATOM     20  C   LIG A   1      -4.564   5.112 121.427  0.00  0.00    +0.050 A 
ATOM     21  C   LIG A   1      -4.984   4.380 122.544  0.00  0.00    +0.007 A 
ENDBRANCH  12  13
ENDBRANCH   1  12
TORSDOF 4
ENDMDL
MODEL 4
REMARK VINA RESULT:      -7.3      3.069      5.052
REMARK  Name = NuBBE_22
REMARK  4 active torsions:
REMARK  status: ('A' for Active; 'I' for Inactive)
REMARK    1  A    between atoms: C_2  and  C_9
REMARK    2  A    between atoms: C_10  and  C_11
REMARK    3  A    between atoms: C_11  and  C_12
REMARK    4  A    between atoms: C_12  and  C_13
REMARK                            x       y       z     vdW  Elec       q    Type
REMARK                         _______ _______ _______ _____ _____    ______ ____
ROOT
ATOM      1  C   LIG A   1      -9.397  -3.118 123.432  0.00  0.00    +0.032 C 
ENDROOT
BRANCH   1   3
ATOM      2  C   LIG A   1      -9.290  -2.905 125.926  0.00  0.00    +0.063 C 
ATOM      3  C   LIG A   1      -8.896  -3.515 124.797  0.00  0.00    -0.021 C 
BRANCH   2   5
ATOM      4  O   LIG A   1      -9.247  -4.154 127.925  0.00  0.00    -0.271 OA
ATOM      5  C   LIG A   1      -8.737  -3.263 127.263  0.00  0.00    +0.239 C 
ATOM      6  N   LIG A   1      -7.584  -2.570 127.634  0.00  0.00    -0.298 N 
ATOM      7  C   LIG A   1      -6.933  -2.970 128.881  0.00  0.00    +0.108 C 
ATOM      8  C   LIG A   1      -5.437  -2.659 128.869  0.00  0.00    +0.019 C 
ATOM      9  C   LIG A   1      -5.169  -1.205 128.491  0.00  0.00    +0.003 C 
ATOM     10  C   LIG A   1      -5.843  -0.872 127.165  0.00  0.00    +0.019 C 
ATOM     11  C   LIG A   1      -7.333  -1.188 127.215  0.00  0.00    +0.108 C 
ENDBRANCH   2   5
ENDBRANCH   1   3
BRANCH   1  12
ATOM     12  C   LIG A   1      -8.392  -2.221 122.704  0.00  0.00    +0.039 C 
BRANCH  12  13
ATOM     13  C   LIG A   1      -8.534  -0.757 123.056  0.00  0.00    -0.043 A 
ATOM     14  C   LIG A   1      -7.447  -0.049 123.595  0.00  0.00    +0.053 A 
ATOM     15  C   LIG A   1      -7.606   1.298 123.851  0.00  0.00    +0.167 A 
ATOM     16  O   LIG A   1      -6.649   2.133 124.340  0.00  0.00    -0.453 OA
ATOM     17  C   LIG A   1      -7.360   3.390 124.338  0.00  0.00    +0.466 C 
ATOM     18  O   LIG A   1      -8.733   3.272 123.913  0.00  0.00    -0.453 OA
ATOM     19  C   LIG A   1      -8.793   1.947 123.608  0.00  0.00    +0.166 A 
ATOM     20  C   LIG A   1      -9.889   1.284 123.103  0.00  0.00    +0.050 A 
ATOM     21  C   LIG A   1      -9.755  -0.082 122.826  0.00  0.00    +0.007 A 
ENDBRANCH  12  13
ENDBRANCH   1  12
TORSDOF 4
ENDMDL
MODEL 5
REMARK VINA RESULT:      -7.1     10.990     13.452
REMARK  Name = NuBBE_22
REMARK  4 active torsions:
REMARK  status: ('A' for Active; 'I' for Inactive)
REMARK    1  A    between atoms: C_2  and  C_9
REMARK    2  A    between atoms: C_10  and  C_11
REMARK    3  A    between atoms: C_11  and  C_12
REMARK    4  A    between atoms: C_12  and  C_13
REMARK                            x       y       z     vdW  Elec       q    Type
REMARK                         _______ _______ _______ _____ _____    ______ ____
ROOT
ATOM      1  C   LIG A   1      -8.079   4.624 133.840  0.00  0.00    +0.032 C 
ENDROOT
BRANCH   1   3
ATOM      2  C   LIG A   1      -7.918   6.051 135.894  0.00  0.00    +0.063 C 
ATOM      3  C   LIG A   1      -7.534   4.965 135.204  0.00  0.00    -0.021 C 
BRANCH   2   5
ATOM      4  O   LIG A   1      -6.386   5.774 137.663  0.00  0.00    -0.271 OA
ATOM      5  C   LIG A   1      -7.324   6.413 137.212  0.00  0.00    +0.239 C 
ATOM      6  N   LIG A   1      -7.863   7.550 137.815  0.00  0.00    -0.298 N 
ATOM      7  C   LIG A   1      -7.232   8.018 139.048  0.00  0.00    +0.108 C 
ATOM      8  C   LIG A   1      -7.425   9.520 139.255  0.00  0.00    +0.019 C 
ATOM      9  C   LIG A   1      -8.893   9.918 139.143  0.00  0.00    +0.003 C 
ATOM     10  C   LIG A   1      -9.472   9.433 137.818  0.00  0.00    +0.019 C 
ATOM     11  C   LIG A   1      -9.268   7.932 137.649  0.00  0.00    +0.108 C 
ENDBRANCH   2   5
ENDBRANCH   1   3
BRANCH   1  12
ATOM     12  C   LIG A   1      -7.674   5.670 132.797  0.00  0.00    +0.039 C 
BRANCH  12  13
ATOM     13  C   LIG A   1      -8.844   6.199 131.998  0.00  0.00    -0.043 A 
ATOM     14  C   LIG A   1      -8.625   6.915 130.809  0.00  0.00    +0.053 A 
ATOM     15  C   LIG A   1      -9.723   7.332 130.084  0.00  0.00    +0.167 A 
ATOM     16  O   LIG A   1      -9.687   8.005 128.903  0.00  0.00    -0.453 OA
ATOM     17  C   LIG A   1     -11.096   8.109 128.607  0.00  0.00    +0.466 C 
ATOM     18  O   LIG A   1     -11.941   7.557 129.638  0.00  0.00    -0.453 OA
ATOM     19  C   LIG A   1     -11.007   7.077 130.503  0.00  0.00    +0.166 A 
ATOM     20  C   LIG A   1     -11.264   6.399 131.674  0.00  0.00    +0.050 A 
ATOM     21  C   LIG A   1     -10.170   5.957 132.427  0.00  0.00    +0.007 A 
ENDBRANCH  12  13
ENDBRANCH   1  12
TORSDOF 4
ENDMDL
MODEL 6
REMARK VINA RESULT:      -7.1      5.966     10.603
REMARK  Name = NuBBE_22
REMARK  4 active torsions:
REMARK  status: ('A' for Active; 'I' for Inactive)
REMARK    1  A    between atoms: C_2  and  C_9
REMARK    2  A    between atoms: C_10  and  C_11
REMARK    3  A    between atoms: C_11  and  C_12
REMARK    4  A    between atoms: C_12  and  C_13
REMARK                            x       y       z     vdW  Elec       q    Type
REMARK                         _______ _______ _______ _____ _____    ______ ____
ROOT
ATOM      1  C   LIG A   1      -8.096  -3.463 129.167  0.00  0.00    +0.032 C 
ENDROOT
BRANCH   1   3
ATOM      2  C   LIG A   1      -8.771  -3.081 126.784  0.00  0.00    +0.063 C 
ATOM      3  C   LIG A   1      -8.293  -2.603 127.945  0.00  0.00    -0.021 C 
BRANCH   2   5
ATOM      4  O   LIG A   1      -9.839  -1.465 125.441  0.00  0.00    -0.271 OA
ATOM      5  C   LIG A   1      -8.899  -2.236 125.563  0.00  0.00    +0.239 C 
ATOM      6  N   LIG A   1      -7.848  -2.345 124.652  0.00  0.00    -0.298 N 
ATOM      7  C   LIG A   1      -7.865  -1.447 123.498  0.00  0.00    +0.108 C 
ATOM      8  C   LIG A   1      -6.459  -1.178 122.963  0.00  0.00    +0.019 C 
ATOM      9  C   LIG A   1      -5.700  -2.475 122.703  0.00  0.00    +0.003 C 
ATOM     10  C   LIG A   1      -5.689  -3.341 123.958  0.00  0.00    +0.019 C 
ATOM     11  C   LIG A   1      -7.105  -3.594 124.459  0.00  0.00    +0.108 C 
ENDBRANCH   2   5
ENDBRANCH   1   3
BRANCH   1  12
ATOM     12  C   LIG A   1      -6.642  -3.428 129.648  0.00  0.00    +0.039 C 
BRANCH  12  13
ATOM     13  C   LIG A   1      -6.504  -3.622 131.142  0.00  0.00    -0.043 A 
ATOM     14  C   LIG A   1      -7.285  -2.864 132.030  0.00  0.00    +0.053 A 
ATOM     15  C   LIG A   1      -7.165  -3.113 133.383  0.00  0.00    +0.167 A 
ATOM     16  O   LIG A   1      -7.867  -2.495 134.371  0.00  0.00    -0.453 OA
ATOM     17  C   LIG A   1      -7.370  -3.192 135.533  0.00  0.00    +0.466 C 
ATOM     18  O   LIG A   1      -6.345  -4.160 135.227  0.00  0.00    -0.453 OA
ATOM     19  C   LIG A   1      -6.298  -4.061 133.871  0.00  0.00    +0.166 A 
ATOM     20  C   LIG A   1      -5.498  -4.808 133.035  0.00  0.00    +0.050 A 
ATOM     21  C   LIG A   1      -5.604  -4.584 131.657  0.00  0.00    +0.007 A 
ENDBRANCH  12  13
ENDBRANCH   1  12
TORSDOF 4
ENDMDL
MODEL 7
REMARK VINA RESULT:      -7.0      4.926      9.489
REMARK  Name = NuBBE_22
REMARK  4 active torsions:
REMARK  status: ('A' for Active; 'I' for Inactive)
REMARK    1  A    between atoms: C_2  and  C_9
REMARK    2  A    between atoms: C_10  and  C_11
REMARK    3  A    between atoms: C_11  and  C_12
REMARK    4  A    between atoms: C_12  and  C_13
REMARK                            x       y       z     vdW  Elec       q    Type
REMARK                         _______ _______ _______ _____ _____    ______ ____
ROOT
ATOM      1  C   LIG A   1      -8.635  -4.045 127.950  0.00  0.00    +0.032 C 
ENDROOT
BRANCH   1   3
ATOM      2  C   LIG A   1      -8.551  -3.479 125.510  0.00  0.00    +0.063 C 
ATOM      3  C   LIG A   1      -9.151  -3.367 126.707  0.00  0.00    -0.021 C 
BRANCH   2   5
ATOM      4  O   LIG A   1      -9.904  -3.235 123.596  0.00  0.00    -0.271 OA
ATOM      5  C   LIG A   1      -9.033  -2.751 124.302  0.00  0.00    +0.239 C 
ATOM      6  N   LIG A   1      -8.477  -1.485 124.111  0.00  0.00    -0.298 N 
ATOM      7  C   LIG A   1      -9.007  -0.680 123.010  0.00  0.00    +0.108 C 
ATOM      8  C   LIG A   1      -8.844   0.817 123.268  0.00  0.00    +0.019 C 
ATOM      9  C   LIG A   1      -7.405   1.170 123.634  0.00  0.00    +0.003 C 
ATOM     10  C   LIG A   1      -6.936   0.323 124.811  0.00  0.00    +0.019 C 
ATOM     11  C   LIG A   1      -7.106  -1.163 124.517  0.00  0.00    +0.108 C 
ENDBRANCH   2   5
ENDBRANCH   1   3
BRANCH   1  12
ATOM     12  C   LIG A   1      -8.368  -3.035 129.070  0.00  0.00    +0.039 C 
BRANCH  12  13
ATOM     13  C   LIG A   1      -6.968  -3.125 129.634  0.00  0.00    -0.043 A 
ATOM     14  C   LIG A   1      -6.761  -3.568 130.951  0.00  0.00    +0.053 A 
ATOM     15  C   LIG A   1      -5.463  -3.687 131.405  0.00  0.00    +0.167 A 
ATOM     16  O   LIG A   1      -5.088  -4.128 132.636  0.00  0.00    -0.453 OA
ATOM     17  C   LIG A   1      -3.651  -4.091 132.511  0.00  0.00    +0.466 C 
ATOM     18  O   LIG A   1      -3.198  -3.573 131.243  0.00  0.00    -0.453 OA
ATOM     19  C   LIG A   1      -4.386  -3.370 130.612  0.00  0.00    +0.166 A 
ATOM     20  C   LIG A   1      -4.547  -2.910 129.324  0.00  0.00    +0.050 A 
ATOM     21  C   LIG A   1      -5.853  -2.787 128.833  0.00  0.00    +0.007 A 
ENDBRANCH  12  13
ENDBRANCH   1  12
TORSDOF 4
ENDMDL
MODEL 8
REMARK VINA RESULT:      -7.0      5.341      7.802
REMARK  Name = NuBBE_22
REMARK  4 active torsions:
REMARK  status: ('A' for Active; 'I' for Inactive)
REMARK    1  A    between atoms: C_2  and  C_9
REMARK    2  A    between atoms: C_10  and  C_11
REMARK    3  A    between atoms: C_11  and  C_12
REMARK    4  A    between atoms: C_12  and  C_13
REMARK                            x       y       z     vdW  Elec       q    Type
REMARK                         _______ _______ _______ _____ _____    ______ ____
ROOT
ATOM      1  C   LIG A   1      -7.975  -2.786 129.765  0.00  0.00    +0.032 C 
ENDROOT
BRANCH   1   3
ATOM      2  C   LIG A   1      -8.242  -2.346 127.312  0.00  0.00    +0.063 C 
ATOM      3  C   LIG A   1      -8.462  -3.131 128.380  0.00  0.00    -0.021 C 
BRANCH   2   5
ATOM      4  O   LIG A   1      -9.959  -2.969 125.823  0.00  0.00    -0.271 OA
ATOM      5  C   LIG A   1      -8.785  -2.664 125.961  0.00  0.00    +0.239 C 
ATOM      6  N   LIG A   1      -7.884  -2.508 124.907  0.00  0.00    -0.298 N 
ATOM      7  C   LIG A   1      -8.401  -2.688 123.551  0.00  0.00    +0.108 C 
ATOM      8  C   LIG A   1      -7.593  -1.899 122.522  0.00  0.00    +0.019 C 
ATOM      9  C   LIG A   1      -6.100  -2.188 122.639  0.00  0.00    +0.003 C 
ATOM     10  C   LIG A   1      -5.625  -1.941 124.066  0.00  0.00    +0.019 C 
ATOM     11  C   LIG A   1      -6.446  -2.748 125.064  0.00  0.00    +0.108 C 
ENDBRANCH   2   5
ENDBRANCH   1   3
BRANCH   1  12
ATOM     12  C   LIG A   1      -7.133  -1.507 129.761  0.00  0.00    +0.039 C 
BRANCH  12  13
ATOM     13  C   LIG A   1      -7.890  -0.293 130.250  0.00  0.00    -0.043 A 
ATOM     14  C   LIG A   1      -8.008   0.845 129.434  0.00  0.00    +0.053 A 
ATOM     15  C   LIG A   1      -8.754   1.909 129.899  0.00  0.00    +0.167 A 
ATOM     16  O   LIG A   1      -8.993   3.067 129.226  0.00  0.00    -0.453 OA
ATOM     17  C   LIG A   1      -9.854   3.751 130.161  0.00  0.00    +0.466 C 
ATOM     18  O   LIG A   1     -10.060   3.023 131.390  0.00  0.00    -0.453 OA
ATOM     19  C   LIG A   1      -9.361   1.885 131.132  0.00  0.00    +0.166 A 
ATOM     20  C   LIG A   1      -9.250   0.798 131.971  0.00  0.00    +0.050 A 
ATOM     21  C   LIG A   1      -8.506  -0.300 131.522  0.00  0.00    +0.007 A 
ENDBRANCH  12  13
ENDBRANCH   1  12
TORSDOF 4
ENDMDL
MODEL 9
REMARK VINA RESULT:      -7.0      5.503     10.259
REMARK  Name = NuBBE_22
REMARK  4 active torsions:
REMARK  status: ('A' for Active; 'I' for Inactive)
REMARK    1  A    between atoms: C_2  and  C_9
REMARK    2  A    between atoms: C_10  and  C_11
REMARK    3  A    between atoms: C_11  and  C_12
REMARK    4  A    between atoms: C_12  and  C_13
REMARK                            x       y       z     vdW  Elec       q    Type
REMARK                         _______ _______ _______ _____ _____    ______ ____
ROOT
ATOM      1  C   LIG A   1      -8.779  -3.920 128.311  0.00  0.00    +0.032 C 
ENDROOT
BRANCH   1   3
ATOM      2  C   LIG A   1      -9.143  -2.619 126.200  0.00  0.00    +0.063 C 
ATOM      3  C   LIG A   1      -8.576  -3.655 126.840  0.00  0.00    -0.021 C 
BRANCH   2   5
ATOM      4  O   LIG A   1      -8.745  -3.347 123.993  0.00  0.00    -0.271 OA
ATOM      5  C   LIG A   1      -8.989  -2.405 124.733  0.00  0.00    +0.239 C 
ATOM      6  N   LIG A   1      -9.219  -1.101 124.295  0.00  0.00    -0.298 N 
ATOM      7  C   LIG A   1      -9.202  -0.865 122.852  0.00  0.00    +0.108 C 
ATOM      8  C   LIG A   1     -10.063   0.335 122.458  0.00  0.00    +0.019 C 
ATOM      9  C   LIG A   1      -9.705   1.574 123.274  0.00  0.00    +0.003 C 
ATOM     10  C   LIG A   1      -9.784   1.264 124.765  0.00  0.00    +0.019 C 
ATOM     11  C   LIG A   1      -8.910   0.069 125.123  0.00  0.00    +0.108 C 
ENDBRANCH   2   5
ENDBRANCH   1   3
BRANCH   1  12
ATOM     12  C   LIG A   1      -8.170  -2.808 129.170  0.00  0.00    +0.039 C 
BRANCH  12  13
ATOM     13  C   LIG A   1      -7.259  -3.328 130.259  0.00  0.00    -0.043 A 
ATOM     14  C   LIG A   1      -7.390  -2.858 131.577  0.00  0.00    +0.053 A 
ATOM     15  C   LIG A   1      -6.573  -3.400 132.549  0.00  0.00    +0.167 A 
ATOM     16  O   LIG A   1      -6.591  -3.082 133.872  0.00  0.00    -0.453 OA
ATOM     17  C   LIG A   1      -5.588  -3.986 134.382  0.00  0.00    +0.466 C 
ATOM     18  O   LIG A   1      -4.951  -4.774 133.355  0.00  0.00    -0.453 OA
ATOM     19  C   LIG A   1      -5.637  -4.364 132.255  0.00  0.00    +0.166 A 
ATOM     20  C   LIG A   1      -5.463  -4.833 130.972  0.00  0.00    +0.050 A 
ATOM     21  C   LIG A   1      -6.283  -4.308 129.967  0.00  0.00    +0.007 A 
ENDBRANCH  12  13
ENDBRANCH   1  12
TORSDOF 4
ENDMDL
