MODEL 1
REMARK VINA RESULT:      -8.1      0.000      0.000
REMARK  Name = NuBBE_1724
REMARK  8 active torsions:
REMARK  status: ('A' for Active; 'I' for Inactive)
REMARK    1  A    between atoms: O_1  and  C_2
REMARK    2  A    between atoms: O_1  and  C_3
REMARK    3  A    between atoms: C_10  and  C_13
REMARK    4  A    between atoms: C_10  and  C_14
REMARK    5  A    between atoms: C_21  and  O_26
REMARK    6  A    between atoms: C_22  and  O_24
REMARK    7  A    between atoms: O_24  and  C_25
REMARK    8  A    between atoms: O_26  and  C_27
REMARK                            x       y       z     vdW  Elec       q    Type
REMARK                         _______ _______ _______ _____ _____    ______ ____
ROOT
ATOM      1  C   LIG A   1      -6.323   5.428 134.202  0.00  0.00    +0.138 A 
ATOM      2  C   LIG A   1      -7.094   5.659 133.049  0.00  0.00    +0.107 A 
ATOM      3  C   LIG A   1      -6.525   6.271 131.918  0.00  0.00    +0.153 A 
ATOM      4  C   LIG A   1      -5.163   6.600 131.906  0.00  0.00    +0.060 A 
ATOM      5  C   LIG A   1      -4.398   6.337 133.042  0.00  0.00    +0.136 A 
ATOM      6  C   LIG A   1      -4.964   5.748 134.172  0.00  0.00    +0.092 A 
ATOM      7  O   LIG A   1      -3.063   6.613 133.138  0.00  0.00    -0.481 OA
ATOM      8  C   LIG A   1      -2.500   7.533 132.182  0.00  0.00    +0.123 C 
ATOM      9  C   LIG A   1      -3.264   7.643 130.883  0.00  0.00    +0.020 C 
ATOM     10  C   LIG A   1      -4.517   7.202 130.744  0.00  0.00    +0.015 C 
ATOM     11  C   LIG A   1      -1.091   7.006 131.901  0.00  0.00    +0.060 C 
ATOM     12  C   LIG A   1      -2.427   8.907 132.858  0.00  0.00    +0.060 C 
ATOM     13  O   LIG A   1      -7.250   6.601 130.790  0.00  0.00    -0.454 OA
ATOM     14  C   LIG A   1      -8.612   6.637 130.898  0.00  0.00    +0.143 A 
ATOM     15  C   LIG A   1      -9.297   6.018 131.927  0.00  0.00    +0.068 A 
ATOM     16  C   LIG A   1      -8.533   5.327 132.973  0.00  0.00    +0.204 A 
ATOM     17  O   LIG A   1      -9.096   4.541 133.715  0.00  0.00    -0.286 OA
ATOM     18  C   LIG A   1     -10.686   6.090 132.004  0.00  0.00    +0.064 A 
ATOM     19  C   LIG A   1     -11.407   6.822 131.053  0.00  0.00    +0.162 A 
ATOM     20  C   LIG A   1     -10.722   7.405 129.970  0.00  0.00    +0.165 A 
ATOM     21  C   LIG A   1      -9.322   7.319 129.911  0.00  0.00    +0.096 A 
ENDROOT
BRANCH   1  22
ATOM     22  O   LIG A   1      -6.930   4.905 135.312  0.00  0.00    -0.494 OA
ATOM     23  C   LIG A   1      -7.136   5.795 136.407  0.00  0.00    +0.277 C 
ENDBRANCH   1  22
BRANCH  20  24
ATOM     24  O   LIG A   1     -11.265   8.140 128.947  0.00  0.00    -0.491 OA
ATOM     25  C   LIG A   1     -10.712   7.934 127.652  0.00  0.00    +0.277 C 
ENDBRANCH  20  24
BRANCH  19  26
ATOM     26  O   LIG A   1     -12.764   6.987 131.158  0.00  0.00    -0.491 OA
ATOM     27  C   LIG A   1     -13.189   8.210 131.758  0.00  0.00    +0.277 C 
ENDBRANCH  19  26
TORSDOF 3
ENDMDL
MODEL 2
REMARK VINA RESULT:      -8.0      8.104      9.589
REMARK  Name = NuBBE_1724
REMARK  8 active torsions:
REMARK  status: ('A' for Active; 'I' for Inactive)
REMARK    1  A    between atoms: O_1  and  C_2
REMARK    2  A    between atoms: O_1  and  C_3
REMARK    3  A    between atoms: C_10  and  C_13
REMARK    4  A    between atoms: C_10  and  C_14
REMARK    5  A    between atoms: C_21  and  O_26
REMARK    6  A    between atoms: C_22  and  O_24
REMARK    7  A    between atoms: O_24  and  C_25
REMARK    8  A    between atoms: O_26  and  C_27
REMARK                            x       y       z     vdW  Elec       q    Type
REMARK                         _______ _______ _______ _____ _____    ______ ____
ROOT
ATOM      1  C   LIG A   1      -6.418   3.184 124.279  0.00  0.00    +0.138 A 
ATOM      2  C   LIG A   1      -6.956   2.161 125.080  0.00  0.00    +0.107 A 
ATOM      3  C   LIG A   1      -6.370   1.837 126.316  0.00  0.00    +0.153 A 
ATOM      4  C   LIG A   1      -5.279   2.575 126.794  0.00  0.00    +0.060 A 
ATOM      5  C   LIG A   1      -4.772   3.609 126.007  0.00  0.00    +0.136 A 
ATOM      6  C   LIG A   1      -5.339   3.920 124.772  0.00  0.00    +0.092 A 
ATOM      7  O   LIG A   1      -3.716   4.394 126.375  0.00  0.00    -0.481 OA
ATOM      8  C   LIG A   1      -2.864   3.915 127.435  0.00  0.00    +0.123 C 
ATOM      9  C   LIG A   1      -3.519   2.935 128.380  0.00  0.00    +0.020 C 
ATOM     10  C   LIG A   1      -4.659   2.302 128.086  0.00  0.00    +0.015 C 
ATOM     11  C   LIG A   1      -2.446   5.167 128.210  0.00  0.00    +0.060 C 
ATOM     12  C   LIG A   1      -1.641   3.264 126.779  0.00  0.00    +0.060 C 
ATOM     13  O   LIG A   1      -6.800   0.790 127.107  0.00  0.00    -0.454 OA
ATOM     14  C   LIG A   1      -7.596  -0.159 126.528  0.00  0.00    +0.143 A 
ATOM     15  C   LIG A   1      -8.280   0.059 125.346  0.00  0.00    +0.068 A 
ATOM     16  C   LIG A   1      -8.116   1.346 124.659  0.00  0.00    +0.204 A 
ATOM     17  O   LIG A   1      -8.909   1.677 123.794  0.00  0.00    -0.286 OA
ATOM     18  C   LIG A   1      -9.071  -0.941 124.786  0.00  0.00    +0.064 A 
ATOM     19  C   LIG A   1      -9.158  -2.197 125.397  0.00  0.00    +0.162 A 
ATOM     20  C   LIG A   1      -8.512  -2.407 126.631  0.00  0.00    +0.165 A 
ATOM     21  C   LIG A   1      -7.721  -1.385 127.180  0.00  0.00    +0.096 A 
ENDROOT
BRANCH   1  22
ATOM     22  O   LIG A   1      -6.964   3.416 123.045  0.00  0.00    -0.494 OA
ATOM     23  C   LIG A   1      -6.054   3.535 121.955  0.00  0.00    +0.277 C 
ENDBRANCH   1  22
BRANCH  20  24
ATOM     24  O   LIG A   1      -8.501  -3.560 127.373  0.00  0.00    -0.491 OA
ATOM     25  C   LIG A   1      -8.491  -3.407 128.788  0.00  0.00    +0.277 C 
ENDBRANCH  20  24
BRANCH  19  26
ATOM     26  O   LIG A   1      -9.853  -3.227 124.818  0.00  0.00    -0.491 OA
ATOM     27  C   LIG A   1      -9.615  -3.421 123.425  0.00  0.00    +0.277 C 
ENDBRANCH  19  26
TORSDOF 3
ENDMDL
MODEL 3
REMARK VINA RESULT:      -7.5      7.634     10.458
REMARK  Name = NuBBE_1724
REMARK  8 active torsions:
REMARK  status: ('A' for Active; 'I' for Inactive)
REMARK    1  A    between atoms: O_1  and  C_2
REMARK    2  A    between atoms: O_1  and  C_3
REMARK    3  A    between atoms: C_10  and  C_13
REMARK    4  A    between atoms: C_10  and  C_14
REMARK    5  A    between atoms: C_21  and  O_26
REMARK    6  A    between atoms: C_22  and  O_24
REMARK    7  A    between atoms: O_24  and  C_25
REMARK    8  A    between atoms: O_26  and  C_27
REMARK                            x       y       z     vdW  Elec       q    Type
REMARK                         _______ _______ _______ _____ _____    ______ ____
ROOT
ATOM      1  C   LIG A   1      -7.592   2.146 123.833  0.00  0.00    +0.138 A 
ATOM      2  C   LIG A   1      -6.501   2.373 124.690  0.00  0.00    +0.107 A 
ATOM      3  C   LIG A   1      -5.955   1.323 125.448  0.00  0.00    +0.153 A 
ATOM      4  C   LIG A   1      -6.455   0.021 125.310  0.00  0.00    +0.060 A 
ATOM      5  C   LIG A   1      -7.516  -0.201 124.433  0.00  0.00    +0.136 A 
ATOM      6  C   LIG A   1      -8.072   0.842 123.695  0.00  0.00    +0.092 A 
ATOM      7  O   LIG A   1      -8.078  -1.428 124.219  0.00  0.00    -0.481 OA
ATOM      8  C   LIG A   1      -7.817  -2.463 125.188  0.00  0.00    +0.123 C 
ATOM      9  C   LIG A   1      -6.549  -2.276 125.987  0.00  0.00    +0.020 C 
ATOM     10  C   LIG A   1      -5.899  -1.110 126.047  0.00  0.00    +0.015 C 
ATOM     11  C   LIG A   1      -7.722  -3.757 124.377  0.00  0.00    +0.060 C 
ATOM     12  C   LIG A   1      -9.023  -2.517 126.134  0.00  0.00    +0.060 C 
ATOM     13  O   LIG A   1      -4.941   1.499 126.368  0.00  0.00    -0.454 OA
ATOM     14  C   LIG A   1      -4.684   2.773 126.794  0.00  0.00    +0.143 A 
ATOM     15  C   LIG A   1      -5.108   3.892 126.102  0.00  0.00    +0.068 A 
ATOM     16  C   LIG A   1      -5.903   3.712 124.881  0.00  0.00    +0.204 A 
ATOM     17  O   LIG A   1      -6.041   4.642 124.105  0.00  0.00    -0.286 OA
ATOM     18  C   LIG A   1      -4.833   5.172 126.579  0.00  0.00    +0.064 A 
ATOM     19  C   LIG A   1      -4.149   5.341 127.789  0.00  0.00    +0.162 A 
ATOM     20  C   LIG A   1      -3.663   4.208 128.468  0.00  0.00    +0.165 A 
ATOM     21  C   LIG A   1      -3.949   2.927 127.969  0.00  0.00    +0.096 A 
ENDROOT
BRANCH   1  22
ATOM     22  O   LIG A   1      -8.149   3.208 123.173  0.00  0.00    -0.494 OA
ATOM     23  C   LIG A   1      -8.706   2.942 121.888  0.00  0.00    +0.277 C 
ENDBRANCH   1  22
BRANCH  20  24
ATOM     24  O   LIG A   1      -2.966   4.187 129.649  0.00  0.00    -0.491 OA
ATOM     25  C   LIG A   1      -3.732   4.024 130.837  0.00  0.00    +0.277 C 
ENDBRANCH  20  24
BRANCH  19  26
ATOM     26  O   LIG A   1      -3.948   6.586 128.327  0.00  0.00    -0.491 OA
ATOM     27  C   LIG A   1      -2.633   7.118 128.166  0.00  0.00    +0.277 C 
ENDBRANCH  19  26
TORSDOF 3
ENDMDL
MODEL 4
REMARK VINA RESULT:      -7.5      5.960      6.964
REMARK  Name = NuBBE_1724
REMARK  8 active torsions:
REMARK  status: ('A' for Active; 'I' for Inactive)
REMARK    1  A    between atoms: O_1  and  C_2
REMARK    2  A    between atoms: O_1  and  C_3
REMARK    3  A    between atoms: C_10  and  C_13
REMARK    4  A    between atoms: C_10  and  C_14
REMARK    5  A    between atoms: C_21  and  O_26
REMARK    6  A    between atoms: C_22  and  O_24
REMARK    7  A    between atoms: O_24  and  C_25
REMARK    8  A    between atoms: O_26  and  C_27
REMARK                            x       y       z     vdW  Elec       q    Type
REMARK                         _______ _______ _______ _____ _____    ______ ____
ROOT
ATOM      1  C   LIG A   1      -4.741   2.315 129.588  0.00  0.00    +0.138 A 
ATOM      2  C   LIG A   1      -4.644   2.593 128.214  0.00  0.00    +0.107 A 
ATOM      3  C   LIG A   1      -3.939   3.722 127.760  0.00  0.00    +0.153 A 
ATOM      4  C   LIG A   1      -3.271   4.550 128.673  0.00  0.00    +0.060 A 
ATOM      5  C   LIG A   1      -3.346   4.247 130.032  0.00  0.00    +0.136 A 
ATOM      6  C   LIG A   1      -4.060   3.139 130.486  0.00  0.00    +0.092 A 
ATOM      7  O   LIG A   1      -2.731   4.981 131.007  0.00  0.00    -0.481 OA
ATOM      8  C   LIG A   1      -2.295   6.312 130.668  0.00  0.00    +0.123 C 
ATOM      9  C   LIG A   1      -2.043   6.539 129.195  0.00  0.00    +0.020 C 
ATOM     10  C   LIG A   1      -2.496   5.711 128.250  0.00  0.00    +0.015 C 
ATOM     11  C   LIG A   1      -0.993   6.518 131.445  0.00  0.00    +0.060 C 
ATOM     12  C   LIG A   1      -3.370   7.286 131.165  0.00  0.00    +0.060 C 
ATOM     13  O   LIG A   1      -3.879   4.095 126.432  0.00  0.00    -0.454 OA
ATOM     14  C   LIG A   1      -4.795   3.548 125.576  0.00  0.00    +0.143 A 
ATOM     15  C   LIG A   1      -5.506   2.401 125.876  0.00  0.00    +0.068 A 
ATOM     16  C   LIG A   1      -5.304   1.763 127.184  0.00  0.00    +0.204 A 
ATOM     17  O   LIG A   1      -5.682   0.618 127.364  0.00  0.00    -0.286 OA
ATOM     18  C   LIG A   1      -6.437   1.884 124.979  0.00  0.00    +0.064 A 
ATOM     19  C   LIG A   1      -6.690   2.541 123.769  0.00  0.00    +0.162 A 
ATOM     20  C   LIG A   1      -5.928   3.676 123.431  0.00  0.00    +0.165 A 
ATOM     21  C   LIG A   1      -4.993   4.179 124.349  0.00  0.00    +0.096 A 
ENDROOT
BRANCH   1  22
ATOM     22  O   LIG A   1      -5.503   1.254 129.997  0.00  0.00    -0.494 OA
ATOM     23  C   LIG A   1      -4.900   0.352 130.922  0.00  0.00    +0.277 C 
ENDBRANCH   1  22
BRANCH  20  24
ATOM     24  O   LIG A   1      -6.031   4.432 122.291  0.00  0.00    -0.491 OA
ATOM     25  C   LIG A   1      -5.203   4.051 121.198  0.00  0.00    +0.277 C 
ENDBRANCH  20  24
BRANCH  19  26
ATOM     26  O   LIG A   1      -7.667   2.107 122.911  0.00  0.00    -0.491 OA
ATOM     27  C   LIG A   1      -9.007   2.274 123.373  0.00  0.00    +0.277 C 
ENDBRANCH  19  26
TORSDOF 3
ENDMDL
MODEL 5
REMARK VINA RESULT:      -7.5      1.889      7.230
REMARK  Name = NuBBE_1724
REMARK  8 active torsions:
REMARK  status: ('A' for Active; 'I' for Inactive)
REMARK    1  A    between atoms: O_1  and  C_2
REMARK    2  A    between atoms: O_1  and  C_3
REMARK    3  A    between atoms: C_10  and  C_13
REMARK    4  A    between atoms: C_10  and  C_14
REMARK    5  A    between atoms: C_21  and  O_26
REMARK    6  A    between atoms: C_22  and  O_24
REMARK    7  A    between atoms: O_24  and  C_25
REMARK    8  A    between atoms: O_26  and  C_27
REMARK                            x       y       z     vdW  Elec       q    Type
REMARK                         _______ _______ _______ _____ _____    ______ ____
ROOT
ATOM      1  C   LIG A   1     -10.089   4.279 130.996  0.00  0.00    +0.138 A 
ATOM      2  C   LIG A   1      -8.991   5.131 131.208  0.00  0.00    +0.107 A 
ATOM      3  C   LIG A   1      -8.942   6.399 130.602  0.00  0.00    +0.153 A 
ATOM      4  C   LIG A   1     -10.019   6.852 129.829  0.00  0.00    +0.060 A 
ATOM      5  C   LIG A   1     -11.118   6.013 129.650  0.00  0.00    +0.136 A 
ATOM      6  C   LIG A   1     -11.161   4.747 130.234  0.00  0.00    +0.092 A 
ATOM      7  O   LIG A   1     -12.222   6.353 128.920  0.00  0.00    -0.481 OA
ATOM      8  C   LIG A   1     -12.103   7.461 128.005  0.00  0.00    +0.123 C 
ATOM      9  C   LIG A   1     -11.015   8.451 128.349  0.00  0.00    +0.020 C 
ATOM     10  C   LIG A   1     -10.032   8.173 129.209  0.00  0.00    +0.015 C 
ATOM     11  C   LIG A   1     -13.462   8.163 128.047  0.00  0.00    +0.060 C 
ATOM     12  C   LIG A   1     -11.851   6.876 126.611  0.00  0.00    +0.060 C 
ATOM     13  O   LIG A   1      -7.856   7.245 130.704  0.00  0.00    -0.454 OA
ATOM     14  C   LIG A   1      -6.670   6.710 131.125  0.00  0.00    +0.143 A 
ATOM     15  C   LIG A   1      -6.591   5.502 131.792  0.00  0.00    +0.068 A 
ATOM     16  C   LIG A   1      -7.823   4.737 132.024  0.00  0.00    +0.204 A 
ATOM     17  O   LIG A   1      -7.831   3.835 132.844  0.00  0.00    -0.286 OA
ATOM     18  C   LIG A   1      -5.359   4.989 132.194  0.00  0.00    +0.064 A 
ATOM     19  C   LIG A   1      -4.178   5.678 131.896  0.00  0.00    +0.162 A 
ATOM     20  C   LIG A   1      -4.256   6.937 131.271  0.00  0.00    +0.165 A 
ATOM     21  C   LIG A   1      -5.507   7.436 130.876  0.00  0.00    +0.096 A 
ENDROOT
BRANCH   1  22
ATOM     22  O   LIG A   1     -10.065   3.020 131.535  0.00  0.00    -0.494 OA
ATOM     23  C   LIG A   1      -9.566   1.976 130.703  0.00  0.00    +0.277 C 
ENDBRANCH   1  22
BRANCH  20  24
ATOM     24  O   LIG A   1      -3.210   7.752 130.918  0.00  0.00    -0.491 OA
ATOM     25  C   LIG A   1      -2.664   8.568 131.948  0.00  0.00    +0.277 C 
ENDBRANCH  20  24
BRANCH  19  26
ATOM     26  O   LIG A   1      -2.949   5.151 132.197  0.00  0.00    -0.491 OA
ATOM     27  C   LIG A   1      -2.853   4.506 133.467  0.00  0.00    +0.277 C 
ENDBRANCH  19  26
TORSDOF 3
ENDMDL
MODEL 6
REMARK VINA RESULT:      -7.3      5.616      6.763
REMARK  Name = NuBBE_1724
REMARK  8 active torsions:
REMARK  status: ('A' for Active; 'I' for Inactive)
REMARK    1  A    between atoms: O_1  and  C_2
REMARK    2  A    between atoms: O_1  and  C_3
REMARK    3  A    between atoms: C_10  and  C_13
REMARK    4  A    between atoms: C_10  and  C_14
REMARK    5  A    between atoms: C_21  and  O_26
REMARK    6  A    between atoms: C_22  and  O_24
REMARK    7  A    between atoms: O_24  and  C_25
REMARK    8  A    between atoms: O_26  and  C_27
REMARK                            x       y       z     vdW  Elec       q    Type
REMARK                         _______ _______ _______ _____ _____    ______ ____
ROOT
ATOM      1  C   LIG A   1      -7.204   4.026 129.203  0.00  0.00    +0.138 A 
ATOM      2  C   LIG A   1      -6.833   3.701 127.887  0.00  0.00    +0.107 A 
ATOM      3  C   LIG A   1      -5.618   4.164 127.351  0.00  0.00    +0.153 A 
ATOM      4  C   LIG A   1      -4.733   4.904 128.147  0.00  0.00    +0.060 A 
ATOM      5  C   LIG A   1      -5.095   5.194 129.462  0.00  0.00    +0.136 A 
ATOM      6  C   LIG A   1      -6.308   4.752 129.990  0.00  0.00    +0.092 A 
ATOM      7  O   LIG A   1      -4.309   5.903 130.326  0.00  0.00    -0.481 OA
ATOM      8  C   LIG A   1      -3.239   6.688 129.766  0.00  0.00    +0.123 C 
ATOM      9  C   LIG A   1      -2.749   6.219 128.416  0.00  0.00    +0.020 C 
ATOM     10  C   LIG A   1      -3.445   5.375 127.649  0.00  0.00    +0.015 C 
ATOM     11  C   LIG A   1      -2.099   6.596 130.782  0.00  0.00    +0.060 C 
ATOM     12  C   LIG A   1      -3.740   8.134 129.661  0.00  0.00    +0.060 C 
ATOM     13  O   LIG A   1      -5.237   3.950 126.041  0.00  0.00    -0.454 OA
ATOM     14  C   LIG A   1      -6.204   3.567 125.152  0.00  0.00    +0.143 A 
ATOM     15  C   LIG A   1      -7.416   3.035 125.551  0.00  0.00    +0.068 A 
ATOM     16  C   LIG A   1      -7.700   2.912 126.986  0.00  0.00    +0.204 A 
ATOM     17  O   LIG A   1      -8.611   2.195 127.364  0.00  0.00    -0.286 OA
ATOM     18  C   LIG A   1      -8.377   2.669 124.611  0.00  0.00    +0.064 A 
ATOM     19  C   LIG A   1      -8.139   2.867 123.246  0.00  0.00    +0.162 A 
ATOM     20  C   LIG A   1      -6.884   3.352 122.830  0.00  0.00    +0.165 A 
ATOM     21  C   LIG A   1      -5.930   3.714 123.794  0.00  0.00    +0.096 A 
ENDROOT
BRANCH   1  22
ATOM     22  O   LIG A   1      -8.430   3.627 129.664  0.00  0.00    -0.494 OA
ATOM     23  C   LIG A   1      -9.331   4.658 130.061  0.00  0.00    +0.277 C 
ENDBRANCH   1  22
BRANCH  20  24
ATOM     24  O   LIG A   1      -6.475   3.594 121.543  0.00  0.00    -0.491 OA
ATOM     25  C   LIG A   1      -5.185   4.172 121.383  0.00  0.00    +0.277 C 
ENDBRANCH  20  24
BRANCH  19  26
ATOM     26  O   LIG A   1      -9.102   2.602 122.307  0.00  0.00    -0.491 OA
ATOM     27  C   LIG A   1      -9.880   1.429 122.541  0.00  0.00    +0.277 C 
ENDBRANCH  19  26
TORSDOF 3
ENDMDL
MODEL 7
REMARK VINA RESULT:      -7.3      4.353      7.558
REMARK  Name = NuBBE_1724
REMARK  8 active torsions:
REMARK  status: ('A' for Active; 'I' for Inactive)
REMARK    1  A    between atoms: O_1  and  C_2
REMARK    2  A    between atoms: O_1  and  C_3
REMARK    3  A    between atoms: C_10  and  C_13
REMARK    4  A    between atoms: C_10  and  C_14
REMARK    5  A    between atoms: C_21  and  O_26
REMARK    6  A    between atoms: C_22  and  O_24
REMARK    7  A    between atoms: O_24  and  C_25
REMARK    8  A    between atoms: O_26  and  C_27
REMARK                            x       y       z     vdW  Elec       q    Type
REMARK                         _______ _______ _______ _____ _____    ______ ____
ROOT
ATOM      1  C   LIG A   1      -9.874   4.622 130.947  0.00  0.00    +0.138 A 
ATOM      2  C   LIG A   1      -9.031   4.547 129.825  0.00  0.00    +0.107 A 
ATOM      3  C   LIG A   1      -9.235   5.392 128.719  0.00  0.00    +0.153 A 
ATOM      4  C   LIG A   1     -10.245   6.362 128.750  0.00  0.00    +0.060 A 
ATOM      5  C   LIG A   1     -11.056   6.451 129.881  0.00  0.00    +0.136 A 
ATOM      6  C   LIG A   1     -10.869   5.602 130.971  0.00  0.00    +0.092 A 
ATOM      7  O   LIG A   1     -12.067   7.360 130.020  0.00  0.00    -0.481 OA
ATOM      8  C   LIG A   1     -12.553   8.008 128.828  0.00  0.00    +0.123 C 
ATOM      9  C   LIG A   1     -11.565   8.055 127.686  0.00  0.00    +0.020 C 
ATOM     10  C   LIG A   1     -10.473   7.286 127.644  0.00  0.00    +0.015 C 
ATOM     11  C   LIG A   1     -12.901   9.434 129.260  0.00  0.00    +0.060 C 
ATOM     12  C   LIG A   1     -13.819   7.263 128.387  0.00  0.00    +0.060 C 
ATOM     13  O   LIG A   1      -8.495   5.309 127.556  0.00  0.00    -0.454 OA
ATOM     14  C   LIG A   1      -7.770   4.169 127.344  0.00  0.00    +0.143 A 
ATOM     15  C   LIG A   1      -7.446   3.290 128.360  0.00  0.00    +0.068 A 
ATOM     16  C   LIG A   1      -7.932   3.564 129.718  0.00  0.00    +0.204 A 
ATOM     17  O   LIG A   1      -7.434   2.986 130.668  0.00  0.00    -0.286 OA
ATOM     18  C   LIG A   1      -6.714   2.134 128.096  0.00  0.00    +0.064 A 
ATOM     19  C   LIG A   1      -6.324   1.830 126.786  0.00  0.00    +0.162 A 
ATOM     20  C   LIG A   1      -6.600   2.750 125.757  0.00  0.00    +0.165 A 
ATOM     21  C   LIG A   1      -7.337   3.910 126.044  0.00  0.00    +0.096 A 
ENDROOT
BRANCH   1  22
ATOM     22  O   LIG A   1      -9.697   3.730 131.970  0.00  0.00    -0.494 OA
ATOM     23  C   LIG A   1      -9.335   4.273 133.238  0.00  0.00    +0.277 C 
ENDBRANCH   1  22
BRANCH  20  24
ATOM     24  O   LIG A   1      -6.283   2.624 124.428  0.00  0.00    -0.491 OA
ATOM     25  C   LIG A   1      -5.883   3.811 123.753  0.00  0.00    +0.277 C 
ENDBRANCH  20  24
BRANCH  19  26
ATOM     26  O   LIG A   1      -5.685   0.655 126.486  0.00  0.00    -0.491 OA
ATOM     27  C   LIG A   1      -5.502  -0.240 127.582  0.00  0.00    +0.277 C 
ENDBRANCH  19  26
TORSDOF 3
ENDMDL
MODEL 8
REMARK VINA RESULT:      -7.1      7.367      9.429
REMARK  Name = NuBBE_1724
REMARK  8 active torsions:
REMARK  status: ('A' for Active; 'I' for Inactive)
REMARK    1  A    between atoms: O_1  and  C_2
REMARK    2  A    between atoms: O_1  and  C_3
REMARK    3  A    between atoms: C_10  and  C_13
REMARK    4  A    between atoms: C_10  and  C_14
REMARK    5  A    between atoms: C_21  and  O_26
REMARK    6  A    between atoms: C_22  and  O_24
REMARK    7  A    between atoms: O_24  and  C_25
REMARK    8  A    between atoms: O_26  and  C_27
REMARK                            x       y       z     vdW  Elec       q    Type
REMARK                         _______ _______ _______ _____ _____    ______ ____
ROOT
ATOM      1  C   LIG A   1      -7.927   2.224 123.994  0.00  0.00    +0.138 A 
ATOM      2  C   LIG A   1      -7.500   2.470 125.311  0.00  0.00    +0.107 A 
ATOM      3  C   LIG A   1      -6.786   1.494 126.026  0.00  0.00    +0.153 A 
ATOM      4  C   LIG A   1      -6.437   0.284 125.411  0.00  0.00    +0.060 A 
ATOM      5  C   LIG A   1      -6.837   0.061 124.094  0.00  0.00    +0.136 A 
ATOM      6  C   LIG A   1      -7.562   1.020 123.388  0.00  0.00    +0.092 A 
ATOM      7  O   LIG A   1      -6.548  -1.078 123.396  0.00  0.00    -0.481 OA
ATOM      8  C   LIG A   1      -6.137  -2.237 124.148  0.00  0.00    +0.123 C 
ATOM      9  C   LIG A   1      -5.531  -1.932 125.499  0.00  0.00    +0.020 C 
ATOM     10  C   LIG A   1      -5.665  -0.746 126.098  0.00  0.00    +0.015 C 
ATOM     11  C   LIG A   1      -5.097  -2.936 123.270  0.00  0.00    +0.060 C 
ATOM     12  C   LIG A   1      -7.370  -3.130 124.323  0.00  0.00    +0.060 C 
ATOM     13  O   LIG A   1      -6.413   1.643 127.348  0.00  0.00    -0.454 OA
ATOM     14  C   LIG A   1      -7.036   2.618 128.077  0.00  0.00    +0.143 A 
ATOM     15  C   LIG A   1      -7.715   3.670 127.492  0.00  0.00    +0.068 A 
ATOM     16  C   LIG A   1      -7.812   3.726 126.027  0.00  0.00    +0.204 A 
ATOM     17  O   LIG A   1      -8.140   4.765 125.481  0.00  0.00    -0.286 OA
ATOM     18  C   LIG A   1      -8.345   4.636 128.274  0.00  0.00    +0.064 A 
ATOM     19  C   LIG A   1      -8.325   4.534 129.670  0.00  0.00    +0.162 A 
ATOM     20  C   LIG A   1      -7.585   3.499 130.273  0.00  0.00    +0.165 A 
ATOM     21  C   LIG A   1      -6.957   2.538 129.466  0.00  0.00    +0.096 A 
ENDROOT
BRANCH   1  22
ATOM     22  O   LIG A   1      -8.691   3.165 123.357  0.00  0.00    -0.494 OA
ATOM     23  C   LIG A   1      -8.669   3.149 121.932  0.00  0.00    +0.277 C 
ENDBRANCH   1  22
BRANCH  20  24
ATOM     24  O   LIG A   1      -7.446   3.256 131.616  0.00  0.00    -0.491 OA
ATOM     25  C   LIG A   1      -6.315   3.839 132.254  0.00  0.00    +0.277 C 
ENDBRANCH  20  24
BRANCH  19  26
ATOM     26  O   LIG A   1      -9.014   5.418 130.460  0.00  0.00    -0.491 OA
ATOM     27  C   LIG A   1      -8.322   6.625 130.777  0.00  0.00    +0.277 C 
ENDBRANCH  19  26
TORSDOF 3
ENDMDL
MODEL 9
REMARK VINA RESULT:      -7.1      3.198      7.501
REMARK  Name = NuBBE_1724
REMARK  8 active torsions:
REMARK  status: ('A' for Active; 'I' for Inactive)
REMARK    1  A    between atoms: O_1  and  C_2
REMARK    2  A    between atoms: O_1  and  C_3
REMARK    3  A    between atoms: C_10  and  C_13
REMARK    4  A    between atoms: C_10  and  C_14
REMARK    5  A    between atoms: C_21  and  O_26
REMARK    6  A    between atoms: C_22  and  O_24
REMARK    7  A    between atoms: O_24  and  C_25
REMARK    8  A    between atoms: O_26  and  C_27
REMARK                            x       y       z     vdW  Elec       q    Type
REMARK                         _______ _______ _______ _____ _____    ______ ____
ROOT
ATOM      1  C   LIG A   1      -9.066   2.588 131.019  0.00  0.00    +0.138 A 
ATOM      2  C   LIG A   1      -8.782   3.205 132.249  0.00  0.00    +0.107 A 
ATOM      3  C   LIG A   1      -9.297   4.479 132.547  0.00  0.00    +0.153 A 
ATOM      4  C   LIG A   1     -10.154   5.121 131.644  0.00  0.00    +0.060 A 
ATOM      5  C   LIG A   1     -10.457   4.488 130.439  0.00  0.00    +0.136 A 
ATOM      6  C   LIG A   1      -9.932   3.233 130.133  0.00  0.00    +0.092 A 
ATOM      7  O   LIG A   1     -11.282   5.020 129.489  0.00  0.00    -0.481 OA
ATOM      8  C   LIG A   1     -11.561   6.432 129.560  0.00  0.00    +0.123 C 
ATOM      9  C   LIG A   1     -11.402   7.040 130.935  0.00  0.00    +0.020 C 
ATOM     10  C   LIG A   1     -10.743   6.427 131.922  0.00  0.00    +0.015 C 
ATOM     11  C   LIG A   1     -13.016   6.576 129.106  0.00  0.00    +0.060 C 
ATOM     12  C   LIG A   1     -10.624   7.134 128.571  0.00  0.00    +0.060 C 
ATOM     13  O   LIG A   1      -8.985   5.171 133.701  0.00  0.00    -0.454 OA
ATOM     14  C   LIG A   1      -7.895   4.758 134.415  0.00  0.00    +0.143 A 
ATOM     15  C   LIG A   1      -7.334   3.504 134.263  0.00  0.00    +0.068 A 
ATOM     16  C   LIG A   1      -7.901   2.589 133.265  0.00  0.00    +0.204 A 
ATOM     17  O   LIG A   1      -7.628   1.402 133.307  0.00  0.00    -0.286 OA
ATOM     18  C   LIG A   1      -6.216   3.128 135.005  0.00  0.00    +0.064 A 
ATOM     19  C   LIG A   1      -5.624   4.033 135.894  0.00  0.00    +0.162 A 
ATOM     20  C   LIG A   1      -6.226   5.290 136.098  0.00  0.00    +0.165 A 
ATOM     21  C   LIG A   1      -7.353   5.647 135.342  0.00  0.00    +0.096 A 
ENDROOT
BRANCH   1  22
ATOM     22  O   LIG A   1      -8.481   1.384 130.730  0.00  0.00    -0.494 OA
ATOM     23  C   LIG A   1      -8.169   1.137 129.361  0.00  0.00    +0.277 C 
ENDBRANCH   1  22
BRANCH  20  24
ATOM     24  O   LIG A   1      -5.794   6.288 136.934  0.00  0.00    -0.491 OA
ATOM     25  C   LIG A   1      -4.857   7.211 136.391  0.00  0.00    +0.277 C 
ENDBRANCH  20  24
BRANCH  19  26
ATOM     26  O   LIG A   1      -4.471   3.722 136.566  0.00  0.00    -0.491 OA
ATOM     27  C   LIG A   1      -4.380   2.379 137.040  0.00  0.00    +0.277 C 
ENDBRANCH  19  26
TORSDOF 3
ENDMDL
