MODEL 1
REMARK VINA RESULT:      -9.3      0.000      0.000
REMARK  Name = NuBBE_1137
REMARK  6 active torsions:
REMARK  status: ('A' for Active; 'I' for Inactive)
REMARK    1  A    between atoms: C_1  and  C_2
REMARK    2  A    between atoms: C_2  and  C_3
REMARK    3  A    between atoms: C_4  and  C_5
REMARK    4  A    between atoms: C_25  and  C_27
REMARK    5  A    between atoms: C_28  and  C_29
REMARK    6  A    between atoms: C_28  and  C_30
REMARK                            x       y       z     vdW  Elec       q    Type
REMARK                         _______ _______ _______ _____ _____    ______ ____
ROOT
ATOM      1  C   LIG A   1      -5.014   1.605 126.404  0.00  0.00    +0.020 C 
ATOM      2  C   LIG A   1      -6.284   1.915 125.595  0.00  0.00    +0.012 C 
ATOM      3  C   LIG A   1      -7.036   0.624 125.311  0.00  0.00    -0.032 A 
ATOM      4  C   LIG A   1      -6.644  -0.406 124.456  0.00  0.00    +0.031 A 
ATOM      5  C   LIG A   1      -7.488  -1.524 124.392  0.00  0.00    +0.047 A 
ATOM      6  C   LIG A   1      -8.670  -1.634 125.130  0.00  0.00    -0.000 A 
ATOM      7  C   LIG A   1      -9.249  -2.892 124.806  0.00  0.00    +0.027 A 
ATOM      8  C   LIG A   1      -8.421  -3.519 123.905  0.00  0.00    +0.083 A 
ATOM      9  N   LIG A   1      -7.362  -2.685 123.660  0.00  0.00    -0.361 N 
ATOM     10  H   LIG A   1      -6.590  -2.889 123.041  0.00  0.00    +0.165 HD
ATOM     11  C   LIG A   1      -9.040  -0.586 125.998  0.00  0.00    +0.014 A 
ATOM     12  C   LIG A   1      -8.198   0.524 126.080  0.00  0.00    -0.036 A 
ATOM     13  C   LIG A   1      -8.360   1.694 127.013  0.00  0.00    +0.043 C 
ATOM     14  C   LIG A   1      -7.333   2.697 126.440  0.00  0.00    +0.027 C 
ENDROOT
BRANCH  13  15
ATOM     15  C   LIG A   1      -8.075   1.320 128.448  0.00  0.00    -0.020 C 
ATOM     16  C   LIG A   1      -8.478   1.963 129.561  0.00  0.00    -0.079 C 
ATOM     17  C   LIG A   1      -9.302   3.222 129.581  0.00  0.00    +0.038 C 
ATOM     18  C   LIG A   1      -8.093   1.448 130.924  0.00  0.00    +0.038 C 
ENDBRANCH  13  15
BRANCH   2  19
ATOM     19  C   LIG A   1      -5.943   2.675 124.318  0.00  0.00    -0.015 C 
ATOM     20  C   LIG A   1      -6.799   2.930 123.315  0.00  0.00    +0.006 C 
BRANCH  20  21
ATOM     21  C   LIG A   1      -6.455   3.664 122.082  0.00  0.00    -0.004 A 
ATOM     22  C   LIG A   1      -7.376   3.799 121.042  0.00  0.00    +0.038 A 
ATOM     23  N   LIG A   1      -8.698   3.262 120.993  0.00  0.00    -0.343 N 
ATOM     24  H   LIG A   1      -9.171   3.406 121.882  0.00  0.00    +0.146 HD
ATOM     25  C   LIG A   1      -9.298   3.970 119.851  0.00  0.00    +0.106 C 
ATOM     26  C   LIG A   1      -8.165   4.357 118.887  0.00  0.00    +0.055 C 
ATOM     27  C   LIG A   1      -7.021   4.424 119.839  0.00  0.00    -0.025 A 
ATOM     28  C   LIG A   1      -5.760   4.955 119.635  0.00  0.00    +0.005 A 
ATOM     29  C   LIG A   1      -4.833   4.849 120.669  0.00  0.00    +0.001 A 
ATOM     30  C   LIG A   1      -5.172   4.204 121.873  0.00  0.00    +0.010 A 
ENDBRANCH  20  21
ENDBRANCH   2  19
TORSDOF 3
ENDMDL
MODEL 2
REMARK VINA RESULT:      -9.0      2.184      6.791
REMARK  Name = NuBBE_1137
REMARK  6 active torsions:
REMARK  status: ('A' for Active; 'I' for Inactive)
REMARK    1  A    between atoms: C_1  and  C_2
REMARK    2  A    between atoms: C_2  and  C_3
REMARK    3  A    between atoms: C_4  and  C_5
REMARK    4  A    between atoms: C_25  and  C_27
REMARK    5  A    between atoms: C_28  and  C_29
REMARK    6  A    between atoms: C_28  and  C_30
REMARK                            x       y       z     vdW  Elec       q    Type
REMARK                         _______ _______ _______ _____ _____    ______ ____
ROOT
ATOM      1  C   LIG A   1      -7.966   3.779 127.179  0.00  0.00    +0.020 C 
ATOM      2  C   LIG A   1      -7.043   2.716 126.561  0.00  0.00    +0.012 C 
ATOM      3  C   LIG A   1      -6.741   3.081 125.116  0.00  0.00    -0.032 A 
ATOM      4  C   LIG A   1      -7.628   3.054 124.039  0.00  0.00    +0.031 A 
ATOM      5  C   LIG A   1      -7.125   3.479 122.801  0.00  0.00    +0.047 A 
ATOM      6  C   LIG A   1      -5.808   3.911 122.618  0.00  0.00    -0.000 A 
ATOM      7  C   LIG A   1      -5.670   4.258 121.245  0.00  0.00    +0.027 A 
ATOM      8  C   LIG A   1      -6.883   4.047 120.632  0.00  0.00    +0.083 A 
ATOM      9  N   LIG A   1      -7.754   3.576 121.579  0.00  0.00    -0.361 N 
ATOM     10  H   LIG A   1      -8.722   3.340 121.415  0.00  0.00    +0.165 HD
ATOM     11  C   LIG A   1      -4.933   3.942 123.722  0.00  0.00    +0.014 A 
ATOM     12  C   LIG A   1      -5.429   3.535 124.962  0.00  0.00    -0.036 A 
ATOM     13  C   LIG A   1      -4.692   3.588 126.274  0.00  0.00    +0.043 C 
ATOM     14  C   LIG A   1      -5.617   2.752 127.187  0.00  0.00    +0.027 C 
ENDROOT
BRANCH  13  15
ATOM     15  C   LIG A   1      -4.509   5.004 126.765  0.00  0.00    -0.020 C 
ATOM     16  C   LIG A   1      -3.623   5.449 127.679  0.00  0.00    -0.079 C 
ATOM     17  C   LIG A   1      -2.632   4.588 128.412  0.00  0.00    +0.038 C 
ATOM     18  C   LIG A   1      -3.583   6.907 128.058  0.00  0.00    +0.038 C 
ENDBRANCH  13  15
BRANCH   2  19
ATOM     19  C   LIG A   1      -7.655   1.325 126.688  0.00  0.00    -0.015 C 
ATOM     20  C   LIG A   1      -7.013   0.170 126.443  0.00  0.00    +0.006 C 
BRANCH  20  21
ATOM     21  C   LIG A   1      -7.618  -1.169 126.567  0.00  0.00    -0.004 A 
ATOM     22  C   LIG A   1      -8.165  -1.820 125.459  0.00  0.00    +0.038 A 
ATOM     23  N   LIG A   1      -8.247  -1.316 124.125  0.00  0.00    -0.343 N 
ATOM     24  H   LIG A   1      -7.369  -0.877 123.858  0.00  0.00    +0.146 HD
ATOM     25  C   LIG A   1      -8.603  -2.512 123.344  0.00  0.00    +0.106 C 
ATOM     26  C   LIG A   1      -9.363  -3.473 124.272  0.00  0.00    +0.055 C 
ATOM     27  C   LIG A   1      -8.813  -3.054 125.592  0.00  0.00    -0.025 A 
ATOM     28  C   LIG A   1      -8.920  -3.696 126.813  0.00  0.00    +0.005 A 
ATOM     29  C   LIG A   1      -8.362  -3.074 127.927  0.00  0.00    +0.001 A 
ATOM     30  C   LIG A   1      -7.729  -1.823 127.808  0.00  0.00    +0.010 A 
ENDBRANCH  20  21
ENDBRANCH   2  19
TORSDOF 3
ENDMDL
MODEL 3
REMARK VINA RESULT:      -8.7      3.944      5.661
REMARK  Name = NuBBE_1137
REMARK  6 active torsions:
REMARK  status: ('A' for Active; 'I' for Inactive)
REMARK    1  A    between atoms: C_1  and  C_2
REMARK    2  A    between atoms: C_2  and  C_3
REMARK    3  A    between atoms: C_4  and  C_5
REMARK    4  A    between atoms: C_25  and  C_27
REMARK    5  A    between atoms: C_28  and  C_29
REMARK    6  A    between atoms: C_28  and  C_30
REMARK                            x       y       z     vdW  Elec       q    Type
REMARK                         _______ _______ _______ _____ _____    ______ ____
ROOT
ATOM      1  C   LIG A   1      -1.907   3.217 127.101  0.00  0.00    +0.020 C 
ATOM      2  C   LIG A   1      -3.333   3.792 127.123  0.00  0.00    +0.012 C 
ATOM      3  C   LIG A   1      -4.109   3.188 128.284  0.00  0.00    -0.032 A 
ATOM      4  C   LIG A   1      -4.551   1.871 128.404  0.00  0.00    +0.031 A 
ATOM      5  C   LIG A   1      -5.213   1.537 129.594  0.00  0.00    +0.047 A 
ATOM      6  C   LIG A   1      -5.438   2.453 130.627  0.00  0.00    -0.000 A 
ATOM      7  C   LIG A   1      -6.129   1.757 131.658  0.00  0.00    +0.027 A 
ATOM      8  C   LIG A   1      -6.298   0.454 131.248  0.00  0.00    +0.083 A 
ATOM      9  N   LIG A   1      -5.743   0.332 130.002  0.00  0.00    -0.361 N 
ATOM     10  H   LIG A   1      -5.714  -0.517 129.458  0.00  0.00    +0.165 HD
ATOM     11  C   LIG A   1      -4.971   3.775 130.489  0.00  0.00    +0.014 A 
ATOM     12  C   LIG A   1      -4.298   4.113 129.315  0.00  0.00    -0.036 A 
ATOM     13  C   LIG A   1      -3.639   5.433 129.016  0.00  0.00    +0.043 C 
ATOM     14  C   LIG A   1      -3.342   5.302 127.505  0.00  0.00    +0.027 C 
ENDROOT
BRANCH  13  15
ATOM     15  C   LIG A   1      -2.391   5.643 129.841  0.00  0.00    -0.020 C 
ATOM     16  C   LIG A   1      -2.260   6.385 130.959  0.00  0.00    -0.079 C 
ATOM     17  C   LIG A   1      -3.364   7.176 131.605  0.00  0.00    +0.038 C 
ATOM     18  C   LIG A   1      -0.928   6.488 131.655  0.00  0.00    +0.038 C 
ENDBRANCH  13  15
BRANCH   2  19
ATOM     19  C   LIG A   1      -4.030   3.567 125.786  0.00  0.00    -0.015 C 
ATOM     20  C   LIG A   1      -5.120   4.226 125.359  0.00  0.00    +0.006 C 
BRANCH  20  21
ATOM     21  C   LIG A   1      -5.787   3.996 124.063  0.00  0.00    -0.004 A 
ATOM     22  C   LIG A   1      -7.013   3.332 123.990  0.00  0.00    +0.038 A 
ATOM     23  N   LIG A   1      -7.755   2.781 125.079  0.00  0.00    -0.343 N 
ATOM     24  H   LIG A   1      -7.771   3.432 125.861  0.00  0.00    +0.146 HD
ATOM     25  C   LIG A   1      -9.069   2.508 124.476  0.00  0.00    +0.106 C 
ATOM     26  C   LIG A   1      -8.857   2.265 122.973  0.00  0.00    +0.055 C 
ATOM     27  C   LIG A   1      -7.605   3.041 122.754  0.00  0.00    -0.025 A 
ATOM     28  C   LIG A   1      -7.021   3.416 121.558  0.00  0.00    +0.005 A 
ATOM     29  C   LIG A   1      -5.808   4.098 121.610  0.00  0.00    +0.001 A 
ATOM     30  C   LIG A   1      -5.194   4.376 122.845  0.00  0.00    +0.010 A 
ENDBRANCH  20  21
ENDBRANCH   2  19
TORSDOF 3
ENDMDL
MODEL 4
REMARK VINA RESULT:      -8.7      2.756      7.479
REMARK  Name = NuBBE_1137
REMARK  6 active torsions:
REMARK  status: ('A' for Active; 'I' for Inactive)
REMARK    1  A    between atoms: C_1  and  C_2
REMARK    2  A    between atoms: C_2  and  C_3
REMARK    3  A    between atoms: C_4  and  C_5
REMARK    4  A    between atoms: C_25  and  C_27
REMARK    5  A    between atoms: C_28  and  C_29
REMARK    6  A    between atoms: C_28  and  C_30
REMARK                            x       y       z     vdW  Elec       q    Type
REMARK                         _______ _______ _______ _____ _____    ______ ____
ROOT
ATOM      1  C   LIG A   1      -7.970   3.921 127.533  0.00  0.00    +0.020 C 
ATOM      2  C   LIG A   1      -7.112   2.804 126.917  0.00  0.00    +0.012 C 
ATOM      3  C   LIG A   1      -6.889   3.088 125.439  0.00  0.00    -0.032 A 
ATOM      4  C   LIG A   1      -7.839   3.031 124.420  0.00  0.00    +0.031 A 
ATOM      5  C   LIG A   1      -7.402   3.381 123.134  0.00  0.00    +0.047 A 
ATOM      6  C   LIG A   1      -6.088   3.767 122.851  0.00  0.00    -0.000 A 
ATOM      7  C   LIG A   1      -6.025   4.041 121.457  0.00  0.00    +0.027 A 
ATOM      8  C   LIG A   1      -7.278   3.833 120.928  0.00  0.00    +0.083 A 
ATOM      9  N   LIG A   1      -8.101   3.434 121.948  0.00  0.00    -0.361 N 
ATOM     10  H   LIG A   1      -9.082   3.216 121.854  0.00  0.00    +0.165 HD
ATOM     11  C   LIG A   1      -5.147   3.830 123.899  0.00  0.00    +0.014 A 
ATOM     12  C   LIG A   1      -5.577   3.499 125.185  0.00  0.00    -0.036 A 
ATOM     13  C   LIG A   1      -4.762   3.597 126.447  0.00  0.00    +0.043 C 
ATOM     14  C   LIG A   1      -5.650   2.833 127.455  0.00  0.00    +0.027 C 
ENDROOT
BRANCH  13  15
ATOM     15  C   LIG A   1      -4.516   5.030 126.853  0.00  0.00    -0.020 C 
ATOM     16  C   LIG A   1      -3.620   5.487 127.751  0.00  0.00    -0.079 C 
ATOM     17  C   LIG A   1      -2.680   4.627 128.550  0.00  0.00    +0.038 C 
ATOM     18  C   LIG A   1      -3.513   6.962 128.040  0.00  0.00    +0.038 C 
ENDBRANCH  13  15
BRANCH   2  19
ATOM     19  C   LIG A   1      -7.748   1.438 127.151  0.00  0.00    -0.015 C 
ATOM     20  C   LIG A   1      -7.235   0.264 126.746  0.00  0.00    +0.006 C 
BRANCH  20  21
ATOM     21  C   LIG A   1      -7.863  -1.051 126.976  0.00  0.00    -0.004 A 
ATOM     22  C   LIG A   1      -7.616  -1.774 128.145  0.00  0.00    +0.038 A 
ATOM     23  N   LIG A   1      -6.754  -1.396 129.219  0.00  0.00    -0.343 N 
ATOM     24  H   LIG A   1      -6.888  -0.415 129.452  0.00  0.00    +0.146 HD
ATOM     25  C   LIG A   1      -7.125  -2.341 130.285  0.00  0.00    +0.106 C 
ATOM     26  C   LIG A   1      -7.659  -3.618 129.618  0.00  0.00    +0.055 C 
ATOM     27  C   LIG A   1      -8.145  -3.058 128.326  0.00  0.00    -0.025 A 
ATOM     28  C   LIG A   1      -8.951  -3.657 127.376  0.00  0.00    +0.005 A 
ATOM     29  C   LIG A   1      -9.227  -2.944 126.212  0.00  0.00    +0.001 A 
ATOM     30  C   LIG A   1      -8.682  -1.663 126.010  0.00  0.00    +0.010 A 
ENDBRANCH  20  21
ENDBRANCH   2  19
TORSDOF 3
ENDMDL
MODEL 5
REMARK VINA RESULT:      -8.6      4.651      7.163
REMARK  Name = NuBBE_1137
REMARK  6 active torsions:
REMARK  status: ('A' for Active; 'I' for Inactive)
REMARK    1  A    between atoms: C_1  and  C_2
REMARK    2  A    between atoms: C_2  and  C_3
REMARK    3  A    between atoms: C_4  and  C_5
REMARK    4  A    between atoms: C_25  and  C_27
REMARK    5  A    between atoms: C_28  and  C_29
REMARK    6  A    between atoms: C_28  and  C_30
REMARK                            x       y       z     vdW  Elec       q    Type
REMARK                         _______ _______ _______ _____ _____    ______ ____
ROOT
ATOM      1  C   LIG A   1      -5.840  -0.198 128.924  0.00  0.00    +0.020 C 
ATOM      2  C   LIG A   1      -7.371  -0.328 128.967  0.00  0.00    +0.012 C 
ATOM      3  C   LIG A   1      -7.853  -1.074 127.732  0.00  0.00    -0.032 A 
ATOM      4  C   LIG A   1      -7.848  -0.612 126.415  0.00  0.00    +0.031 A 
ATOM      5  C   LIG A   1      -8.306  -1.504 125.435  0.00  0.00    +0.047 A 
ATOM      6  C   LIG A   1      -8.756  -2.795 125.726  0.00  0.00    -0.000 A 
ATOM      7  C   LIG A   1      -9.135  -3.393 124.492  0.00  0.00    +0.027 A 
ATOM      8  C   LIG A   1      -8.903  -2.478 123.491  0.00  0.00    +0.083 A 
ATOM      9  N   LIG A   1      -8.404  -1.342 124.071  0.00  0.00    -0.361 N 
ATOM     10  H   LIG A   1      -8.135  -0.504 123.575  0.00  0.00    +0.165 HD
ATOM     11  C   LIG A   1      -8.741  -3.246 127.062  0.00  0.00    +0.014 A 
ATOM     12  C   LIG A   1      -8.272  -2.370 128.042  0.00  0.00    -0.036 A 
ATOM     13  C   LIG A   1      -8.082  -2.690 129.501  0.00  0.00    +0.043 C 
ATOM     14  C   LIG A   1      -7.839  -1.287 130.101  0.00  0.00    +0.027 C 
ENDROOT
BRANCH  13  15
ATOM     15  C   LIG A   1      -6.925  -3.632 129.730  0.00  0.00    -0.020 C 
ATOM     16  C   LIG A   1      -6.342  -3.949 130.904  0.00  0.00    -0.079 C 
ATOM     17  C   LIG A   1      -6.742  -3.395 132.244  0.00  0.00    +0.038 C 
ATOM     18  C   LIG A   1      -5.184  -4.912 130.947  0.00  0.00    +0.038 C 
ENDBRANCH  13  15
BRANCH   2  19
ATOM     19  C   LIG A   1      -8.029   1.040 129.107  0.00  0.00    -0.015 C 
ATOM     20  C   LIG A   1      -8.192   1.708 130.261  0.00  0.00    +0.006 C 
BRANCH  20  21
ATOM     21  C   LIG A   1      -8.835   3.030 130.383  0.00  0.00    -0.004 A 
ATOM     22  C   LIG A   1      -8.081   4.178 130.638  0.00  0.00    +0.038 A 
ATOM     23  N   LIG A   1      -6.668   4.248 130.836  0.00  0.00    -0.343 N 
ATOM     24  H   LIG A   1      -6.186   3.675 130.148  0.00  0.00    +0.146 HD
ATOM     25  C   LIG A   1      -6.395   5.691 130.739  0.00  0.00    +0.106 C 
ATOM     26  C   LIG A   1      -7.667   6.442 131.164  0.00  0.00    +0.055 C 
ATOM     27  C   LIG A   1      -8.699   5.419 130.837  0.00  0.00    -0.025 A 
ATOM     28  C   LIG A   1     -10.072   5.572 130.766  0.00  0.00    +0.005 A 
ATOM     29  C   LIG A   1     -10.840   4.443 130.491  0.00  0.00    +0.001 A 
ATOM     30  C   LIG A   1     -10.231   3.187 130.313  0.00  0.00    +0.010 A 
ENDBRANCH  20  21
ENDBRANCH   2  19
TORSDOF 3
ENDMDL
MODEL 6
REMARK VINA RESULT:      -8.5      3.570      7.409
REMARK  Name = NuBBE_1137
REMARK  6 active torsions:
REMARK  status: ('A' for Active; 'I' for Inactive)
REMARK    1  A    between atoms: C_1  and  C_2
REMARK    2  A    between atoms: C_2  and  C_3
REMARK    3  A    between atoms: C_4  and  C_5
REMARK    4  A    between atoms: C_25  and  C_27
REMARK    5  A    between atoms: C_28  and  C_29
REMARK    6  A    between atoms: C_28  and  C_30
REMARK                            x       y       z     vdW  Elec       q    Type
REMARK                         _______ _______ _______ _____ _____    ______ ____
ROOT
ATOM      1  C   LIG A   1      -5.244   1.699 125.963  0.00  0.00    +0.020 C 
ATOM      2  C   LIG A   1      -6.278   2.820 125.772  0.00  0.00    +0.012 C 
ATOM      3  C   LIG A   1      -6.297   3.252 124.313  0.00  0.00    -0.032 A 
ATOM      4  C   LIG A   1      -5.299   3.946 123.629  0.00  0.00    +0.031 A 
ATOM      5  C   LIG A   1      -5.528   4.195 122.268  0.00  0.00    +0.047 A 
ATOM      6  C   LIG A   1      -6.686   3.787 121.600  0.00  0.00    -0.000 A 
ATOM      7  C   LIG A   1      -6.561   4.214 120.249  0.00  0.00    +0.027 A 
ATOM      8  C   LIG A   1      -5.347   4.850 120.118  0.00  0.00    +0.083 A 
ATOM      9  N   LIG A   1      -4.733   4.833 121.342  0.00  0.00    -0.361 N 
ATOM     10  H   LIG A   1      -3.823   5.224 121.542  0.00  0.00    +0.165 HD
ATOM     11  C   LIG A   1      -7.677   3.077 122.308  0.00  0.00    +0.014 A 
ATOM     12  C   LIG A   1      -7.451   2.811 123.659  0.00  0.00    -0.036 A 
ATOM     13  C   LIG A   1      -8.330   1.987 124.562  0.00  0.00    +0.043 C 
ATOM     14  C   LIG A   1      -7.735   2.301 125.953  0.00  0.00    +0.027 C 
ENDROOT
BRANCH  13  15
ATOM     15  C   LIG A   1      -8.275   0.517 124.220  0.00  0.00    -0.020 C 
ATOM     16  C   LIG A   1      -9.057  -0.155 123.352  0.00  0.00    -0.079 C 
ATOM     17  C   LIG A   1     -10.174   0.451 122.547  0.00  0.00    +0.038 C 
ATOM     18  C   LIG A   1      -8.865  -1.634 123.137  0.00  0.00    +0.038 C 
ENDBRANCH  13  15
BRANCH   2  19
ATOM     19  C   LIG A   1      -5.997   3.986 126.714  0.00  0.00    -0.015 C 
ATOM     20  C   LIG A   1      -5.182   3.942 127.781  0.00  0.00    +0.006 C 
BRANCH  20  21
ATOM     21  C   LIG A   1      -4.921   5.077 128.686  0.00  0.00    -0.004 A 
ATOM     22  C   LIG A   1      -5.712   5.295 129.817  0.00  0.00    +0.038 A 
ATOM     23  N   LIG A   1      -6.840   4.525 130.234  0.00  0.00    -0.343 N 
ATOM     24  H   LIG A   1      -6.640   3.531 130.150  0.00  0.00    +0.146 HD
ATOM     25  C   LIG A   1      -7.067   4.995 131.610  0.00  0.00    +0.106 C 
ATOM     26  C   LIG A   1      -6.544   6.437 131.708  0.00  0.00    +0.055 C 
ATOM     27  C   LIG A   1      -5.517   6.419 130.629  0.00  0.00    -0.025 A 
ATOM     28  C   LIG A   1      -4.525   7.346 130.369  0.00  0.00    +0.005 A 
ATOM     29  C   LIG A   1      -3.711   7.135 129.258  0.00  0.00    +0.001 A 
ATOM     30  C   LIG A   1      -3.913   6.022 128.422  0.00  0.00    +0.010 A 
ENDBRANCH  20  21
ENDBRANCH   2  19
TORSDOF 3
ENDMDL
MODEL 7
REMARK VINA RESULT:      -8.4      3.378      6.976
REMARK  Name = NuBBE_1137
REMARK  6 active torsions:
REMARK  status: ('A' for Active; 'I' for Inactive)
REMARK    1  A    between atoms: C_1  and  C_2
REMARK    2  A    between atoms: C_2  and  C_3
REMARK    3  A    between atoms: C_4  and  C_5
REMARK    4  A    between atoms: C_25  and  C_27
REMARK    5  A    between atoms: C_28  and  C_29
REMARK    6  A    between atoms: C_28  and  C_30
REMARK                            x       y       z     vdW  Elec       q    Type
REMARK                         _______ _______ _______ _____ _____    ______ ____
ROOT
ATOM      1  C   LIG A   1      -7.736   4.414 125.304  0.00  0.00    +0.020 C 
ATOM      2  C   LIG A   1      -6.461   3.619 124.978  0.00  0.00    +0.012 C 
ATOM      3  C   LIG A   1      -6.787   2.135 124.921  0.00  0.00    -0.032 A 
ATOM      4  C   LIG A   1      -7.127   1.307 125.991  0.00  0.00    +0.031 A 
ATOM      5  C   LIG A   1      -7.428  -0.027 125.681  0.00  0.00    +0.047 A 
ATOM      6  C   LIG A   1      -7.396  -0.537 124.380  0.00  0.00    -0.000 A 
ATOM      7  C   LIG A   1      -7.756  -1.911 124.460  0.00  0.00    +0.027 A 
ATOM      8  C   LIG A   1      -8.008  -2.205 125.781  0.00  0.00    +0.083 A 
ATOM      9  N   LIG A   1      -7.806  -1.062 126.509  0.00  0.00    -0.361 N 
ATOM     10  H   LIG A   1      -7.924  -0.979 127.508  0.00  0.00    +0.165 HD
ATOM     11  C   LIG A   1      -7.062   0.321 123.312  0.00  0.00    +0.014 A 
ATOM     12  C   LIG A   1      -6.776   1.654 123.608  0.00  0.00    -0.036 A 
ATOM     13  C   LIG A   1      -6.496   2.746 122.610  0.00  0.00    +0.043 C 
ATOM     14  C   LIG A   1      -5.973   3.878 123.522  0.00  0.00    +0.027 C 
ENDROOT
BRANCH  13  15
ATOM     15  C   LIG A   1      -7.733   3.140 121.839  0.00  0.00    -0.020 C 
ATOM     16  C   LIG A   1      -7.795   3.778 120.653  0.00  0.00    -0.079 C 
ATOM     17  C   LIG A   1      -6.604   4.242 119.859  0.00  0.00    +0.038 C 
ATOM     18  C   LIG A   1      -9.126   4.099 120.026  0.00  0.00    +0.038 C 
ENDBRANCH  13  15
BRANCH   2  19
ATOM     19  C   LIG A   1      -5.357   3.928 125.982  0.00  0.00    -0.015 C 
ATOM     20  C   LIG A   1      -5.411   4.882 126.927  0.00  0.00    +0.006 C 
BRANCH  20  21
ATOM     21  C   LIG A   1      -4.333   5.172 127.891  0.00  0.00    -0.004 A 
ATOM     22  C   LIG A   1      -4.209   4.443 129.076  0.00  0.00    +0.038 A 
ATOM     23  N   LIG A   1      -5.063   3.392 129.528  0.00  0.00    -0.343 N 
ATOM     24  H   LIG A   1      -5.276   2.756 128.764  0.00  0.00    +0.146 HD
ATOM     25  C   LIG A   1      -4.293   2.795 130.632  0.00  0.00    +0.106 C 
ATOM     26  C   LIG A   1      -3.385   3.888 131.218  0.00  0.00    +0.055 C 
ATOM     27  C   LIG A   1      -3.238   4.774 130.030  0.00  0.00    -0.025 A 
ATOM     28  C   LIG A   1      -2.345   5.812 129.834  0.00  0.00    +0.005 A 
ATOM     29  C   LIG A   1      -2.438   6.538 128.649  0.00  0.00    +0.001 A 
ATOM     30  C   LIG A   1      -3.425   6.229 127.695  0.00  0.00    +0.010 A 
ENDBRANCH  20  21
ENDBRANCH   2  19
TORSDOF 3
ENDMDL
MODEL 8
REMARK VINA RESULT:      -8.3      3.806      6.547
REMARK  Name = NuBBE_1137
REMARK  6 active torsions:
REMARK  status: ('A' for Active; 'I' for Inactive)
REMARK    1  A    between atoms: C_1  and  C_2
REMARK    2  A    between atoms: C_2  and  C_3
REMARK    3  A    between atoms: C_4  and  C_5
REMARK    4  A    between atoms: C_25  and  C_27
REMARK    5  A    between atoms: C_28  and  C_29
REMARK    6  A    between atoms: C_28  and  C_30
REMARK                            x       y       z     vdW  Elec       q    Type
REMARK                         _______ _______ _______ _____ _____    ______ ____
ROOT
ATOM      1  C   LIG A   1      -5.567   0.467 129.265  0.00  0.00    +0.020 C 
ATOM      2  C   LIG A   1      -6.784  -0.470 129.225  0.00  0.00    +0.012 C 
ATOM      3  C   LIG A   1      -6.597  -1.592 130.235  0.00  0.00    -0.032 A 
ATOM      4  C   LIG A   1      -5.683  -2.644 130.162  0.00  0.00    +0.031 A 
ATOM      5  C   LIG A   1      -5.668  -3.538 131.243  0.00  0.00    +0.047 A 
ATOM      6  C   LIG A   1      -6.513  -3.414 132.349  0.00  0.00    -0.000 A 
ATOM      7  C   LIG A   1      -6.211  -4.492 133.228  0.00  0.00    +0.027 A 
ATOM      8  C   LIG A   1      -5.199  -5.230 132.657  0.00  0.00    +0.083 A 
ATOM      9  N   LIG A   1      -4.880  -4.647 131.460  0.00  0.00    -0.361 N 
ATOM     10  H   LIG A   1      -4.164  -4.972 130.826  0.00  0.00    +0.165 HD
ATOM     11  C   LIG A   1      -7.420  -2.337 132.407  0.00  0.00    +0.014 A 
ATOM     12  C   LIG A   1      -7.432  -1.433 131.344  0.00  0.00    -0.036 A 
ATOM     13  C   LIG A   1      -8.248  -0.171 131.260  0.00  0.00    +0.043 C 
ATOM     14  C   LIG A   1      -8.066   0.222 129.776  0.00  0.00    +0.027 C 
ENDROOT
BRANCH  13  15
ATOM     15  C   LIG A   1      -7.750   0.891 132.211  0.00  0.00    -0.020 C 
ATOM     16  C   LIG A   1      -8.435   1.945 132.698  0.00  0.00    -0.079 C 
ATOM     17  C   LIG A   1      -9.863   2.277 132.363  0.00  0.00    +0.038 C 
ATOM     18  C   LIG A   1      -7.774   2.916 133.640  0.00  0.00    +0.038 C 
ENDBRANCH  13  15
BRANCH   2  19
ATOM     19  C   LIG A   1      -7.018  -0.998 127.814  0.00  0.00    -0.015 C 
ATOM     20  C   LIG A   1      -8.158  -1.555 127.373  0.00  0.00    +0.006 C 
BRANCH  20  21
ATOM     21  C   LIG A   1      -8.370  -2.065 126.005  0.00  0.00    -0.004 A 
ATOM     22  C   LIG A   1      -8.744  -1.210 124.966  0.00  0.00    +0.038 A 
ATOM     23  N   LIG A   1      -8.993   0.193 125.059  0.00  0.00    -0.343 N 
ATOM     24  H   LIG A   1      -8.275   0.643 125.622  0.00  0.00    +0.146 HD
ATOM     25  C   LIG A   1      -9.026   0.615 123.649  0.00  0.00    +0.106 C 
ATOM     26  C   LIG A   1      -9.471  -0.591 122.806  0.00  0.00    +0.055 C 
ATOM     27  C   LIG A   1      -9.026  -1.707 123.687  0.00  0.00    -0.025 A 
ATOM     28  C   LIG A   1      -8.924  -3.054 123.387  0.00  0.00    +0.005 A 
ATOM     29  C   LIG A   1      -8.531  -3.920 124.404  0.00  0.00    +0.001 A 
ATOM     30  C   LIG A   1      -8.268  -3.434 125.698  0.00  0.00    +0.010 A 
ENDBRANCH  20  21
ENDBRANCH   2  19
TORSDOF 3
ENDMDL
MODEL 9
REMARK VINA RESULT:      -8.2      3.344      6.965
REMARK  Name = NuBBE_1137
REMARK  6 active torsions:
REMARK  status: ('A' for Active; 'I' for Inactive)
REMARK    1  A    between atoms: C_1  and  C_2
REMARK    2  A    between atoms: C_2  and  C_3
REMARK    3  A    between atoms: C_4  and  C_5
REMARK    4  A    between atoms: C_25  and  C_27
REMARK    5  A    between atoms: C_28  and  C_29
REMARK    6  A    between atoms: C_28  and  C_30
REMARK                            x       y       z     vdW  Elec       q    Type
REMARK                         _______ _______ _______ _____ _____    ______ ____
ROOT
ATOM      1  C   LIG A   1      -8.384   3.990 125.357  0.00  0.00    +0.020 C 
ATOM      2  C   LIG A   1      -7.110   3.134 125.427  0.00  0.00    +0.012 C 
ATOM      3  C   LIG A   1      -7.450   1.687 125.103  0.00  0.00    -0.032 A 
ATOM      4  C   LIG A   1      -8.186   0.800 125.889  0.00  0.00    +0.031 A 
ATOM      5  C   LIG A   1      -8.407  -0.477 125.355  0.00  0.00    +0.047 A 
ATOM      6  C   LIG A   1      -7.924  -0.878 124.106  0.00  0.00    -0.000 A 
ATOM      7  C   LIG A   1      -8.342  -2.224 123.909  0.00  0.00    +0.027 A 
ATOM      8  C   LIG A   1      -9.066  -2.607 125.015  0.00  0.00    +0.083 A 
ATOM      9  N   LIG A   1      -9.099  -1.547 125.881  0.00  0.00    -0.361 N 
ATOM     10  H   LIG A   1      -9.567  -1.539 126.775  0.00  0.00    +0.165 HD
ATOM     11  C   LIG A   1      -7.193   0.038 123.323  0.00  0.00    +0.014 A 
ATOM     12  C   LIG A   1      -6.982   1.317 123.839  0.00  0.00    -0.036 A 
ATOM     13  C   LIG A   1      -6.318   2.464 123.126  0.00  0.00    +0.043 C 
ATOM     14  C   LIG A   1      -6.117   3.476 124.277  0.00  0.00    +0.027 C 
ENDROOT
BRANCH  13  15
ATOM     15  C   LIG A   1      -7.175   3.011 122.010  0.00  0.00    -0.020 C 
ATOM     16  C   LIG A   1      -6.771   3.703 120.925  0.00  0.00    -0.079 C 
ATOM     17  C   LIG A   1      -5.346   4.081 120.624  0.00  0.00    +0.038 C 
ATOM     18  C   LIG A   1      -7.772   4.180 119.906  0.00  0.00    +0.038 C 
ENDBRANCH  13  15
BRANCH   2  19
ATOM     19  C   LIG A   1      -6.434   3.276 126.786  0.00  0.00    -0.015 C 
ATOM     20  C   LIG A   1      -5.241   3.855 127.002  0.00  0.00    +0.006 C 
BRANCH  20  21
ATOM     21  C   LIG A   1      -4.596   3.984 128.323  0.00  0.00    -0.004 A 
ATOM     22  C   LIG A   1      -3.752   5.058 128.613  0.00  0.00    +0.038 A 
ATOM     23  N   LIG A   1      -3.380   6.116 127.730  0.00  0.00    -0.343 N 
ATOM     24  H   LIG A   1      -4.193   6.456 127.222  0.00  0.00    +0.146 HD
ATOM     25  C   LIG A   1      -2.764   7.099 128.637  0.00  0.00    +0.106 C 
ATOM     26  C   LIG A   1      -2.192   6.335 129.842  0.00  0.00    +0.055 C 
ATOM     27  C   LIG A   1      -3.075   5.135 129.836  0.00  0.00    -0.025 A 
ATOM     28  C   LIG A   1      -3.227   4.173 130.819  0.00  0.00    +0.005 A 
ATOM     29  C   LIG A   1      -4.082   3.105 130.557  0.00  0.00    +0.001 A 
ATOM     30  C   LIG A   1      -4.749   3.006 129.323  0.00  0.00    +0.010 A 
ENDBRANCH  20  21
ENDBRANCH   2  19
TORSDOF 3
ENDMDL
