MODEL 1
REMARK VINA RESULT:      -6.4      0.000      0.000
REMARK  Name = NuBBE_2052
REMARK  4 active torsions:
REMARK  status: ('A' for Active; 'I' for Inactive)
REMARK    1  A    between atoms: O_1  and  C_2
REMARK    2  A    between atoms: C_6  and  O_9
REMARK    3  A    between atoms: O_9  and  C_10
REMARK    4  A    between atoms: C_12  and  C_16
REMARK                            x       y       z     vdW  Elec       q    Type
REMARK                         _______ _______ _______ _____ _____    ______ ____
ROOT
ATOM      1  C   LIG A   1      -9.415   5.625 129.263  0.00  0.00    +0.153 A 
ATOM      2  C   LIG A   1     -10.405   6.619 129.144  0.00  0.00    +0.110 A 
ATOM      3  C   LIG A   1     -11.100   7.058 130.277  0.00  0.00    -0.001 A 
ATOM      4  C   LIG A   1     -10.797   6.514 131.528  0.00  0.00    +0.056 A 
ATOM      5  C   LIG A   1      -9.797   5.546 131.652  0.00  0.00    +0.142 A 
ATOM      6  C   LIG A   1      -9.117   5.077 130.520  0.00  0.00    +0.125 A 
ATOM      7 CL   LIG A   1      -7.946   3.809 130.660  0.00  0.00    -0.076 Cl
ATOM      8  C   LIG A   1     -12.135   8.073 130.147  0.00  0.00    +0.050 A 
ATOM      9  C   LIG A   1     -12.402   8.575 128.936  0.00  0.00    +0.107 A 
ATOM     10  O   LIG A   1     -11.711   8.154 127.779  0.00  0.00    -0.427 OA
ATOM     11  C   LIG A   1     -10.731   7.205 127.824  0.00  0.00    +0.348 A 
ATOM     12  O   LIG A   1     -10.129   6.836 126.820  0.00  0.00    -0.244 OA
ATOM     13  C   LIG A   1     -13.443   9.616 128.676  0.00  0.00    +0.086 C 
ENDROOT
BRANCH   1  14
ATOM     14  O   LIG A   1      -8.719   5.162 128.171  0.00  0.00    -0.504 OA
ATOM     15  H   LIG A   1      -7.770   5.050 128.402  0.00  0.00    +0.292 HD
ENDBRANCH   1  14
BRANCH   5  16
ATOM     16  O   LIG A   1      -9.593   5.047 132.913  0.00  0.00    -0.493 OA
ATOM     17  C   LIG A   1      -8.553   5.754 133.594  0.00  0.00    +0.277 C 
ENDBRANCH   5  16
TORSDOF 2
ENDMDL
MODEL 2
REMARK VINA RESULT:      -6.3      2.423      5.493
REMARK  Name = NuBBE_2052
REMARK  4 active torsions:
REMARK  status: ('A' for Active; 'I' for Inactive)
REMARK    1  A    between atoms: O_1  and  C_2
REMARK    2  A    between atoms: C_6  and  O_9
REMARK    3  A    between atoms: O_9  and  C_10
REMARK    4  A    between atoms: C_12  and  C_16
REMARK                            x       y       z     vdW  Elec       q    Type
REMARK                         _______ _______ _______ _____ _____    ______ ____
ROOT
ATOM      1  C   LIG A   1     -11.088   6.497 131.223  0.00  0.00    +0.153 A 
ATOM      2  C   LIG A   1      -9.700   6.445 131.454  0.00  0.00    +0.110 A 
ATOM      3  C   LIG A   1      -8.817   7.106 130.593  0.00  0.00    -0.001 A 
ATOM      4  C   LIG A   1      -9.322   7.830 129.509  0.00  0.00    +0.056 A 
ATOM      5  C   LIG A   1     -10.700   7.905 129.292  0.00  0.00    +0.142 A 
ATOM      6  C   LIG A   1     -11.590   7.220 130.130  0.00  0.00    +0.125 A 
ATOM      7 CL   LIG A   1     -13.291   7.234 129.806  0.00  0.00    -0.076 Cl
ATOM      8  C   LIG A   1      -7.383   7.034 130.825  0.00  0.00    +0.050 A 
ATOM      9  C   LIG A   1      -6.930   6.333 131.871  0.00  0.00    +0.107 A 
ATOM     10  O   LIG A   1      -7.799   5.663 132.760  0.00  0.00    -0.427 OA
ATOM     11  C   LIG A   1      -9.154   5.684 132.602  0.00  0.00    +0.348 A 
ATOM     12  O   LIG A   1      -9.914   5.101 133.371  0.00  0.00    -0.244 OA
ATOM     13  C   LIG A   1      -5.482   6.184 132.211  0.00  0.00    +0.086 C 
ENDROOT
BRANCH   1  14
ATOM     14  O   LIG A   1     -11.983   5.851 132.042  0.00  0.00    -0.504 OA
ATOM     15  H   LIG A   1     -12.094   6.356 132.879  0.00  0.00    +0.292 HD
ENDBRANCH   1  14
BRANCH   5  16
ATOM     16  O   LIG A   1     -11.100   8.610 128.186  0.00  0.00    -0.493 OA
ATOM     17  C   LIG A   1     -10.961   7.836 126.992  0.00  0.00    +0.277 C 
ENDBRANCH   5  16
TORSDOF 2
ENDMDL
MODEL 3
REMARK VINA RESULT:      -6.0      9.179     11.499
REMARK  Name = NuBBE_2052
REMARK  4 active torsions:
REMARK  status: ('A' for Active; 'I' for Inactive)
REMARK    1  A    between atoms: O_1  and  C_2
REMARK    2  A    between atoms: C_6  and  O_9
REMARK    3  A    between atoms: O_9  and  C_10
REMARK    4  A    between atoms: C_12  and  C_16
REMARK                            x       y       z     vdW  Elec       q    Type
REMARK                         _______ _______ _______ _____ _____    ______ ____
ROOT
ATOM      1  C   LIG A   1      -8.762  -1.234 124.658  0.00  0.00    +0.153 A 
ATOM      2  C   LIG A   1      -7.661  -2.058 124.359  0.00  0.00    +0.110 A 
ATOM      3  C   LIG A   1      -6.590  -1.556 123.610  0.00  0.00    -0.001 A 
ATOM      4  C   LIG A   1      -6.615  -0.230 123.170  0.00  0.00    +0.056 A 
ATOM      5  C   LIG A   1      -7.697   0.597 123.488  0.00  0.00    +0.142 A 
ATOM      6  C   LIG A   1      -8.787   0.096 124.211  0.00  0.00    +0.125 A 
ATOM      7 CL   LIG A   1     -10.169   1.091 124.522  0.00  0.00    -0.076 Cl
ATOM      8  C   LIG A   1      -5.461  -2.416 123.287  0.00  0.00    +0.050 A 
ATOM      9  C   LIG A   1      -5.466  -3.681 123.722  0.00  0.00    +0.107 A 
ATOM     10  O   LIG A   1      -6.529  -4.210 124.486  0.00  0.00    -0.427 OA
ATOM     11  C   LIG A   1      -7.621  -3.464 124.823  0.00  0.00    +0.348 A 
ATOM     12  O   LIG A   1      -8.549  -3.920 125.485  0.00  0.00    -0.244 OA
ATOM     13  C   LIG A   1      -4.367  -4.659 123.453  0.00  0.00    +0.086 C 
ENDROOT
BRANCH   1  14
ATOM     14  O   LIG A   1      -9.836  -1.696 125.383  0.00  0.00    -0.504 OA
ATOM     15  H   LIG A   1      -9.591  -2.526 125.850  0.00  0.00    +0.292 HD
ENDBRANCH   1  14
BRANCH   5  16
ATOM     16  O   LIG A   1      -7.649   1.873 122.986  0.00  0.00    -0.493 OA
ATOM     17  C   LIG A   1      -6.904   2.744 123.841  0.00  0.00    +0.277 C 
ENDBRANCH   5  16
TORSDOF 2
ENDMDL
MODEL 4
REMARK VINA RESULT:      -6.0      9.051     10.361
REMARK  Name = NuBBE_2052
REMARK  4 active torsions:
REMARK  status: ('A' for Active; 'I' for Inactive)
REMARK    1  A    between atoms: O_1  and  C_2
REMARK    2  A    between atoms: C_6  and  O_9
REMARK    3  A    between atoms: O_9  and  C_10
REMARK    4  A    between atoms: C_12  and  C_16
REMARK                            x       y       z     vdW  Elec       q    Type
REMARK                         _______ _______ _______ _____ _____    ______ ____
ROOT
ATOM      1  C   LIG A   1      -8.840  -1.982 123.635  0.00  0.00    +0.153 A 
ATOM      2  C   LIG A   1      -8.577  -0.627 123.358  0.00  0.00    +0.110 A 
ATOM      3  C   LIG A   1      -7.313  -0.088 123.621  0.00  0.00    -0.001 A 
ATOM      4  C   LIG A   1      -6.309  -0.904 124.148  0.00  0.00    +0.056 A 
ATOM      5  C   LIG A   1      -6.561  -2.256 124.401  0.00  0.00    +0.142 A 
ATOM      6  C   LIG A   1      -7.832  -2.798 124.170  0.00  0.00    +0.125 A 
ATOM      7 CL   LIG A   1      -8.171  -4.448 124.571  0.00  0.00    -0.076 Cl
ATOM      8  C   LIG A   1      -7.051   1.318 123.350  0.00  0.00    +0.050 A 
ATOM      9  C   LIG A   1      -8.032   2.074 122.845  0.00  0.00    +0.107 A 
ATOM     10  O   LIG A   1      -9.314   1.554 122.563  0.00  0.00    -0.427 OA
ATOM     11  C   LIG A   1      -9.632   0.247 122.795  0.00  0.00    +0.348 A 
ATOM     12  O   LIG A   1     -10.746  -0.210 122.553  0.00  0.00    -0.244 OA
ATOM     13  C   LIG A   1      -7.885   3.528 122.528  0.00  0.00    +0.086 C 
ENDROOT
BRANCH   1  14
ATOM     14  O   LIG A   1     -10.073  -2.543 123.398  0.00  0.00    -0.504 OA
ATOM     15  H   LIG A   1      -9.972  -3.501 123.201  0.00  0.00    +0.292 HD
ENDBRANCH   1  14
BRANCH   5  16
ATOM     16  O   LIG A   1      -5.526  -2.970 124.948  0.00  0.00    -0.493 OA
ATOM     17  C   LIG A   1      -4.772  -3.654 123.944  0.00  0.00    +0.277 C 
ENDBRANCH   5  16
TORSDOF 2
ENDMDL
MODEL 5
REMARK VINA RESULT:      -6.0      2.008      4.680
REMARK  Name = NuBBE_2052
REMARK  4 active torsions:
REMARK  status: ('A' for Active; 'I' for Inactive)
REMARK    1  A    between atoms: O_1  and  C_2
REMARK    2  A    between atoms: C_6  and  O_9
REMARK    3  A    between atoms: O_9  and  C_10
REMARK    4  A    between atoms: C_12  and  C_16
REMARK                            x       y       z     vdW  Elec       q    Type
REMARK                         _______ _______ _______ _____ _____    ______ ____
ROOT
ATOM      1  C   LIG A   1     -10.073   6.439 128.476  0.00  0.00    +0.153 A 
ATOM      2  C   LIG A   1      -9.700   6.142 129.801  0.00  0.00    +0.110 A 
ATOM      3  C   LIG A   1     -10.512   6.543 130.867  0.00  0.00    -0.001 A 
ATOM      4  C   LIG A   1     -11.702   7.229 130.609  0.00  0.00    +0.056 A 
ATOM      5  C   LIG A   1     -12.087   7.503 129.294  0.00  0.00    +0.142 A 
ATOM      6  C   LIG A   1     -11.265   7.132 128.221  0.00  0.00    +0.125 A 
ATOM      7 CL   LIG A   1     -11.694   7.555 126.597  0.00  0.00    -0.076 Cl
ATOM      8  C   LIG A   1     -10.114   6.250 132.236  0.00  0.00    +0.050 A 
ATOM      9  C   LIG A   1      -8.970   5.592 132.451  0.00  0.00    +0.107 A 
ATOM     10  O   LIG A   1      -8.135   5.168 131.393  0.00  0.00    -0.427 OA
ATOM     11  C   LIG A   1      -8.443   5.411 130.086  0.00  0.00    +0.348 A 
ATOM     12  O   LIG A   1      -7.720   5.047 129.163  0.00  0.00    -0.244 OA
ATOM     13  C   LIG A   1      -8.455   5.236 133.809  0.00  0.00    +0.086 C 
ENDROOT
BRANCH   1  14
ATOM     14  O   LIG A   1      -9.294   6.068 127.405  0.00  0.00    -0.504 OA
ATOM     15  H   LIG A   1      -9.789   6.211 126.567  0.00  0.00    +0.292 HD
ENDBRANCH   1  14
BRANCH   5  16
ATOM     16  O   LIG A   1     -13.253   8.208 129.140  0.00  0.00    -0.493 OA
ATOM     17  C   LIG A   1     -13.034   9.616 129.265  0.00  0.00    +0.277 C 
ENDBRANCH   5  16
TORSDOF 2
ENDMDL
MODEL 6
REMARK VINA RESULT:      -5.9      7.413      8.976
REMARK  Name = NuBBE_2052
REMARK  4 active torsions:
REMARK  status: ('A' for Active; 'I' for Inactive)
REMARK    1  A    between atoms: O_1  and  C_2
REMARK    2  A    between atoms: C_6  and  O_9
REMARK    3  A    between atoms: O_9  and  C_10
REMARK    4  A    between atoms: C_12  and  C_16
REMARK                            x       y       z     vdW  Elec       q    Type
REMARK                         _______ _______ _______ _____ _____    ______ ____
ROOT
ATOM      1  C   LIG A   1      -7.317   2.751 124.786  0.00  0.00    +0.153 A 
ATOM      2  C   LIG A   1      -6.873   3.306 123.571  0.00  0.00    +0.110 A 
ATOM      3  C   LIG A   1      -7.605   3.104 122.395  0.00  0.00    -0.001 A 
ATOM      4  C   LIG A   1      -8.787   2.358 122.437  0.00  0.00    +0.056 A 
ATOM      5  C   LIG A   1      -9.242   1.828 123.647  0.00  0.00    +0.142 A 
ATOM      6  C   LIG A   1      -8.500   1.998 124.823  0.00  0.00    +0.125 A 
ATOM      7 CL   LIG A   1      -9.015   1.261 126.303  0.00  0.00    -0.076 Cl
ATOM      8  C   LIG A   1      -7.133   3.664 121.138  0.00  0.00    +0.050 A 
ATOM      9  C   LIG A   1      -5.999   4.374 121.130  0.00  0.00    +0.107 A 
ATOM     10  O   LIG A   1      -5.245   4.599 122.303  0.00  0.00    -0.427 OA
ATOM     11  C   LIG A   1      -5.625   4.102 123.515  0.00  0.00    +0.348 A 
ATOM     12  O   LIG A   1      -4.971   4.294 124.537  0.00  0.00    -0.244 OA
ATOM     13  C   LIG A   1      -5.413   4.995 119.903  0.00  0.00    +0.086 C 
ENDROOT
BRANCH   1  14
ATOM     14  O   LIG A   1      -6.618   2.921 125.958  0.00  0.00    -0.504 OA
ATOM     15  H   LIG A   1      -6.004   2.165 126.093  0.00  0.00    +0.292 HD
ENDBRANCH   1  14
BRANCH   5  16
ATOM     16  O   LIG A   1     -10.393   1.083 123.584  0.00  0.00    -0.493 OA
ATOM     17  C   LIG A   1     -10.387   0.202 122.458  0.00  0.00    +0.277 C 
ENDBRANCH   5  16
TORSDOF 2
ENDMDL
MODEL 7
REMARK VINA RESULT:      -5.9      1.904      3.249
REMARK  Name = NuBBE_2052
REMARK  4 active torsions:
REMARK  status: ('A' for Active; 'I' for Inactive)
REMARK    1  A    between atoms: O_1  and  C_2
REMARK    2  A    between atoms: C_6  and  O_9
REMARK    3  A    between atoms: O_9  and  C_10
REMARK    4  A    between atoms: C_12  and  C_16
REMARK                            x       y       z     vdW  Elec       q    Type
REMARK                         _______ _______ _______ _____ _____    ______ ____
ROOT
ATOM      1  C   LIG A   1     -10.148   6.335 131.643  0.00  0.00    +0.153 A 
ATOM      2  C   LIG A   1     -11.058   6.639 130.613  0.00  0.00    +0.110 A 
ATOM      3  C   LIG A   1     -10.672   6.509 129.274  0.00  0.00    -0.001 A 
ATOM      4  C   LIG A   1      -9.384   6.064 128.965  0.00  0.00    +0.056 A 
ATOM      5  C   LIG A   1      -8.488   5.738 129.987  0.00  0.00    +0.142 A 
ATOM      6  C   LIG A   1      -8.854   5.894 131.331  0.00  0.00    +0.125 A 
ATOM      7 CL   LIG A   1      -7.713   5.582 132.596  0.00  0.00    -0.076 Cl
ATOM      8  C   LIG A   1     -11.609   6.841 128.211  0.00  0.00    +0.050 A 
ATOM      9  C   LIG A   1     -12.836   7.264 128.537  0.00  0.00    +0.107 A 
ATOM     10  O   LIG A   1     -13.253   7.397 129.880  0.00  0.00    -0.427 OA
ATOM     11  C   LIG A   1     -12.427   7.107 130.927  0.00  0.00    +0.348 A 
ATOM     12  O   LIG A   1     -12.785   7.223 132.096  0.00  0.00    -0.244 OA
ATOM     13  C   LIG A   1     -13.883   7.637 127.537  0.00  0.00    +0.086 C 
ENDROOT
BRANCH   1  14
ATOM     14  O   LIG A   1     -10.490   6.461 132.970  0.00  0.00    -0.504 OA
ATOM     15  H   LIG A   1      -9.723   6.804 133.481  0.00  0.00    +0.292 HD
ENDBRANCH   1  14
BRANCH   5  16
ATOM     16  O   LIG A   1      -7.237   5.342 129.590  0.00  0.00    -0.493 OA
ATOM     17  C   LIG A   1      -7.213   3.957 129.234  0.00  0.00    +0.277 C 
ENDBRANCH   5  16
TORSDOF 2
ENDMDL
MODEL 8
REMARK VINA RESULT:      -5.6      8.959      9.470
REMARK  Name = NuBBE_2052
REMARK  4 active torsions:
REMARK  status: ('A' for Active; 'I' for Inactive)
REMARK    1  A    between atoms: O_1  and  C_2
REMARK    2  A    between atoms: C_6  and  O_9
REMARK    3  A    between atoms: O_9  and  C_10
REMARK    4  A    between atoms: C_12  and  C_16
REMARK                            x       y       z     vdW  Elec       q    Type
REMARK                         _______ _______ _______ _____ _____    ______ ____
ROOT
ATOM      1  C   LIG A   1      -8.882  -2.240 125.694  0.00  0.00    +0.153 A 
ATOM      2  C   LIG A   1      -8.355  -1.126 125.014  0.00  0.00    +0.110 A 
ATOM      3  C   LIG A   1      -7.267  -0.426 125.546  0.00  0.00    -0.001 A 
ATOM      4  C   LIG A   1      -6.697  -0.846 126.752  0.00  0.00    +0.056 A 
ATOM      5  C   LIG A   1      -7.203  -1.967 127.416  0.00  0.00    +0.142 A 
ATOM      6  C   LIG A   1      -8.311  -2.656 126.907  0.00  0.00    +0.125 A 
ATOM      7 CL   LIG A   1      -8.997  -3.986 127.778  0.00  0.00    -0.076 Cl
ATOM      8  C   LIG A   1      -6.737   0.737 124.849  0.00  0.00    +0.050 A 
ATOM      9  C   LIG A   1      -7.303   1.115 123.698  0.00  0.00    +0.107 A 
ATOM     10  O   LIG A   1      -8.397   0.422 123.134  0.00  0.00    -0.427 OA
ATOM     11  C   LIG A   1      -8.948  -0.673 123.734  0.00  0.00    +0.348 A 
ATOM     12  O   LIG A   1      -9.900  -1.277 123.249  0.00  0.00    -0.244 OA
ATOM     13  C   LIG A   1      -6.850   2.291 122.893  0.00  0.00    +0.086 C 
ENDROOT
BRANCH   1  14
ATOM     14  O   LIG A   1      -9.957  -2.945 125.205  0.00  0.00    -0.504 OA
ATOM     15  H   LIG A   1      -9.680  -3.861 124.978  0.00  0.00    +0.292 HD
ENDBRANCH   1  14
BRANCH   5  16
ATOM     16  O   LIG A   1      -6.601  -2.286 128.607  0.00  0.00    -0.493 OA
ATOM     17  C   LIG A   1      -5.198  -2.507 128.443  0.00  0.00    +0.277 C 
ENDBRANCH   5  16
TORSDOF 2
ENDMDL
MODEL 9
REMARK VINA RESULT:      -5.6      7.034      8.568
REMARK  Name = NuBBE_2052
REMARK  4 active torsions:
REMARK  status: ('A' for Active; 'I' for Inactive)
REMARK    1  A    between atoms: O_1  and  C_2
REMARK    2  A    between atoms: C_6  and  O_9
REMARK    3  A    between atoms: O_9  and  C_10
REMARK    4  A    between atoms: C_12  and  C_16
REMARK                            x       y       z     vdW  Elec       q    Type
REMARK                         _______ _______ _______ _____ _____    ______ ____
ROOT
ATOM      1  C   LIG A   1      -7.553   3.260 124.899  0.00  0.00    +0.153 A 
ATOM      2  C   LIG A   1      -6.256   3.311 125.444  0.00  0.00    +0.110 A 
ATOM      3  C   LIG A   1      -5.567   2.127 125.734  0.00  0.00    -0.001 A 
ATOM      4  C   LIG A   1      -6.170   0.894 125.468  0.00  0.00    +0.056 A 
ATOM      5  C   LIG A   1      -7.447   0.842 124.904  0.00  0.00    +0.142 A 
ATOM      6  C   LIG A   1      -8.157   2.021 124.639  0.00  0.00    +0.125 A 
ATOM      7 CL   LIG A   1      -9.776   1.955 124.029  0.00  0.00    -0.076 Cl
ATOM      8  C   LIG A   1      -4.234   2.184 126.314  0.00  0.00    +0.050 A 
ATOM      9  C   LIG A   1      -3.683   3.378 126.557  0.00  0.00    +0.107 A 
ATOM     10  O   LIG A   1      -4.352   4.588 126.267  0.00  0.00    -0.427 OA
ATOM     11  C   LIG A   1      -5.605   4.611 125.727  0.00  0.00    +0.348 A 
ATOM     12  O   LIG A   1      -6.192   5.660 125.475  0.00  0.00    -0.244 OA
ATOM     13  C   LIG A   1      -2.324   3.565 127.151  0.00  0.00    +0.086 C 
ENDROOT
BRANCH   1  14
ATOM     14  O   LIG A   1      -8.262   4.403 124.612  0.00  0.00    -0.504 OA
ATOM     15  H   LIG A   1      -8.897   4.227 123.882  0.00  0.00    +0.292 HD
ENDBRANCH   1  14
BRANCH   5  16
ATOM     16  O   LIG A   1      -7.970  -0.411 124.708  0.00  0.00    -0.493 OA
ATOM     17  C   LIG A   1      -7.556  -0.962 123.456  0.00  0.00    +0.277 C 
ENDBRANCH   5  16
TORSDOF 2
ENDMDL
