MODEL 1
REMARK VINA RESULT:      -8.2      0.000      0.000
REMARK  Name = NuBBE_2073
REMARK  2 active torsions:
REMARK  status: ('A' for Active; 'I' for Inactive)
REMARK    1  A    between atoms: C_3  and  C_4
REMARK    2  A    between atoms: C_5  and  O_6
REMARK                            x       y       z     vdW  Elec       q    Type
REMARK                         _______ _______ _______ _____ _____    ______ ____
ROOT
ATOM      1  O   LIG A   1      -9.925  -3.166 123.457  0.00  0.00    -0.250 OA
ATOM      2  C   LIG A   1      -9.346  -2.868 124.454  0.00  0.00    +0.319 C 
ATOM      3  C   LIG A   1      -8.137  -1.959 124.621  0.00  0.00    +0.125 C 
ATOM      4  C   LIG A   1      -8.953  -0.605 124.667  0.00  0.00    +0.029 C 
ATOM      5  C   LIG A   1      -6.836  -1.721 123.824  0.00  0.00    +0.183 C 
ATOM      6  C   LIG A   1      -5.467  -2.441 124.006  0.00  0.00    +0.066 C 
ATOM      7  C   LIG A   1      -5.149  -2.685 125.471  0.00  0.00    +0.015 C 
ATOM      8  C   LIG A   1      -6.281  -2.057 126.335  0.00  0.00    +0.005 C 
ATOM      9  C   LIG A   1      -6.241  -0.553 125.860  0.00  0.00    +0.170 C 
ATOM     10  O   LIG A   1      -6.393  -0.435 124.380  0.00  0.00    -0.347 OA
ATOM     11  C   LIG A   1      -6.095  -2.296 127.872  0.00  0.00    +0.008 C 
ATOM     12  C   LIG A   1      -7.149  -3.258 128.475  0.00  0.00    +0.062 C 
ATOM     13  C   LIG A   1      -8.598  -2.913 128.049  0.00  0.00    +0.056 C 
ATOM     14  C   LIG A   1      -8.680  -3.299 126.585  0.00  0.00    +0.182 C 
ATOM     15  O   LIG A   1      -9.822  -3.098 125.768  0.00  0.00    -0.461 OA
ATOM     16  C   LIG A   1      -7.558  -2.721 125.786  0.00  0.00    +0.060 C 
ATOM     17  C   LIG A   1      -4.690  -2.864 128.187  0.00  0.00    +0.005 C 
ATOM     18  C   LIG A   1      -4.401  -3.327 129.606  0.00  0.00    +0.008 C 
ATOM     19  C   LIG A   1      -5.571  -3.900 130.389  0.00  0.00    +0.075 C 
ATOM     20  C   LIG A   1      -6.916  -3.341 129.972  0.00  0.00    +0.137 C 
ATOM     21  O   LIG A   1      -7.790  -3.086 130.796  0.00  0.00    -0.297 OA
ENDROOT
BRANCH   5  22
ATOM     22  O   LIG A   1      -7.106  -1.818 122.447  0.00  0.00    -0.364 OA
ATOM     23  H   LIG A   1      -7.969  -2.284 122.398  0.00  0.00    +0.213 HD
ENDBRANCH   5  22
TORSDOF 1
ENDMDL
MODEL 2
REMARK VINA RESULT:      -7.8      2.325      3.862
REMARK  Name = NuBBE_2073
REMARK  2 active torsions:
REMARK  status: ('A' for Active; 'I' for Inactive)
REMARK    1  A    between atoms: C_3  and  C_4
REMARK    2  A    between atoms: C_5  and  O_6
REMARK                            x       y       z     vdW  Elec       q    Type
REMARK                         _______ _______ _______ _____ _____    ______ ____
ROOT
ATOM      1  O   LIG A   1     -10.291  -0.416 122.455  0.00  0.00    -0.250 OA
ATOM      2  C   LIG A   1      -9.292  -0.420 123.104  0.00  0.00    +0.319 C 
ATOM      3  C   LIG A   1      -8.540  -1.606 123.690  0.00  0.00    +0.125 C 
ATOM      4  C   LIG A   1      -7.712  -1.939 122.384  0.00  0.00    +0.029 C 
ATOM      5  C   LIG A   1      -8.952  -2.934 124.360  0.00  0.00    +0.183 C 
ATOM      6  C   LIG A   1      -9.181  -3.200 125.879  0.00  0.00    +0.066 C 
ATOM      7  C   LIG A   1      -8.162  -2.471 126.737  0.00  0.00    +0.015 C 
ATOM      8  C   LIG A   1      -7.155  -1.743 125.801  0.00  0.00    +0.005 C 
ATOM      9  C   LIG A   1      -6.601  -2.943 124.940  0.00  0.00    +0.170 C 
ATOM     10  O   LIG A   1      -7.700  -3.699 124.272  0.00  0.00    -0.347 OA
ATOM     11  C   LIG A   1      -6.083  -0.902 126.575  0.00  0.00    +0.008 C 
ATOM     12  C   LIG A   1      -6.255   0.627 126.395  0.00  0.00    +0.062 C 
ATOM     13  C   LIG A   1      -6.453   1.045 124.915  0.00  0.00    +0.056 C 
ATOM     14  C   LIG A   1      -7.847   0.566 124.555  0.00  0.00    +0.182 C 
ATOM     15  O   LIG A   1      -8.425   0.688 123.266  0.00  0.00    -0.461 OA
ATOM     16  C   LIG A   1      -8.062  -0.868 124.915  0.00  0.00    +0.060 C 
ATOM     17  C   LIG A   1      -6.112  -1.212 128.091  0.00  0.00    +0.005 C 
ATOM     18  C   LIG A   1      -5.265  -0.356 129.018  0.00  0.00    +0.008 C 
ATOM     19  C   LIG A   1      -5.062   1.095 128.614  0.00  0.00    +0.075 C 
ATOM     20  C   LIG A   1      -5.116   1.323 127.117  0.00  0.00    +0.137 C 
ATOM     21  O   LIG A   1      -4.357   2.109 126.557  0.00  0.00    -0.297 OA
ENDROOT
BRANCH   5  22
ATOM     22  O   LIG A   1     -10.109  -3.434 123.736  0.00  0.00    -0.364 OA
ATOM     23  H   LIG A   1      -9.794  -4.206 123.216  0.00  0.00    +0.213 HD
ENDBRANCH   5  22
TORSDOF 1
ENDMDL
MODEL 3
REMARK VINA RESULT:      -7.7      2.106      3.104
REMARK  Name = NuBBE_2073
REMARK  2 active torsions:
REMARK  status: ('A' for Active; 'I' for Inactive)
REMARK    1  A    between atoms: C_3  and  C_4
REMARK    2  A    between atoms: C_5  and  O_6
REMARK                            x       y       z     vdW  Elec       q    Type
REMARK                         _______ _______ _______ _____ _____    ______ ____
ROOT
ATOM      1  O   LIG A   1     -10.207   1.509 123.997  0.00  0.00    -0.250 OA
ATOM      2  C   LIG A   1      -9.465   1.021 124.791  0.00  0.00    +0.319 C 
ATOM      3  C   LIG A   1      -8.634  -0.247 124.667  0.00  0.00    +0.125 C 
ATOM      4  C   LIG A   1      -7.415   0.426 123.917  0.00  0.00    +0.029 C 
ATOM      5  C   LIG A   1      -8.868  -1.649 124.062  0.00  0.00    +0.183 C 
ATOM      6  C   LIG A   1      -9.442  -2.908 124.778  0.00  0.00    +0.066 C 
ATOM      7  C   LIG A   1      -8.926  -3.029 126.201  0.00  0.00    +0.015 C 
ATOM      8  C   LIG A   1      -7.914  -1.876 126.462  0.00  0.00    +0.005 C 
ATOM      9  C   LIG A   1      -6.854  -2.123 125.320  0.00  0.00    +0.170 C 
ATOM     10  O   LIG A   1      -7.491  -2.153 123.971  0.00  0.00    -0.347 OA
ATOM     11  C   LIG A   1      -7.354  -1.860 127.926  0.00  0.00    +0.008 C 
ATOM     12  C   LIG A   1      -7.850  -0.651 128.759  0.00  0.00    +0.062 C 
ATOM     13  C   LIG A   1      -7.721   0.697 128.007  0.00  0.00    +0.056 C 
ATOM     14  C   LIG A   1      -8.788   0.650 126.929  0.00  0.00    +0.182 C 
ATOM     15  O   LIG A   1      -8.989   1.665 125.959  0.00  0.00    -0.461 OA
ATOM     16  C   LIG A   1      -8.725  -0.609 126.129  0.00  0.00    +0.060 C 
ATOM     17  C   LIG A   1      -7.730  -3.154 128.687  0.00  0.00    +0.005 C 
ATOM     18  C   LIG A   1      -7.425  -3.230 130.174  0.00  0.00    +0.008 C 
ATOM     19  C   LIG A   1      -7.491  -1.926 130.953  0.00  0.00    +0.075 C 
ATOM     20  C   LIG A   1      -7.176  -0.701 130.118  0.00  0.00    +0.137 C 
ATOM     21  O   LIG A   1      -6.515   0.231 130.566  0.00  0.00    -0.297 OA
ENDROOT
BRANCH   5  22
ATOM     22  O   LIG A   1      -9.636  -1.529 122.889  0.00  0.00    -0.364 OA
ATOM     23  H   LIG A   1     -10.262  -2.285 122.927  0.00  0.00    +0.213 HD
ENDBRANCH   5  22
TORSDOF 1
ENDMDL
MODEL 4
REMARK VINA RESULT:      -7.6      3.075      4.993
REMARK  Name = NuBBE_2073
REMARK  2 active torsions:
REMARK  status: ('A' for Active; 'I' for Inactive)
REMARK    1  A    between atoms: C_3  and  C_4
REMARK    2  A    between atoms: C_5  and  O_6
REMARK                            x       y       z     vdW  Elec       q    Type
REMARK                         _______ _______ _______ _____ _____    ______ ____
ROOT
ATOM      1  O   LIG A   1      -8.637   4.834 125.590  0.00  0.00    -0.250 OA
ATOM      2  C   LIG A   1      -8.302   3.692 125.626  0.00  0.00    +0.319 C 
ATOM      3  C   LIG A   1      -7.847   2.794 124.485  0.00  0.00    +0.125 C 
ATOM      4  C   LIG A   1      -6.335   3.256 124.503  0.00  0.00    +0.029 C 
ATOM      5  C   LIG A   1      -8.281   2.595 123.016  0.00  0.00    +0.183 C 
ATOM      6  C   LIG A   1      -9.349   1.601 122.469  0.00  0.00    +0.066 C 
ATOM      7  C   LIG A   1      -9.292   0.264 123.187  0.00  0.00    +0.015 C 
ATOM      8  C   LIG A   1      -8.116   0.296 124.204  0.00  0.00    +0.005 C 
ATOM      9  C   LIG A   1      -6.894   0.625 123.261  0.00  0.00    +0.170 C 
ATOM     10  O   LIG A   1      -7.123   1.871 122.473  0.00  0.00    -0.347 OA
ATOM     11  C   LIG A   1      -7.993  -1.015 125.054  0.00  0.00    +0.008 C 
ATOM     12  C   LIG A   1      -8.347  -0.813 126.548  0.00  0.00    +0.062 C 
ATOM     13  C   LIG A   1      -7.656   0.425 127.173  0.00  0.00    +0.056 C 
ATOM     14  C   LIG A   1      -8.360   1.620 126.560  0.00  0.00    +0.182 C 
ATOM     15  O   LIG A   1      -8.005   2.970 126.808  0.00  0.00    -0.461 OA
ATOM     16  C   LIG A   1      -8.427   1.531 125.070  0.00  0.00    +0.060 C 
ATOM     17  C   LIG A   1      -8.899  -2.137 124.492  0.00  0.00    +0.005 C 
ATOM     18  C   LIG A   1      -9.044  -3.418 125.298  0.00  0.00    +0.008 C 
ATOM     19  C   LIG A   1      -8.960  -3.288 126.810  0.00  0.00    +0.075 C 
ATOM     20  C   LIG A   1      -8.109  -2.124 127.275  0.00  0.00    +0.137 C 
ATOM     21  O   LIG A   1      -7.366  -2.218 128.248  0.00  0.00    -0.297 OA
ENDROOT
BRANCH   5  22
ATOM     22  O   LIG A   1      -8.637   3.837 122.461  0.00  0.00    -0.364 OA
ATOM     23  H   LIG A   1      -7.783   4.241 122.193  0.00  0.00    +0.213 HD
ENDBRANCH   5  22
TORSDOF 1
ENDMDL
MODEL 5
REMARK VINA RESULT:      -7.4      2.331      3.296
REMARK  Name = NuBBE_2073
REMARK  2 active torsions:
REMARK  status: ('A' for Active; 'I' for Inactive)
REMARK    1  A    between atoms: C_3  and  C_4
REMARK    2  A    between atoms: C_5  and  O_6
REMARK                            x       y       z     vdW  Elec       q    Type
REMARK                         _______ _______ _______ _____ _____    ______ ____
ROOT
ATOM      1  O   LIG A   1     -10.046   0.091 122.759  0.00  0.00    -0.250 OA
ATOM      2  C   LIG A   1      -9.384   0.046 123.748  0.00  0.00    +0.319 C 
ATOM      3  C   LIG A   1      -8.409  -1.033 124.196  0.00  0.00    +0.125 C 
ATOM      4  C   LIG A   1      -7.172  -0.492 123.373  0.00  0.00    +0.029 C 
ATOM      5  C   LIG A   1      -8.394  -2.577 124.146  0.00  0.00    +0.183 C 
ATOM      6  C   LIG A   1      -8.927  -3.567 125.224  0.00  0.00    +0.066 C 
ATOM      7  C   LIG A   1      -8.623  -3.084 126.631  0.00  0.00    +0.015 C 
ATOM      8  C   LIG A   1      -7.795  -1.770 126.536  0.00  0.00    +0.005 C 
ATOM      9  C   LIG A   1      -6.554  -2.240 125.683  0.00  0.00    +0.170 C 
ATOM     10  O   LIG A   1      -6.972  -2.855 124.390  0.00  0.00    -0.347 OA
ATOM     11  C   LIG A   1      -7.469  -1.138 127.933  0.00  0.00    +0.008 C 
ATOM     12  C   LIG A   1      -8.214   0.195 128.193  0.00  0.00    +0.062 C 
ATOM     13  C   LIG A   1      -8.122   1.183 127.004  0.00  0.00    +0.056 C 
ATOM     14  C   LIG A   1      -9.001   0.583 125.924  0.00  0.00    +0.182 C 
ATOM     15  O   LIG A   1      -9.164   1.134 124.627  0.00  0.00    -0.461 OA
ATOM     16  C   LIG A   1      -8.680  -0.854 125.669  0.00  0.00    +0.060 C 
ATOM     17  C   LIG A   1      -7.811  -2.113 129.085  0.00  0.00    +0.005 C 
ATOM     18  C   LIG A   1      -7.729  -1.599 130.512  0.00  0.00    +0.008 C 
ATOM     19  C   LIG A   1      -8.054  -0.130 130.730  0.00  0.00    +0.075 C 
ATOM     20  C   LIG A   1      -7.753   0.745 129.530  0.00  0.00    +0.137 C 
ATOM     21  O   LIG A   1      -7.273   1.868 129.656  0.00  0.00    -0.297 OA
ENDROOT
BRANCH   5  22
ATOM     22  O   LIG A   1      -8.983  -3.011 122.944  0.00  0.00    -0.364 OA
ATOM     23  H   LIG A   1      -8.594  -2.429 122.255  0.00  0.00    +0.213 HD
ENDBRANCH   5  22
TORSDOF 1
ENDMDL
MODEL 6
REMARK VINA RESULT:      -7.3      3.531      5.773
REMARK  Name = NuBBE_2073
REMARK  2 active torsions:
REMARK  status: ('A' for Active; 'I' for Inactive)
REMARK    1  A    between atoms: C_3  and  C_4
REMARK    2  A    between atoms: C_5  and  O_6
REMARK                            x       y       z     vdW  Elec       q    Type
REMARK                         _______ _______ _______ _____ _____    ______ ____
ROOT
ATOM      1  O   LIG A   1      -6.176   3.890 127.524  0.00  0.00    -0.250 OA
ATOM      2  C   LIG A   1      -6.132   2.972 126.766  0.00  0.00    +0.319 C 
ATOM      3  C   LIG A   1      -6.642   2.891 125.335  0.00  0.00    +0.125 C 
ATOM      4  C   LIG A   1      -5.360   3.528 124.664  0.00  0.00    +0.029 C 
ATOM      5  C   LIG A   1      -7.893   3.411 124.594  0.00  0.00    +0.183 C 
ATOM      6  C   LIG A   1      -9.255   2.679 124.401  0.00  0.00    +0.066 C 
ATOM      7  C   LIG A   1      -9.064   1.196 124.133  0.00  0.00    +0.015 C 
ATOM      8  C   LIG A   1      -7.538   0.898 124.063  0.00  0.00    +0.005 C 
ATOM      9  C   LIG A   1      -7.080   1.872 122.910  0.00  0.00    +0.170 C 
ATOM     10  O   LIG A   1      -7.467   3.285 123.193  0.00  0.00    -0.347 OA
ATOM     11  C   LIG A   1      -7.211  -0.620 123.849  0.00  0.00    +0.008 C 
ATOM     12  C   LIG A   1      -6.557  -1.287 125.085  0.00  0.00    +0.062 C 
ATOM     13  C   LIG A   1      -5.391  -0.455 125.676  0.00  0.00    +0.056 C 
ATOM     14  C   LIG A   1      -6.054   0.743 126.329  0.00  0.00    +0.182 C 
ATOM     15  O   LIG A   1      -5.349   1.806 126.949  0.00  0.00    -0.461 OA
ATOM     16  C   LIG A   1      -7.009   1.429 125.408  0.00  0.00    +0.060 C 
ATOM     17  C   LIG A   1      -8.483  -1.424 123.486  0.00  0.00    +0.005 C 
ATOM     18  C   LIG A   1      -8.384  -2.939 123.422  0.00  0.00    +0.008 C 
ATOM     19  C   LIG A   1      -7.394  -3.600 124.367  0.00  0.00    +0.075 C 
ATOM     20  C   LIG A   1      -6.213  -2.721 124.726  0.00  0.00    +0.137 C 
ATOM     21  O   LIG A   1      -5.078  -3.177 124.827  0.00  0.00    -0.297 OA
ENDROOT
BRANCH   5  22
ATOM     22  O   LIG A   1      -8.241   4.678 125.096  0.00  0.00    -0.364 OA
ATOM     23  H   LIG A   1      -9.203   4.613 125.282  0.00  0.00    +0.213 HD
ENDBRANCH   5  22
TORSDOF 1
ENDMDL
MODEL 7
REMARK VINA RESULT:      -7.2      9.150     10.913
REMARK  Name = NuBBE_2073
REMARK  2 active torsions:
REMARK  status: ('A' for Active; 'I' for Inactive)
REMARK    1  A    between atoms: C_3  and  C_4
REMARK    2  A    between atoms: C_5  and  O_6
REMARK                            x       y       z     vdW  Elec       q    Type
REMARK                         _______ _______ _______ _____ _____    ______ ____
ROOT
ATOM      1  O   LIG A   1     -11.332   6.132 132.107  0.00  0.00    -0.250 OA
ATOM      2  C   LIG A   1     -10.177   6.015 131.839  0.00  0.00    +0.319 C 
ATOM      3  C   LIG A   1      -9.200   4.936 132.281  0.00  0.00    +0.125 C 
ATOM      4  C   LIG A   1      -9.585   3.893 131.155  0.00  0.00    +0.029 C 
ATOM      5  C   LIG A   1      -8.948   4.165 133.595  0.00  0.00    +0.183 C 
ATOM      6  C   LIG A   1      -7.983   4.557 134.754  0.00  0.00    +0.066 C 
ATOM      7  C   LIG A   1      -6.684   5.143 134.230  0.00  0.00    +0.015 C 
ATOM      8  C   LIG A   1      -6.707   5.092 132.676  0.00  0.00    +0.005 C 
ATOM      9  C   LIG A   1      -6.925   3.551 132.415  0.00  0.00    +0.170 C 
ATOM     10  O   LIG A   1      -8.139   3.037 133.114  0.00  0.00    -0.347 OA
ATOM     11  C   LIG A   1      -5.437   5.727 132.013  0.00  0.00    +0.008 C 
ATOM     12  C   LIG A   1      -5.734   7.048 131.261  0.00  0.00    +0.062 C 
ATOM     13  C   LIG A   1      -6.965   6.950 130.325  0.00  0.00    +0.056 C 
ATOM     14  C   LIG A   1      -8.162   6.889 131.255  0.00  0.00    +0.182 C 
ATOM     15  O   LIG A   1      -9.503   6.734 130.822  0.00  0.00    -0.461 OA
ATOM     16  C   LIG A   1      -8.000   5.848 132.315  0.00  0.00    +0.060 C 
ATOM     17  C   LIG A   1      -4.336   6.009 133.064  0.00  0.00    +0.005 C 
ATOM     18  C   LIG A   1      -3.108   6.790 132.628  0.00  0.00    +0.008 C 
ATOM     19  C   LIG A   1      -3.311   7.834 131.542  0.00  0.00    +0.075 C 
ATOM     20  C   LIG A   1      -4.452   7.516 130.597  0.00  0.00    +0.137 C 
ATOM     21  O   LIG A   1      -4.369   7.735 129.391  0.00  0.00    -0.297 OA
ENDROOT
BRANCH   5  22
ATOM     22  O   LIG A   1     -10.177   3.909 134.230  0.00  0.00    -0.364 OA
ATOM     23  H   LIG A   1     -10.837   4.401 133.695  0.00  0.00    +0.213 HD
ENDBRANCH   5  22
TORSDOF 1
ENDMDL
MODEL 8
REMARK VINA RESULT:      -7.1      3.313      4.889
REMARK  Name = NuBBE_2073
REMARK  2 active torsions:
REMARK  status: ('A' for Active; 'I' for Inactive)
REMARK    1  A    between atoms: C_3  and  C_4
REMARK    2  A    between atoms: C_5  and  O_6
REMARK                            x       y       z     vdW  Elec       q    Type
REMARK                         _______ _______ _______ _____ _____    ______ ____
ROOT
ATOM      1  O   LIG A   1      -8.363   4.801 127.990  0.00  0.00    -0.250 OA
ATOM      2  C   LIG A   1      -8.005   3.668 127.908  0.00  0.00    +0.319 C 
ATOM      3  C   LIG A   1      -7.696   2.852 126.662  0.00  0.00    +0.125 C 
ATOM      4  C   LIG A   1      -6.205   3.354 126.500  0.00  0.00    +0.029 C 
ATOM      5  C   LIG A   1      -8.327   2.728 125.257  0.00  0.00    +0.183 C 
ATOM      6  C   LIG A   1      -9.441   1.740 124.801  0.00  0.00    +0.066 C 
ATOM      7  C   LIG A   1      -9.260   0.365 125.420  0.00  0.00    +0.015 C 
ATOM      8  C   LIG A   1      -7.954   0.368 126.264  0.00  0.00    +0.005 C 
ATOM      9  C   LIG A   1      -6.882   0.786 125.185  0.00  0.00    +0.170 C 
ATOM     10  O   LIG A   1      -7.242   2.070 124.515  0.00  0.00    -0.347 OA
ATOM     11  C   LIG A   1      -7.689  -0.987 127.006  0.00  0.00    +0.008 C 
ATOM     12  C   LIG A   1      -7.836  -0.883 128.545  0.00  0.00    +0.062 C 
ATOM     13  C   LIG A   1      -7.088   0.334 129.144  0.00  0.00    +0.056 C 
ATOM     14  C   LIG A   1      -7.893   1.543 128.709  0.00  0.00    +0.182 C 
ATOM     15  O   LIG A   1      -7.532   2.886 128.990  0.00  0.00    -0.461 OA
ATOM     16  C   LIG A   1      -8.165   1.541 127.241  0.00  0.00    +0.060 C 
ATOM     17  C   LIG A   1      -8.644  -2.097 126.506  0.00  0.00    +0.005 C 
ATOM     18  C   LIG A   1      -8.651  -3.427 127.242  0.00  0.00    +0.008 C 
ATOM     19  C   LIG A   1      -8.360  -3.385 128.733  0.00  0.00    +0.075 C 
ATOM     20  C   LIG A   1      -7.474  -2.228 129.149  0.00  0.00    +0.137 C 
ATOM     21  O   LIG A   1      -6.601  -2.359 130.002  0.00  0.00    -0.297 OA
ENDROOT
BRANCH   5  22
ATOM     22  O   LIG A   1      -8.780   3.992 124.835  0.00  0.00    -0.364 OA
ATOM     23  H   LIG A   1      -9.138   4.409 125.649  0.00  0.00    +0.213 HD
ENDBRANCH   5  22
TORSDOF 1
ENDMDL
MODEL 9
REMARK VINA RESULT:      -7.1      2.648      5.427
REMARK  Name = NuBBE_2073
REMARK  2 active torsions:
REMARK  status: ('A' for Active; 'I' for Inactive)
REMARK    1  A    between atoms: C_3  and  C_4
REMARK    2  A    between atoms: C_5  and  O_6
REMARK                            x       y       z     vdW  Elec       q    Type
REMARK                         _______ _______ _______ _____ _____    ______ ____
ROOT
ATOM      1  O   LIG A   1      -9.671  -2.854 123.924  0.00  0.00    -0.250 OA
ATOM      2  C   LIG A   1      -8.833  -2.012 124.013  0.00  0.00    +0.319 C 
ATOM      3  C   LIG A   1      -7.700  -1.897 125.022  0.00  0.00    +0.125 C 
ATOM      4  C   LIG A   1      -6.694  -2.842 124.250  0.00  0.00    +0.029 C 
ATOM      5  C   LIG A   1      -7.559  -2.163 126.536  0.00  0.00    +0.183 C 
ATOM      6  C   LIG A   1      -7.790  -1.156 127.702  0.00  0.00    +0.066 C 
ATOM      7  C   LIG A   1      -7.268   0.229 127.361  0.00  0.00    +0.015 C 
ATOM      8  C   LIG A   1      -6.592   0.173 125.961  0.00  0.00    +0.005 C 
ATOM      9  C   LIG A   1      -5.498  -0.942 126.184  0.00  0.00    +0.170 C 
ATOM     10  O   LIG A   1      -6.098  -2.214 126.682  0.00  0.00    -0.347 OA
ATOM     11  C   LIG A   1      -6.064   1.564 125.469  0.00  0.00    +0.008 C 
ATOM     12  C   LIG A   1      -6.862   2.134 124.269  0.00  0.00    +0.062 C 
ATOM     13  C   LIG A   1      -7.083   1.096 123.140  0.00  0.00    +0.056 C 
ATOM     14  C   LIG A   1      -8.095   0.115 123.702  0.00  0.00    +0.182 C 
ATOM     15  O   LIG A   1      -8.547  -1.044 123.020  0.00  0.00    -0.461 OA
ATOM     16  C   LIG A   1      -7.702  -0.389 125.052  0.00  0.00    +0.060 C 
ATOM     17  C   LIG A   1      -6.095   2.612 126.607  0.00  0.00    +0.005 C 
ATOM     18  C   LIG A   1      -5.790   4.060 126.263  0.00  0.00    +0.008 C 
ATOM     19  C   LIG A   1      -6.196   4.533 124.876  0.00  0.00    +0.075 C 
ATOM     20  C   LIG A   1      -6.206   3.432 123.835  0.00  0.00    +0.137 C 
ATOM     21  O   LIG A   1      -5.811   3.627 122.689  0.00  0.00    -0.297 OA
ENDROOT
BRANCH   5  22
ATOM     22  O   LIG A   1      -8.325  -3.291 126.886  0.00  0.00    -0.364 OA
ATOM     23  H   LIG A   1      -7.845  -3.686 127.647  0.00  0.00    +0.213 HD
ENDBRANCH   5  22
TORSDOF 1
ENDMDL
