MODEL 1
REMARK VINA RESULT:      -7.0      0.000      0.000
REMARK  Name = NuBBE_2066
REMARK  8 active torsions:
REMARK  status: ('A' for Active; 'I' for Inactive)
REMARK    1  A    between atoms: C_1  and  O_2
REMARK    2  A    between atoms: O_2  and  C_3
REMARK    3  A    between atoms: C_13  and  O_15
REMARK    4  A    between atoms: O_15  and  C_16
REMARK    5  A    between atoms: C_19  and  O_20
REMARK    6  A    between atoms: O_20  and  C_21
REMARK    7  A    between atoms: C_22  and  O_23
REMARK    8  A    between atoms: O_23  and  C_24
REMARK                            x       y       z     vdW  Elec       q    Type
REMARK                         _______ _______ _______ _____ _____    ______ ____
ROOT
ATOM      1  C   LIG A   1      -5.957  -2.225 123.659  0.00  0.00    +0.147 C 
ATOM      2  C   LIG A   1      -7.281  -2.931 123.553  0.00  0.00    +0.005 C 
ATOM      3  C   LIG A   1      -8.129  -3.093 124.583  0.00  0.00    +0.008 C 
ATOM      4  C   LIG A   1      -7.810  -2.529 125.856  0.00  0.00    +0.009 C 
ATOM      5  C   LIG A   1      -8.264  -2.985 127.035  0.00  0.00    +0.033 C 
ATOM      6  C   LIG A   1      -7.498  -2.363 128.155  0.00  0.00    +0.160 C 
ATOM      7  N   LIG A   1      -6.280  -1.712 127.511  0.00  0.00    +0.233 N 
ATOM      8  O   LIG A   1      -5.240  -2.654 127.609  0.00  0.00    -0.774 OA
ATOM      9  C   LIG A   1      -5.753  -0.488 128.185  0.00  0.00    +0.168 C 
ATOM     10  C   LIG A   1      -6.700   0.691 128.215  0.00  0.00    +0.193 C 
ATOM     11  C   LIG A   1      -7.240   0.973 126.832  0.00  0.00    -0.001 A 
ATOM     12  C   LIG A   1      -7.710   2.282 126.589  0.00  0.00    +0.056 A 
ATOM     13  C   LIG A   1      -8.312   2.646 125.385  0.00  0.00    +0.162 A 
ATOM     14  C   LIG A   1      -8.458   1.674 124.391  0.00  0.00    +0.162 A 
ATOM     15  C   LIG A   1      -7.983   0.367 124.627  0.00  0.00    +0.059 A 
ATOM     16  C   LIG A   1      -7.343  -0.014 125.832  0.00  0.00    +0.017 A 
ATOM     17  C   LIG A   1      -6.737  -1.446 126.018  0.00  0.00    +0.044 C 
ATOM     18  C   LIG A   1      -5.556  -1.655 125.036  0.00  0.00    +0.103 C 
ENDROOT
BRANCH   1  20
ATOM     19  C   LIG A   1      -4.602  -4.212 123.931  0.00  0.00    +0.194 C 
ATOM     20  O   LIG A   1      -4.920  -3.071 123.131  0.00  0.00    -0.376 OA
ENDBRANCH   1  20
BRANCH  10  21
ATOM     21  O   LIG A   1      -7.824   0.520 129.083  0.00  0.00    -0.370 OA
ATOM     22  C   LIG A   1      -7.541   0.679 130.468  0.00  0.00    +0.195 C 
ENDBRANCH  10  21
BRANCH  13  23
ATOM     23  O   LIG A   1      -8.861   3.883 125.191  0.00  0.00    -0.491 OA
ATOM     24  C   LIG A   1      -8.198   4.991 125.783  0.00  0.00    +0.277 C 
ENDBRANCH  13  23
BRANCH  14  25
ATOM     25  O   LIG A   1      -9.074   1.836 123.173  0.00  0.00    -0.491 OA
ATOM     26  C   LIG A   1     -10.023   0.842 122.792  0.00  0.00    +0.277 C 
ENDBRANCH  14  25
TORSDOF 4
ENDMDL
MODEL 2
REMARK VINA RESULT:      -6.9      1.817      2.341
REMARK  Name = NuBBE_2066
REMARK  8 active torsions:
REMARK  status: ('A' for Active; 'I' for Inactive)
REMARK    1  A    between atoms: C_1  and  O_2
REMARK    2  A    between atoms: O_2  and  C_3
REMARK    3  A    between atoms: C_13  and  O_15
REMARK    4  A    between atoms: O_15  and  C_16
REMARK    5  A    between atoms: C_19  and  O_20
REMARK    6  A    between atoms: O_20  and  C_21
REMARK    7  A    between atoms: C_22  and  O_23
REMARK    8  A    between atoms: O_23  and  C_24
REMARK                            x       y       z     vdW  Elec       q    Type
REMARK                         _______ _______ _______ _____ _____    ______ ____
ROOT
ATOM      1  C   LIG A   1      -6.266  -2.310 125.481  0.00  0.00    +0.147 C 
ATOM      2  C   LIG A   1      -7.628  -2.900 125.237  0.00  0.00    +0.005 C 
ATOM      3  C   LIG A   1      -8.491  -3.223 126.216  0.00  0.00    +0.008 C 
ATOM      4  C   LIG A   1      -8.149  -2.953 127.576  0.00  0.00    +0.009 C 
ATOM      5  C   LIG A   1      -8.637  -3.617 128.638  0.00  0.00    +0.033 C 
ATOM      6  C   LIG A   1      -7.844  -3.286 129.858  0.00  0.00    +0.160 C 
ATOM      7  N   LIG A   1      -6.586  -2.588 129.357  0.00  0.00    +0.233 N 
ATOM      8  O   LIG A   1      -5.603  -3.589 129.252  0.00  0.00    -0.774 OA
ATOM      9  C   LIG A   1      -5.993  -1.563 130.268  0.00  0.00    +0.168 C 
ATOM     10  C   LIG A   1      -6.870  -0.362 130.546  0.00  0.00    +0.193 C 
ATOM     11  C   LIG A   1      -7.384   0.231 129.254  0.00  0.00    -0.001 A 
ATOM     12  C   LIG A   1      -7.775   1.587 129.290  0.00  0.00    +0.056 A 
ATOM     13  C   LIG A   1      -8.346   2.227 128.190  0.00  0.00    +0.162 A 
ATOM     14  C   LIG A   1      -8.541   1.492 127.018  0.00  0.00    +0.162 A 
ATOM     15  C   LIG A   1      -8.145   0.139 126.975  0.00  0.00    +0.059 A 
ATOM     16  C   LIG A   1      -7.536  -0.520 128.071  0.00  0.00    +0.017 A 
ATOM     17  C   LIG A   1      -7.016  -1.992 127.953  0.00  0.00    +0.044 C 
ATOM     18  C   LIG A   1      -5.843  -2.062 126.944  0.00  0.00    +0.103 C 
ENDROOT
BRANCH   1  20
ATOM     19  C   LIG A   1      -5.257  -2.914 123.365  0.00  0.00    +0.194 C 
ATOM     20  O   LIG A   1      -5.276  -3.088 124.784  0.00  0.00    -0.376 OA
ENDBRANCH   1  20
BRANCH  10  21
ATOM     21  O   LIG A   1      -8.009  -0.644 131.366  0.00  0.00    -0.370 OA
ATOM     22  C   LIG A   1      -7.707  -0.989 132.712  0.00  0.00    +0.195 C 
ENDBRANCH  10  21
BRANCH  13  23
ATOM     23  O   LIG A   1      -8.821   3.507 128.260  0.00  0.00    -0.491 OA
ATOM     24  C   LIG A   1      -8.448   4.280 129.392  0.00  0.00    +0.277 C 
ENDBRANCH  13  23
BRANCH  14  25
ATOM     25  O   LIG A   1      -9.138   1.938 125.863  0.00  0.00    -0.491 OA
ATOM     26  C   LIG A   1      -9.493   0.952 124.896  0.00  0.00    +0.277 C 
ENDBRANCH  14  25
TORSDOF 4
ENDMDL
MODEL 3
REMARK VINA RESULT:      -6.6      2.381      3.978
REMARK  Name = NuBBE_2066
REMARK  8 active torsions:
REMARK  status: ('A' for Active; 'I' for Inactive)
REMARK    1  A    between atoms: C_1  and  O_2
REMARK    2  A    between atoms: O_2  and  C_3
REMARK    3  A    between atoms: C_13  and  O_15
REMARK    4  A    between atoms: O_15  and  C_16
REMARK    5  A    between atoms: C_19  and  O_20
REMARK    6  A    between atoms: O_20  and  C_21
REMARK    7  A    between atoms: C_22  and  O_23
REMARK    8  A    between atoms: O_23  and  C_24
REMARK                            x       y       z     vdW  Elec       q    Type
REMARK                         _______ _______ _______ _____ _____    ______ ____
ROOT
ATOM      1  C   LIG A   1      -5.560  -2.548 128.490  0.00  0.00    +0.147 C 
ATOM      2  C   LIG A   1      -6.620  -3.310 129.239  0.00  0.00    +0.005 C 
ATOM      3  C   LIG A   1      -7.581  -2.728 129.976  0.00  0.00    +0.008 C 
ATOM      4  C   LIG A   1      -7.664  -1.302 130.030  0.00  0.00    +0.009 C 
ATOM      5  C   LIG A   1      -8.207  -0.602 131.040  0.00  0.00    +0.033 C 
ATOM      6  C   LIG A   1      -7.851   0.842 130.912  0.00  0.00    +0.160 C 
ATOM      7  N   LIG A   1      -6.735   0.902 129.876  0.00  0.00    +0.233 N 
ATOM      8  O   LIG A   1      -5.530   0.892 130.603  0.00  0.00    -0.774 OA
ATOM      9  C   LIG A   1      -6.671   2.143 129.047  0.00  0.00    +0.168 C 
ATOM     10  C   LIG A   1      -7.871   2.388 128.159  0.00  0.00    +0.193 C 
ATOM     11  C   LIG A   1      -8.188   1.156 127.344  0.00  0.00    -0.001 A 
ATOM     12  C   LIG A   1      -8.916   1.356 126.150  0.00  0.00    +0.056 A 
ATOM     13  C   LIG A   1      -9.346   0.294 125.354  0.00  0.00    +0.162 A 
ATOM     14  C   LIG A   1      -9.051  -1.009 125.762  0.00  0.00    +0.162 A 
ATOM     15  C   LIG A   1      -8.318  -1.212 126.950  0.00  0.00    +0.059 A 
ATOM     16  C   LIG A   1      -7.846  -0.147 127.756  0.00  0.00    +0.017 A 
ATOM     17  C   LIG A   1      -6.949  -0.408 129.012  0.00  0.00    +0.044 C 
ATOM     18  C   LIG A   1      -5.587  -1.008 128.577  0.00  0.00    +0.103 C 
ENDROOT
BRANCH   1  20
ATOM     19  C   LIG A   1      -3.627  -2.400 129.939  0.00  0.00    +0.194 C 
ATOM     20  O   LIG A   1      -4.263  -3.061 128.843  0.00  0.00    -0.376 OA
ENDBRANCH   1  20
BRANCH  10  21
ATOM     21  O   LIG A   1      -9.061   2.748 128.867  0.00  0.00    -0.370 OA
ATOM     22  C   LIG A   1      -8.988   3.979 129.575  0.00  0.00    +0.195 C 
ENDBRANCH  10  21
BRANCH  13  23
ATOM     23  O   LIG A   1     -10.140   0.484 124.257  0.00  0.00    -0.491 OA
ATOM     24  C   LIG A   1      -9.762   1.507 123.347  0.00  0.00    +0.277 C 
ENDBRANCH  13  23
BRANCH  14  25
ATOM     25  O   LIG A   1      -9.442  -2.170 125.139  0.00  0.00    -0.491 OA
ATOM     26  C   LIG A   1      -8.562  -2.701 124.151  0.00  0.00    +0.277 C 
ENDBRANCH  14  25
TORSDOF 4
ENDMDL
MODEL 4
REMARK VINA RESULT:      -6.5      2.630      4.983
REMARK  Name = NuBBE_2066
REMARK  8 active torsions:
REMARK  status: ('A' for Active; 'I' for Inactive)
REMARK    1  A    between atoms: C_1  and  O_2
REMARK    2  A    between atoms: O_2  and  C_3
REMARK    3  A    between atoms: C_13  and  O_15
REMARK    4  A    between atoms: O_15  and  C_16
REMARK    5  A    between atoms: C_19  and  O_20
REMARK    6  A    between atoms: O_20  and  C_21
REMARK    7  A    between atoms: C_22  and  O_23
REMARK    8  A    between atoms: O_23  and  C_24
REMARK                            x       y       z     vdW  Elec       q    Type
REMARK                         _______ _______ _______ _____ _____    ______ ____
ROOT
ATOM      1  C   LIG A   1      -7.253  -1.432 127.684  0.00  0.00    +0.147 C 
ATOM      2  C   LIG A   1      -6.079  -2.258 127.234  0.00  0.00    +0.005 C 
ATOM      3  C   LIG A   1      -5.608  -2.267 125.976  0.00  0.00    +0.008 C 
ATOM      4  C   LIG A   1      -6.198  -1.414 124.994  0.00  0.00    +0.009 C 
ATOM      5  C   LIG A   1      -6.187  -1.642 123.670  0.00  0.00    +0.033 C 
ATOM      6  C   LIG A   1      -7.146  -0.728 122.984  0.00  0.00    +0.160 C 
ATOM      7  N   LIG A   1      -8.007  -0.126 124.088  0.00  0.00    +0.233 N 
ATOM      8  O   LIG A   1      -9.160  -0.929 124.162  0.00  0.00    -0.774 OA
ATOM      9  C   LIG A   1      -8.517   1.256 123.847  0.00  0.00    +0.168 C 
ATOM     10  C   LIG A   1      -7.454   2.326 123.727  0.00  0.00    +0.193 C 
ATOM     11  C   LIG A   1      -6.494   2.252 124.892  0.00  0.00    -0.001 A 
ATOM     12  C   LIG A   1      -5.780   3.430 125.201  0.00  0.00    +0.056 A 
ATOM     13  C   LIG A   1      -4.802   3.470 126.194  0.00  0.00    +0.162 A 
ATOM     14  C   LIG A   1      -4.518   2.297 126.899  0.00  0.00    +0.162 A 
ATOM     15  C   LIG A   1      -5.234   1.119 126.598  0.00  0.00    +0.059 A 
ATOM     16  C   LIG A   1      -6.251   1.066 125.614  0.00  0.00    +0.017 A 
ATOM     17  C   LIG A   1      -7.094  -0.232 125.379  0.00  0.00    +0.044 C 
ATOM     18  C   LIG A   1      -7.950  -0.543 126.633  0.00  0.00    +0.103 C 
ENDROOT
BRANCH   1  20
ATOM     19  C   LIG A   1      -8.668  -3.393 127.593  0.00  0.00    +0.194 C 
ATOM     20  O   LIG A   1      -8.203  -2.277 128.356  0.00  0.00    -0.376 OA
ENDBRANCH   1  20
BRANCH  10  21
ATOM     21  O   LIG A   1      -6.675   2.248 122.529  0.00  0.00    -0.370 OA
ATOM     22  C   LIG A   1      -6.777   3.380 121.675  0.00  0.00    +0.195 C 
ENDBRANCH  10  21
BRANCH  13  23
ATOM     23  O   LIG A   1      -4.040   4.582 126.420  0.00  0.00    -0.491 OA
ATOM     24  C   LIG A   1      -4.410   5.418 127.507  0.00  0.00    +0.277 C 
ENDBRANCH  13  23
BRANCH  14  25
ATOM     25  O   LIG A   1      -3.553   2.136 127.864  0.00  0.00    -0.491 OA
ATOM     26  C   LIG A   1      -3.999   2.048 129.215  0.00  0.00    +0.277 C 
ENDBRANCH  14  25
TORSDOF 4
ENDMDL
MODEL 5
REMARK VINA RESULT:      -6.4      2.292      5.099
REMARK  Name = NuBBE_2066
REMARK  8 active torsions:
REMARK  status: ('A' for Active; 'I' for Inactive)
REMARK    1  A    between atoms: C_1  and  O_2
REMARK    2  A    between atoms: O_2  and  C_3
REMARK    3  A    between atoms: C_13  and  O_15
REMARK    4  A    between atoms: O_15  and  C_16
REMARK    5  A    between atoms: C_19  and  O_20
REMARK    6  A    between atoms: O_20  and  C_21
REMARK    7  A    between atoms: C_22  and  O_23
REMARK    8  A    between atoms: O_23  and  C_24
REMARK                            x       y       z     vdW  Elec       q    Type
REMARK                         _______ _______ _______ _____ _____    ______ ____
ROOT
ATOM      1  C   LIG A   1      -8.949  -2.673 125.550  0.00  0.00    +0.147 C 
ATOM      2  C   LIG A   1      -7.573  -3.258 125.384  0.00  0.00    +0.005 C 
ATOM      3  C   LIG A   1      -6.439  -2.544 125.477  0.00  0.00    +0.008 C 
ATOM      4  C   LIG A   1      -6.503  -1.155 125.805  0.00  0.00    +0.009 C 
ATOM      5  C   LIG A   1      -5.575  -0.243 125.472  0.00  0.00    +0.033 C 
ATOM      6  C   LIG A   1      -6.105   1.134 125.700  0.00  0.00    +0.160 C 
ATOM      7  N   LIG A   1      -7.607   0.972 125.902  0.00  0.00    +0.233 N 
ATOM      8  O   LIG A   1      -8.193   1.187 124.641  0.00  0.00    -0.774 OA
ATOM      9  C   LIG A   1      -8.262   1.964 126.804  0.00  0.00    +0.168 C 
ATOM     10  C   LIG A   1      -7.796   1.936 128.243  0.00  0.00    +0.193 C 
ATOM     11  C   LIG A   1      -7.847   0.528 128.789  0.00  0.00    -0.001 A 
ATOM     12  C   LIG A   1      -7.934   0.394 130.192  0.00  0.00    +0.056 A 
ATOM     13  C   LIG A   1      -7.901  -0.848 130.825  0.00  0.00    +0.162 A 
ATOM     14  C   LIG A   1      -7.768  -1.996 130.038  0.00  0.00    +0.162 A 
ATOM     15  C   LIG A   1      -7.688  -1.867 128.636  0.00  0.00    +0.059 A 
ATOM     16  C   LIG A   1      -7.750  -0.617 127.972  0.00  0.00    +0.017 A 
ATOM     17  C   LIG A   1      -7.761  -0.521 126.410  0.00  0.00    +0.044 C 
ATOM     18  C   LIG A   1      -9.055  -1.162 125.847  0.00  0.00    +0.103 C 
ENDROOT
BRANCH   1  20
ATOM     19  C   LIG A   1      -9.203  -2.713 123.144  0.00  0.00    +0.194 C 
ATOM     20  O   LIG A   1      -9.762  -3.033 124.420  0.00  0.00    -0.376 OA
ENDBRANCH   1  20
BRANCH  10  21
ATOM     21  O   LIG A   1      -6.464   2.419 128.438  0.00  0.00    -0.370 OA
ATOM     22  C   LIG A   1      -6.333   3.835 128.424  0.00  0.00    +0.195 C 
ENDBRANCH  10  21
BRANCH  13  23
ATOM     23  O   LIG A   1      -7.878  -0.969 132.187  0.00  0.00    -0.491 OA
ATOM     24  C   LIG A   1      -6.643  -0.722 132.844  0.00  0.00    +0.277 C 
ENDBRANCH  13  23
BRANCH  14  25
ATOM     25  O   LIG A   1      -7.659  -3.289 130.490  0.00  0.00    -0.491 OA
ATOM     26  C   LIG A   1      -6.386  -3.916 130.354  0.00  0.00    +0.277 C 
ENDBRANCH  14  25
TORSDOF 4
ENDMDL
MODEL 6
REMARK VINA RESULT:      -6.2      6.439      8.425
REMARK  Name = NuBBE_2066
REMARK  8 active torsions:
REMARK  status: ('A' for Active; 'I' for Inactive)
REMARK    1  A    between atoms: C_1  and  O_2
REMARK    2  A    between atoms: O_2  and  C_3
REMARK    3  A    between atoms: C_13  and  O_15
REMARK    4  A    between atoms: O_15  and  C_16
REMARK    5  A    between atoms: C_19  and  O_20
REMARK    6  A    between atoms: O_20  and  C_21
REMARK    7  A    between atoms: C_22  and  O_23
REMARK    8  A    between atoms: O_23  and  C_24
REMARK                            x       y       z     vdW  Elec       q    Type
REMARK                         _______ _______ _______ _____ _____    ______ ____
ROOT
ATOM      1  C   LIG A   1      -9.841   5.588 129.824  0.00  0.00    +0.147 C 
ATOM      2  C   LIG A   1      -9.698   6.540 130.980  0.00  0.00    +0.005 C 
ATOM      3  C   LIG A   1      -9.231   6.187 132.189  0.00  0.00    +0.008 C 
ATOM      4  C   LIG A   1      -8.784   4.848 132.410  0.00  0.00    +0.009 C 
ATOM      5  C   LIG A   1      -8.758   4.233 133.604  0.00  0.00    +0.033 C 
ATOM      6  C   LIG A   1      -8.532   2.769 133.422  0.00  0.00    +0.160 C 
ATOM      7  N   LIG A   1      -8.754   2.497 131.939  0.00  0.00    +0.233 N 
ATOM      8  O   LIG A   1     -10.095   2.086 131.818  0.00  0.00    -0.774 OA
ATOM      9  C   LIG A   1      -7.957   1.383 131.346  0.00  0.00    +0.168 C 
ATOM     10  C   LIG A   1      -6.458   1.585 131.357  0.00  0.00    +0.193 C 
ATOM     11  C   LIG A   1      -6.100   2.933 130.776  0.00  0.00    -0.001 A 
ATOM     12  C   LIG A   1      -4.794   3.075 130.260  0.00  0.00    +0.056 A 
ATOM     13  C   LIG A   1      -4.312   4.292 129.776  0.00  0.00    +0.162 A 
ATOM     14  C   LIG A   1      -5.154   5.406 129.814  0.00  0.00    +0.162 A 
ATOM     15  C   LIG A   1      -6.463   5.267 130.322  0.00  0.00    +0.059 A 
ATOM     16  C   LIG A   1      -6.980   4.034 130.790  0.00  0.00    +0.017 A 
ATOM     17  C   LIG A   1      -8.470   3.896 131.251  0.00  0.00    +0.044 C 
ATOM     18  C   LIG A   1      -9.421   4.120 130.048  0.00  0.00    +0.103 C 
ENDROOT
BRANCH   1  20
ATOM     19  C   LIG A   1     -11.553   6.946 128.784  0.00  0.00    +0.194 C 
ATOM     20  O   LIG A   1     -11.179   5.667 129.302  0.00  0.00    -0.376 OA
ENDBRANCH   1  20
BRANCH  10  21
ATOM     21  O   LIG A   1      -5.864   1.512 132.657  0.00  0.00    -0.370 OA
ATOM     22  C   LIG A   1      -5.780   0.202 133.204  0.00  0.00    +0.195 C 
ENDBRANCH  10  21
BRANCH  13  23
ATOM     23  O   LIG A   1      -3.015   4.452 129.376  0.00  0.00    -0.491 OA
ATOM     24  C   LIG A   1      -2.720   4.216 128.006  0.00  0.00    +0.277 C 
ENDBRANCH  13  23
BRANCH  14  25
ATOM     25  O   LIG A   1      -4.832   6.688 129.437  0.00  0.00    -0.491 OA
ATOM     26  C   LIG A   1      -4.382   7.569 130.463  0.00  0.00    +0.277 C 
ENDBRANCH  14  25
TORSDOF 4
ENDMDL
MODEL 7
REMARK VINA RESULT:      -6.2      2.238      4.306
REMARK  Name = NuBBE_2066
REMARK  8 active torsions:
REMARK  status: ('A' for Active; 'I' for Inactive)
REMARK    1  A    between atoms: C_1  and  O_2
REMARK    2  A    between atoms: O_2  and  C_3
REMARK    3  A    between atoms: C_13  and  O_15
REMARK    4  A    between atoms: O_15  and  C_16
REMARK    5  A    between atoms: C_19  and  O_20
REMARK    6  A    between atoms: O_20  and  C_21
REMARK    7  A    between atoms: C_22  and  O_23
REMARK    8  A    between atoms: O_23  and  C_24
REMARK                            x       y       z     vdW  Elec       q    Type
REMARK                         _______ _______ _______ _____ _____    ______ ____
ROOT
ATOM      1  C   LIG A   1      -6.068  -2.534 128.843  0.00  0.00    +0.147 C 
ATOM      2  C   LIG A   1      -7.291  -2.650 129.711  0.00  0.00    +0.005 C 
ATOM      3  C   LIG A   1      -8.057  -1.606 130.071  0.00  0.00    +0.008 C 
ATOM      4  C   LIG A   1      -7.752  -0.302 129.573  0.00  0.00    +0.009 C 
ATOM      5  C   LIG A   1      -8.082   0.850 130.182  0.00  0.00    +0.033 C 
ATOM      6  C   LIG A   1      -7.349   1.989 129.555  0.00  0.00    +0.160 C 
ATOM      7  N   LIG A   1      -6.262   1.358 128.694  0.00  0.00    +0.233 N 
ATOM      8  O   LIG A   1      -5.102   1.332 129.491  0.00  0.00    -0.774 OA
ATOM      9  C   LIG A   1      -5.868   2.116 127.469  0.00  0.00    +0.168 C 
ATOM     10  C   LIG A   1      -6.959   2.286 126.436  0.00  0.00    +0.193 C 
ATOM     11  C   LIG A   1      -7.601   0.955 126.118  0.00  0.00    -0.001 A 
ATOM     12  C   LIG A   1      -8.251   0.846 124.870  0.00  0.00    +0.056 A 
ATOM     13  C   LIG A   1      -8.956  -0.298 124.494  0.00  0.00    +0.162 A 
ATOM     14  C   LIG A   1      -9.022  -1.366 125.393  0.00  0.00    +0.162 A 
ATOM     15  C   LIG A   1      -8.367  -1.265 126.638  0.00  0.00    +0.059 A 
ATOM     16  C   LIG A   1      -7.622  -0.124 127.025  0.00  0.00    +0.017 A 
ATOM     17  C   LIG A   1      -6.825  -0.087 128.372  0.00  0.00    +0.044 C 
ATOM     18  C   LIG A   1      -5.677  -1.129 128.338  0.00  0.00    +0.103 C 
ENDROOT
BRANCH   1  20
ATOM     19  C   LIG A   1      -5.296  -4.301 130.306  0.00  0.00    +0.194 C 
ATOM     20  O   LIG A   1      -4.956  -3.174 129.495  0.00  0.00    -0.376 OA
ENDBRANCH   1  20
BRANCH  10  21
ATOM     21  O   LIG A   1      -8.006   3.179 126.828  0.00  0.00    -0.370 OA
ATOM     22  C   LIG A   1      -8.017   4.426 126.146  0.00  0.00    +0.195 C 
ENDBRANCH  10  21
BRANCH  13  23
ATOM     23  O   LIG A   1      -9.672  -0.361 123.332  0.00  0.00    -0.491 OA
ATOM     24  C   LIG A   1     -10.117   0.867 122.772  0.00  0.00    +0.277 C 
ENDBRANCH  13  23
BRANCH  14  25
ATOM     25  O   LIG A   1      -9.715  -2.541 125.217  0.00  0.00    -0.491 OA
ATOM     26  C   LIG A   1      -9.200  -3.456 124.253  0.00  0.00    +0.277 C 
ENDBRANCH  14  25
TORSDOF 4
ENDMDL
MODEL 8
REMARK VINA RESULT:      -6.1      2.155      6.011
REMARK  Name = NuBBE_2066
REMARK  8 active torsions:
REMARK  status: ('A' for Active; 'I' for Inactive)
REMARK    1  A    between atoms: C_1  and  O_2
REMARK    2  A    between atoms: O_2  and  C_3
REMARK    3  A    between atoms: C_13  and  O_15
REMARK    4  A    between atoms: O_15  and  C_16
REMARK    5  A    between atoms: C_19  and  O_20
REMARK    6  A    between atoms: O_20  and  C_21
REMARK    7  A    between atoms: C_22  and  O_23
REMARK    8  A    between atoms: O_23  and  C_24
REMARK                            x       y       z     vdW  Elec       q    Type
REMARK                         _______ _______ _______ _____ _____    ______ ____
ROOT
ATOM      1  C   LIG A   1      -5.871   2.561 126.316  0.00  0.00    +0.147 C 
ATOM      2  C   LIG A   1      -7.129   3.313 126.654  0.00  0.00    +0.005 C 
ATOM      3  C   LIG A   1      -8.351   2.963 126.220  0.00  0.00    +0.008 C 
ATOM      4  C   LIG A   1      -8.509   1.782 125.432  0.00  0.00    +0.009 C 
ATOM      5  C   LIG A   1      -9.506   1.569 124.557  0.00  0.00    +0.033 C 
ATOM      6  C   LIG A   1      -9.193   0.387 123.701  0.00  0.00    +0.160 C 
ATOM      7  N   LIG A   1      -7.716   0.090 123.930  0.00  0.00    +0.233 N 
ATOM      8  O   LIG A   1      -7.024   0.750 122.898  0.00  0.00    -0.774 OA
ATOM      9  C   LIG A   1      -7.305  -1.341 123.813  0.00  0.00    +0.168 C 
ATOM     10  C   LIG A   1      -7.924  -2.276 124.829  0.00  0.00    +0.193 C 
ATOM     11  C   LIG A   1      -7.750  -1.730 126.227  0.00  0.00    -0.001 A 
ATOM     12  C   LIG A   1      -7.805  -2.664 127.285  0.00  0.00    +0.056 A 
ATOM     13  C   LIG A   1      -7.746  -2.278 128.624  0.00  0.00    +0.162 A 
ATOM     14  C   LIG A   1      -7.635  -0.917 128.922  0.00  0.00    +0.162 A 
ATOM     15  C   LIG A   1      -7.571   0.019 127.869  0.00  0.00    +0.059 A 
ATOM     16  C   LIG A   1      -7.600  -0.356 126.503  0.00  0.00    +0.017 A 
ATOM     17  C   LIG A   1      -7.424   0.702 125.362  0.00  0.00    +0.044 C 
ATOM     18  C   LIG A   1      -6.001   1.313 125.419  0.00  0.00    +0.103 C 
ENDROOT
BRANCH   1  20
ATOM     19  C   LIG A   1      -5.265   4.123 124.570  0.00  0.00    +0.194 C 
ATOM     20  O   LIG A   1      -4.894   3.475 125.789  0.00  0.00    -0.376 OA
ENDBRANCH   1  20
BRANCH  10  21
ATOM     21  O   LIG A   1      -9.322  -2.510 124.637  0.00  0.00    -0.370 OA
ATOM     22  C   LIG A   1      -9.641  -3.366 123.547  0.00  0.00    +0.195 C 
ENDBRANCH  10  21
BRANCH  13  23
ATOM     23  O   LIG A   1      -7.907  -3.172 129.645  0.00  0.00    -0.491 OA
ATOM     24  C   LIG A   1      -6.737  -3.795 130.158  0.00  0.00    +0.277 C 
ENDBRANCH  13  23
BRANCH  14  25
ATOM     25  O   LIG A   1      -7.622  -0.353 130.175  0.00  0.00    -0.491 OA
ATOM     26  C   LIG A   1      -6.346  -0.043 130.730  0.00  0.00    +0.277 C 
ENDBRANCH  14  25
TORSDOF 4
ENDMDL
MODEL 9
REMARK VINA RESULT:      -6.1      5.765      8.934
REMARK  Name = NuBBE_2066
REMARK  8 active torsions:
REMARK  status: ('A' for Active; 'I' for Inactive)
REMARK    1  A    between atoms: C_1  and  O_2
REMARK    2  A    between atoms: O_2  and  C_3
REMARK    3  A    between atoms: C_13  and  O_15
REMARK    4  A    between atoms: O_15  and  C_16
REMARK    5  A    between atoms: C_19  and  O_20
REMARK    6  A    between atoms: O_20  and  C_21
REMARK    7  A    between atoms: C_22  and  O_23
REMARK    8  A    between atoms: O_23  and  C_24
REMARK                            x       y       z     vdW  Elec       q    Type
REMARK                         _______ _______ _______ _____ _____    ______ ____
ROOT
ATOM      1  C   LIG A   1      -3.746   5.419 132.496  0.00  0.00    +0.147 C 
ATOM      2  C   LIG A   1      -3.697   6.917 132.359  0.00  0.00    +0.005 C 
ATOM      3  C   LIG A   1      -3.794   7.565 131.186  0.00  0.00    +0.008 C 
ATOM      4  C   LIG A   1      -4.010   6.824 129.984  0.00  0.00    +0.009 C 
ATOM      5  C   LIG A   1      -3.656   7.232 128.754  0.00  0.00    +0.033 C 
ATOM      6  C   LIG A   1      -3.749   6.097 127.790  0.00  0.00    +0.160 C 
ATOM      7  N   LIG A   1      -3.884   4.841 128.642  0.00  0.00    +0.233 N 
ATOM      8  O   LIG A   1      -2.582   4.329 128.787  0.00  0.00    -0.774 OA
ATOM      9  C   LIG A   1      -4.672   3.721 128.046  0.00  0.00    +0.168 C 
ATOM     10  C   LIG A   1      -6.131   4.024 127.786  0.00  0.00    +0.193 C 
ATOM     11  C   LIG A   1      -6.781   4.602 129.022  0.00  0.00    -0.001 A 
ATOM     12  C   LIG A   1      -8.183   4.473 129.121  0.00  0.00    +0.056 A 
ATOM     13  C   LIG A   1      -8.912   5.039 130.167  0.00  0.00    +0.162 A 
ATOM     14  C   LIG A   1      -8.224   5.764 131.143  0.00  0.00    +0.162 A 
ATOM     15  C   LIG A   1      -6.822   5.889 131.053  0.00  0.00    +0.059 A 
ATOM     16  C   LIG A   1      -6.061   5.297 130.015  0.00  0.00    +0.017 A 
ATOM     17  C   LIG A   1      -4.497   5.371 130.003  0.00  0.00    +0.044 C 
ATOM     18  C   LIG A   1      -3.920   4.586 131.209  0.00  0.00    +0.103 C 
ENDROOT
BRANCH   1  20
ATOM     19  C   LIG A   1      -1.370   4.962 132.532  0.00  0.00    +0.194 C 
ATOM     20  O   LIG A   1      -2.606   4.971 133.250  0.00  0.00    -0.376 OA
ENDBRANCH   1  20
BRANCH  10  21
ATOM     21  O   LIG A   1      -6.358   4.948 126.716  0.00  0.00    -0.370 OA
ATOM     22  C   LIG A   1      -6.787   4.356 125.496  0.00  0.00    +0.195 C 
ENDBRANCH  10  21
BRANCH  13  23
ATOM     23  O   LIG A   1     -10.278   5.003 130.204  0.00  0.00    -0.491 OA
ATOM     24  C   LIG A   1     -10.891   3.752 130.481  0.00  0.00    +0.277 C 
ENDBRANCH  13  23
BRANCH  14  25
ATOM     25  O   LIG A   1      -8.779   6.435 132.207  0.00  0.00    -0.491 OA
ATOM     26  C   LIG A   1      -8.623   5.845 133.495  0.00  0.00    +0.277 C 
ENDBRANCH  14  25
TORSDOF 4
ENDMDL
