MODEL 1
REMARK VINA RESULT:      -6.0      0.000      0.000
REMARK  Name = NuBBE_2029
REMARK  5 active torsions:
REMARK  status: ('A' for Active; 'I' for Inactive)
REMARK    1  A    between atoms: C_1  and  C_2
REMARK    2  A    between atoms: C_2  and  C_3
REMARK    3  A    between atoms: C_2  and  C_4
REMARK    4  A    between atoms: C_6  and  O_7
REMARK    5  A    between atoms: C_8  and  C_9
REMARK                            x       y       z     vdW  Elec       q    Type
REMARK                         _______ _______ _______ _____ _____    ______ ____
ROOT
ATOM      1  C   LIG A   1     -11.793   7.966 129.228  0.00  0.00    -0.041 A 
ATOM      2  C   LIG A   1     -12.292   7.267 130.337  0.00  0.00    +0.049 A 
ATOM      3  C   LIG A   1     -11.418   6.639 131.229  0.00  0.00    +0.120 A 
ATOM      4  C   LIG A   1     -10.035   6.689 131.042  0.00  0.00    -0.009 A 
ATOM      5  C   LIG A   1      -9.100   6.010 131.999  0.00  0.00    +0.047 C 
ATOM      6  C   LIG A   1      -9.535   7.386 129.936  0.00  0.00    +0.007 A 
ATOM      7  C   LIG A   1     -10.404   8.019 129.040  0.00  0.00    +0.004 A 
ENDROOT
BRANCH   1   9
ATOM      8  C   LIG A   1     -13.811   7.669 127.752  0.00  0.00    +0.012 C 
ATOM      9  C   LIG A   1     -12.753   8.647 128.270  0.00  0.00    +0.013 C 
ATOM     10  C   LIG A   1     -13.410   9.878 128.901  0.00  0.00    +0.012 C 
ENDBRANCH   1   9
BRANCH   3  11
ATOM     11  O   LIG A   1     -11.907   5.958 132.308  0.00  0.00    -0.506 OA
ATOM     12  H   LIG A   1     -12.429   6.572 132.851  0.00  0.00    +0.292 HD
ENDBRANCH   3  11
TORSDOF 2
ENDMDL
MODEL 2
REMARK VINA RESULT:      -5.6      1.849      4.652
REMARK  Name = NuBBE_2029
REMARK  5 active torsions:
REMARK  status: ('A' for Active; 'I' for Inactive)
REMARK    1  A    between atoms: C_1  and  C_2
REMARK    2  A    between atoms: C_2  and  C_3
REMARK    3  A    between atoms: C_2  and  C_4
REMARK    4  A    between atoms: C_6  and  O_7
REMARK    5  A    between atoms: C_8  and  C_9
REMARK                            x       y       z     vdW  Elec       q    Type
REMARK                         _______ _______ _______ _____ _____    ______ ____
ROOT
ATOM      1  C   LIG A   1     -10.319   6.885 130.809  0.00  0.00    -0.041 A 
ATOM      2  C   LIG A   1      -9.987   7.573 129.633  0.00  0.00    +0.049 A 
ATOM      3  C   LIG A   1     -10.986   8.158 128.850  0.00  0.00    +0.120 A 
ATOM      4  C   LIG A   1     -12.332   8.075 129.214  0.00  0.00    -0.009 A 
ATOM      5  C   LIG A   1     -13.402   8.701 128.369  0.00  0.00    +0.047 C 
ATOM      6  C   LIG A   1     -12.664   7.390 130.388  0.00  0.00    +0.007 A 
ATOM      7  C   LIG A   1     -11.669   6.803 131.177  0.00  0.00    +0.004 A 
ENDROOT
BRANCH   1   9
ATOM      8  C   LIG A   1      -9.343   4.732 131.675  0.00  0.00    +0.012 C 
ATOM      9  C   LIG A   1      -9.224   6.258 131.653  0.00  0.00    +0.013 C 
ATOM     10  C   LIG A   1      -7.830   6.690 131.189  0.00  0.00    +0.012 C 
ENDBRANCH   1   9
BRANCH   3  11
ATOM     11  O   LIG A   1     -10.659   8.826 127.704  0.00  0.00    -0.506 OA
ATOM     12  H   LIG A   1     -10.767   9.779 127.859  0.00  0.00    +0.292 HD
ENDBRANCH   3  11
TORSDOF 2
ENDMDL
MODEL 3
REMARK VINA RESULT:      -5.4      1.544      2.275
REMARK  Name = NuBBE_2029
REMARK  5 active torsions:
REMARK  status: ('A' for Active; 'I' for Inactive)
REMARK    1  A    between atoms: C_1  and  C_2
REMARK    2  A    between atoms: C_2  and  C_3
REMARK    3  A    between atoms: C_2  and  C_4
REMARK    4  A    between atoms: C_6  and  O_7
REMARK    5  A    between atoms: C_8  and  C_9
REMARK                            x       y       z     vdW  Elec       q    Type
REMARK                         _______ _______ _______ _____ _____    ______ ____
ROOT
ATOM      1  C   LIG A   1     -10.386   6.984 130.370  0.00  0.00    -0.041 A 
ATOM      2  C   LIG A   1     -10.744   6.187 131.467  0.00  0.00    +0.049 A 
ATOM      3  C   LIG A   1      -9.769   5.735 132.361  0.00  0.00    +0.120 A 
ATOM      4  C   LIG A   1      -8.422   6.063 132.189  0.00  0.00    -0.009 A 
ATOM      5  C   LIG A   1      -7.378   5.573 133.149  0.00  0.00    +0.047 C 
ATOM      6  C   LIG A   1      -8.064   6.860 131.095  0.00  0.00    +0.007 A 
ATOM      7  C   LIG A   1      -9.034   7.316 130.197  0.00  0.00    +0.004 A 
ENDROOT
BRANCH   1   9
ATOM      8  C   LIG A   1     -12.556   8.240 130.145  0.00  0.00    +0.012 C 
ATOM      9  C   LIG A   1     -11.455   7.472 129.409  0.00  0.00    +0.013 C 
ATOM     10  C   LIG A   1     -10.862   8.317 128.279  0.00  0.00    +0.012 C 
ENDBRANCH   1   9
BRANCH   3  11
ATOM     11  O   LIG A   1     -10.121   4.957 133.428  0.00  0.00    -0.506 OA
ATOM     12  H   LIG A   1     -10.269   5.533 134.196  0.00  0.00    +0.292 HD
ENDBRANCH   3  11
TORSDOF 2
ENDMDL
MODEL 4
REMARK VINA RESULT:      -5.2      1.417      4.646
REMARK  Name = NuBBE_2029
REMARK  5 active torsions:
REMARK  status: ('A' for Active; 'I' for Inactive)
REMARK    1  A    between atoms: C_1  and  C_2
REMARK    2  A    between atoms: C_2  and  C_3
REMARK    3  A    between atoms: C_2  and  C_4
REMARK    4  A    between atoms: C_6  and  O_7
REMARK    5  A    between atoms: C_8  and  C_9
REMARK                            x       y       z     vdW  Elec       q    Type
REMARK                         _______ _______ _______ _____ _____    ______ ____
ROOT
ATOM      1  C   LIG A   1      -8.761   6.591 131.372  0.00  0.00    -0.041 A 
ATOM      2  C   LIG A   1      -9.947   6.203 132.012  0.00  0.00    +0.049 A 
ATOM      3  C   LIG A   1     -11.188   6.523 131.455  0.00  0.00    +0.120 A 
ATOM      4  C   LIG A   1     -11.281   7.230 130.254  0.00  0.00    -0.009 A 
ATOM      5  C   LIG A   1     -12.616   7.574 129.661  0.00  0.00    +0.047 C 
ATOM      6  C   LIG A   1     -10.099   7.617 129.614  0.00  0.00    +0.007 A 
ATOM      7  C   LIG A   1      -8.853   7.300 130.166  0.00  0.00    +0.004 A 
ENDROOT
BRANCH   1   9
ATOM      8  C   LIG A   1      -7.253   4.719 132.118  0.00  0.00    +0.012 C 
ATOM      9  C   LIG A   1      -7.419   6.235 131.986  0.00  0.00    +0.013 C 
ATOM     10  C   LIG A   1      -6.254   6.846 131.204  0.00  0.00    +0.012 C 
ENDBRANCH   1   9
BRANCH   3  11
ATOM     11  O   LIG A   1     -12.342   6.144 132.082  0.00  0.00    -0.506 OA
ATOM     12  H   LIG A   1     -12.127   5.868 132.987  0.00  0.00    +0.292 HD
ENDBRANCH   3  11
TORSDOF 2
ENDMDL
MODEL 5
REMARK VINA RESULT:      -5.2     11.494     12.250
REMARK  Name = NuBBE_2029
REMARK  5 active torsions:
REMARK  status: ('A' for Active; 'I' for Inactive)
REMARK    1  A    between atoms: C_1  and  C_2
REMARK    2  A    between atoms: C_2  and  C_3
REMARK    3  A    between atoms: C_2  and  C_4
REMARK    4  A    between atoms: C_6  and  O_7
REMARK    5  A    between atoms: C_8  and  C_9
REMARK                            x       y       z     vdW  Elec       q    Type
REMARK                         _______ _______ _______ _____ _____    ______ ____
ROOT
ATOM      1  C   LIG A   1      -8.241  -2.738 126.615  0.00  0.00    -0.041 A 
ATOM      2  C   LIG A   1      -9.252  -3.151 125.735  0.00  0.00    +0.049 A 
ATOM      3  C   LIG A   1      -9.114  -2.953 124.358  0.00  0.00    +0.120 A 
ATOM      4  C   LIG A   1      -7.975  -2.346 123.825  0.00  0.00    -0.009 A 
ATOM      5  C   LIG A   1      -7.833  -2.132 122.347  0.00  0.00    +0.047 C 
ATOM      6  C   LIG A   1      -6.966  -1.934 124.702  0.00  0.00    +0.007 A 
ATOM      7  C   LIG A   1      -7.096  -2.129 126.081  0.00  0.00    +0.004 A 
ENDROOT
BRANCH   1   9
ATOM      8  C   LIG A   1      -9.206  -4.232 128.397  0.00  0.00    +0.012 C 
ATOM      9  C   LIG A   1      -8.402  -2.962 128.108  0.00  0.00    +0.013 C 
ATOM     10  C   LIG A   1      -7.051  -2.996 128.828  0.00  0.00    +0.012 C 
ENDBRANCH   1   9
BRANCH   3  11
ATOM     11  O   LIG A   1     -10.101  -3.356 123.503  0.00  0.00    -0.506 OA
ATOM     12  H   LIG A   1      -9.748  -4.053 122.927  0.00  0.00    +0.292 HD
ENDBRANCH   3  11
TORSDOF 2
ENDMDL
MODEL 6
REMARK VINA RESULT:      -5.2     11.512     12.479
REMARK  Name = NuBBE_2029
REMARK  5 active torsions:
REMARK  status: ('A' for Active; 'I' for Inactive)
REMARK    1  A    between atoms: C_1  and  C_2
REMARK    2  A    between atoms: C_2  and  C_3
REMARK    3  A    between atoms: C_2  and  C_4
REMARK    4  A    between atoms: C_6  and  O_7
REMARK    5  A    between atoms: C_8  and  C_9
REMARK                            x       y       z     vdW  Elec       q    Type
REMARK                         _______ _______ _______ _____ _____    ______ ____
ROOT
ATOM      1  C   LIG A   1      -6.497  -2.657 124.851  0.00  0.00    -0.041 A 
ATOM      2  C   LIG A   1      -6.223  -2.231 126.159  0.00  0.00    +0.049 A 
ATOM      3  C   LIG A   1      -7.073  -2.586 127.210  0.00  0.00    +0.120 A 
ATOM      4  C   LIG A   1      -8.209  -3.368 126.989  0.00  0.00    -0.009 A 
ATOM      5  C   LIG A   1      -9.121  -3.744 128.120  0.00  0.00    +0.047 C 
ATOM      6  C   LIG A   1      -8.483  -3.794 125.685  0.00  0.00    +0.007 A 
ATOM      7  C   LIG A   1      -7.636  -3.444 124.628  0.00  0.00    +0.004 A 
ENDROOT
BRANCH   1   9
ATOM      8  C   LIG A   1      -4.560  -3.384 123.416  0.00  0.00    +0.012 C 
ATOM      9  C   LIG A   1      -5.563  -2.268 123.719  0.00  0.00    +0.013 C 
ATOM     10  C   LIG A   1      -6.333  -1.869 122.457  0.00  0.00    +0.012 C 
ENDBRANCH   1   9
BRANCH   3  11
ATOM     11  O   LIG A   1      -6.804  -2.169 128.483  0.00  0.00    -0.506 OA
ATOM     12  H   LIG A   1      -6.134  -1.468 128.445  0.00  0.00    +0.292 HD
ENDBRANCH   3  11
TORSDOF 2
ENDMDL
MODEL 7
REMARK VINA RESULT:      -5.1      2.433      3.315
REMARK  Name = NuBBE_2029
REMARK  5 active torsions:
REMARK  status: ('A' for Active; 'I' for Inactive)
REMARK    1  A    between atoms: C_1  and  C_2
REMARK    2  A    between atoms: C_2  and  C_3
REMARK    3  A    between atoms: C_2  and  C_4
REMARK    4  A    between atoms: C_6  and  O_7
REMARK    5  A    between atoms: C_8  and  C_9
REMARK                            x       y       z     vdW  Elec       q    Type
REMARK                         _______ _______ _______ _____ _____    ______ ____
ROOT
ATOM      1  C   LIG A   1     -10.470   6.827 131.014  0.00  0.00    -0.041 A 
ATOM      2  C   LIG A   1      -9.242   7.177 130.435  0.00  0.00    +0.049 A 
ATOM      3  C   LIG A   1      -8.041   6.817 131.053  0.00  0.00    +0.120 A 
ATOM      4  C   LIG A   1      -8.031   6.103 132.253  0.00  0.00    -0.009 A 
ATOM      5  C   LIG A   1      -6.740   5.721 132.915  0.00  0.00    +0.047 C 
ATOM      6  C   LIG A   1      -9.256   5.751 132.831  0.00  0.00    +0.007 A 
ATOM      7  C   LIG A   1     -10.462   6.108 132.217  0.00  0.00    +0.004 A 
ENDROOT
BRANCH   1   9
ATOM      8  C   LIG A   1     -12.231   6.140 129.350  0.00  0.00    +0.012 C 
ATOM      9  C   LIG A   1     -11.767   7.221 130.330  0.00  0.00    +0.013 C 
ATOM     10  C   LIG A   1     -12.869   7.548 131.342  0.00  0.00    +0.012 C 
ENDBRANCH   1   9
BRANCH   3  11
ATOM     11  O   LIG A   1      -6.846   7.161 130.487  0.00  0.00    -0.506 OA
ATOM     12  H   LIG A   1      -6.961   7.211 129.524  0.00  0.00    +0.292 HD
ENDBRANCH   3  11
TORSDOF 2
ENDMDL
MODEL 8
REMARK VINA RESULT:      -5.1      8.070      9.953
REMARK  Name = NuBBE_2029
REMARK  5 active torsions:
REMARK  status: ('A' for Active; 'I' for Inactive)
REMARK    1  A    between atoms: C_1  and  C_2
REMARK    2  A    between atoms: C_2  and  C_3
REMARK    3  A    between atoms: C_2  and  C_4
REMARK    4  A    between atoms: C_6  and  O_7
REMARK    5  A    between atoms: C_8  and  C_9
REMARK                            x       y       z     vdW  Elec       q    Type
REMARK                         _______ _______ _______ _____ _____    ______ ____
ROOT
ATOM      1  C   LIG A   1      -9.278  10.228 139.442  0.00  0.00    -0.041 A 
ATOM      2  C   LIG A   1      -9.973   9.914 138.264  0.00  0.00    +0.049 A 
ATOM      3  C   LIG A   1      -9.554   8.851 137.460  0.00  0.00    +0.120 A 
ATOM      4  C   LIG A   1      -8.443   8.078 137.803  0.00  0.00    -0.009 A 
ATOM      5  C   LIG A   1      -7.996   6.939 136.934  0.00  0.00    +0.047 C 
ATOM      6  C   LIG A   1      -7.750   8.390 138.977  0.00  0.00    +0.007 A 
ATOM      7  C   LIG A   1      -8.163   9.452 139.789  0.00  0.00    +0.004 A 
ENDROOT
BRANCH   1   9
ATOM      8  C   LIG A   1     -10.021  10.926 141.744  0.00  0.00    +0.012 C 
ATOM      9  C   LIG A   1      -9.745  11.383 140.310  0.00  0.00    +0.013 C 
ATOM     10  C   LIG A   1      -8.752  12.549 140.290  0.00  0.00    +0.012 C 
ENDBRANCH   1   9
BRANCH   3  11
ATOM     11  O   LIG A   1     -10.233   8.549 136.313  0.00  0.00    -0.506 OA
ATOM     12  H   LIG A   1      -9.997   9.199 135.632  0.00  0.00    +0.292 HD
ENDBRANCH   3  11
TORSDOF 2
ENDMDL
MODEL 9
REMARK VINA RESULT:      -5.1     11.230     11.762
REMARK  Name = NuBBE_2029
REMARK  5 active torsions:
REMARK  status: ('A' for Active; 'I' for Inactive)
REMARK    1  A    between atoms: C_1  and  C_2
REMARK    2  A    between atoms: C_2  and  C_3
REMARK    3  A    between atoms: C_2  and  C_4
REMARK    4  A    between atoms: C_6  and  O_7
REMARK    5  A    between atoms: C_8  and  C_9
REMARK                            x       y       z     vdW  Elec       q    Type
REMARK                         _______ _______ _______ _____ _____    ______ ____
ROOT
ATOM      1  C   LIG A   1      -7.923  -3.061 125.557  0.00  0.00    -0.041 A 
ATOM      2  C   LIG A   1      -6.862  -2.391 126.183  0.00  0.00    +0.049 A 
ATOM      3  C   LIG A   1      -6.793  -2.324 127.578  0.00  0.00    +0.120 A 
ATOM      4  C   LIG A   1      -7.770  -2.918 128.379  0.00  0.00    -0.009 A 
ATOM      5  C   LIG A   1      -7.695  -2.840 129.876  0.00  0.00    +0.047 C 
ATOM      6  C   LIG A   1      -8.829  -3.587 127.755  0.00  0.00    +0.007 A 
ATOM      7  C   LIG A   1      -8.904  -3.659 126.360  0.00  0.00    +0.004 A 
ENDROOT
BRANCH   1   9
ATOM      8  C   LIG A   1      -9.427  -3.258 123.547  0.00  0.00    +0.012 C 
ATOM      9  C   LIG A   1      -7.984  -3.130 124.041  0.00  0.00    +0.013 C 
ATOM     10  C   LIG A   1      -7.288  -1.933 123.388  0.00  0.00    +0.012 C 
ENDBRANCH   1   9
BRANCH   3  11
ATOM     11  O   LIG A   1      -5.759  -1.669 128.185  0.00  0.00    -0.506 OA
ATOM     12  H   LIG A   1      -5.663  -0.794 127.775  0.00  0.00    +0.292 HD
ENDBRANCH   3  11
TORSDOF 2
ENDMDL
