MODEL 1
REMARK VINA RESULT:      -7.1      0.000      0.000
REMARK  Name = NuBBE_870
REMARK  3 active torsions:
REMARK  status: ('A' for Active; 'I' for Inactive)
REMARK    1  A    between atoms: CG_7  and  OD_10
REMARK    2  A    between atoms: CA_11  and  CB_16
REMARK    3  A    between atoms: CB_16  and  CG_17
REMARK                            x       y       z     vdW  Elec       q    Type
REMARK                         _______ _______ _______ _____ _____    ______ ____
ROOT
ATOM      1  O   PHE A   2     -10.022   6.472 132.986  0.00  0.00    -0.274 OA
ATOM      2  C   PHE A   2      -9.738   5.754 132.031  0.00  0.00    +0.237 C 
ATOM      3  N   HYP A   1      -9.374   4.432 132.170  0.00  0.00    -0.286 N 
ATOM      4  CA  HYP A   1      -8.588   3.753 131.160  0.00  0.00    +0.164 C 
ATOM      5  CB  HYP A   1      -8.677   2.296 131.588  0.00  0.00    +0.064 C 
ATOM      6  CG  HYP A   1      -8.580   2.409 133.113  0.00  0.00    +0.134 C 
ATOM      7  CD  HYP A   1      -9.273   3.743 133.445  0.00  0.00    +0.140 C 
ATOM      8  CA  PHE A   2     -10.105   6.135 130.575  0.00  0.00    +0.163 C 
ATOM      9  N   PHE A   2      -9.355   5.390 129.551  0.00  0.00    -0.302 N 
ATOM     10  C   HYP A   1      -9.053   4.056 129.740  0.00  0.00    +0.234 C 
ATOM     11  O   HYP A   1      -8.931   3.289 128.793  0.00  0.00    -0.274 OA
ATOM     12  H   PHE A   2      -9.573   5.619 128.588  0.00  0.00    +0.149 HD
ENDROOT
BRANCH   6  13
ATOM     13  OD  HYP A   1      -7.204   2.468 133.486  0.00  0.00    -0.390 OA
ATOM     14  HD  HYP A   1      -6.743   3.015 132.827  0.00  0.00    +0.210 HD
ENDBRANCH   6  13
BRANCH   8  15
ATOM     15  CB  PHE A   2     -11.624   5.908 130.436  0.00  0.00    +0.067 C 
BRANCH  15  16
ATOM     16  CG  PHE A   2     -12.319   6.986 129.637  0.00  0.00    -0.045 A 
ATOM     17  CD1 PHE A   2     -12.220   8.330 130.020  0.00  0.00    +0.003 A 
ATOM     18  CE1 PHE A   2     -12.870   9.323 129.287  0.00  0.00    +0.000 A 
ATOM     19  CZ  PHE A   2     -13.623   8.982 128.165  0.00  0.00    +0.000 A 
ATOM     20  CE2 PHE A   2     -13.729   7.648 127.778  0.00  0.00    +0.000 A 
ATOM     21  CD2 PHE A   2     -13.082   6.653 128.510  0.00  0.00    +0.003 A 
ENDBRANCH  15  16
ENDBRANCH   8  15
TORSDOF 3
ENDMDL
MODEL 2
REMARK VINA RESULT:      -7.0      7.310      8.827
REMARK  Name = NuBBE_870
REMARK  3 active torsions:
REMARK  status: ('A' for Active; 'I' for Inactive)
REMARK    1  A    between atoms: CG_7  and  OD_10
REMARK    2  A    between atoms: CA_11  and  CB_16
REMARK    3  A    between atoms: CB_16  and  CG_17
REMARK                            x       y       z     vdW  Elec       q    Type
REMARK                         _______ _______ _______ _____ _____    ______ ____
ROOT
ATOM      1  O   PHE A   2      -6.755   0.828 124.550  0.00  0.00    -0.274 OA
ATOM      2  C   PHE A   2      -6.621   2.039 124.707  0.00  0.00    +0.237 C 
ATOM      3  N   HYP A   1      -5.667   2.585 125.539  0.00  0.00    -0.286 N 
ATOM      4  CA  HYP A   1      -5.820   3.914 126.097  0.00  0.00    +0.164 C 
ATOM      5  CB  HYP A   1      -4.447   4.191 126.688  0.00  0.00    +0.064 C 
ATOM      6  CG  HYP A   1      -4.077   2.825 127.278  0.00  0.00    +0.134 C 
ATOM      7  CD  HYP A   1      -4.728   1.806 126.326  0.00  0.00    +0.140 C 
ATOM      8  CA  PHE A   2      -7.244   3.071 123.734  0.00  0.00    +0.163 C 
ATOM      9  N   PHE A   2      -7.330   4.435 124.279  0.00  0.00    -0.302 N 
ATOM     10  C   HYP A   1      -6.321   4.933 125.078  0.00  0.00    +0.234 C 
ATOM     11  O   HYP A   1      -6.068   6.130 125.116  0.00  0.00    -0.274 OA
ATOM     12  H   PHE A   2      -7.735   5.132 123.664  0.00  0.00    +0.149 HD
ENDROOT
BRANCH   6  13
ATOM     13  OD  HYP A   1      -4.650   2.713 128.579  0.00  0.00    -0.390 OA
ATOM     14  HD  HYP A   1      -4.895   1.781 128.714  0.00  0.00    +0.210 HD
ENDBRANCH   6  13
BRANCH   8  15
ATOM     15  CB  PHE A   2      -6.388   3.030 122.452  0.00  0.00    +0.067 C 
BRANCH  15  16
ATOM     16  CG  PHE A   2      -7.125   3.516 121.225  0.00  0.00    -0.045 A 
ATOM     17  CD1 PHE A   2      -6.419   4.034 120.131  0.00  0.00    +0.003 A 
ATOM     18  CE1 PHE A   2      -7.101   4.490 119.002  0.00  0.00    +0.000 A 
ATOM     19  CZ  PHE A   2      -8.492   4.433 118.957  0.00  0.00    +0.000 A 
ATOM     20  CE2 PHE A   2      -9.203   3.923 120.042  0.00  0.00    +0.000 A 
ATOM     21  CD2 PHE A   2      -8.524   3.468 121.172  0.00  0.00    +0.003 A 
ENDBRANCH  15  16
ENDBRANCH   8  15
TORSDOF 3
ENDMDL
MODEL 3
REMARK VINA RESULT:      -7.0      1.442      1.976
REMARK  Name = NuBBE_870
REMARK  3 active torsions:
REMARK  status: ('A' for Active; 'I' for Inactive)
REMARK    1  A    between atoms: CG_7  and  OD_10
REMARK    2  A    between atoms: CA_11  and  CB_16
REMARK    3  A    between atoms: CB_16  and  CG_17
REMARK                            x       y       z     vdW  Elec       q    Type
REMARK                         _______ _______ _______ _____ _____    ______ ____
ROOT
ATOM      1  O   PHE A   2      -9.021   7.142 131.131  0.00  0.00    -0.274 OA
ATOM      2  C   PHE A   2      -9.301   5.952 131.238  0.00  0.00    +0.237 C 
ATOM      3  N   HYP A   1      -8.980   5.204 132.351  0.00  0.00    -0.286 N 
ATOM      4  CA  HYP A   1      -8.856   3.762 132.284  0.00  0.00    +0.164 C 
ATOM      5  CB  HYP A   1      -8.782   3.362 133.749  0.00  0.00    +0.064 C 
ATOM      6  CG  HYP A   1      -7.911   4.478 134.336  0.00  0.00    +0.134 C 
ATOM      7  CD  HYP A   1      -8.272   5.724 133.508  0.00  0.00    +0.140 C 
ATOM      8  CA  PHE A   2     -10.344   5.264 130.323  0.00  0.00    +0.163 C 
ATOM      9  N   PHE A   2     -10.261   3.795 130.314  0.00  0.00    -0.302 N 
ATOM     10  C   HYP A   1      -9.969   3.105 131.473  0.00  0.00    +0.234 C 
ATOM     11  O   HYP A   1     -10.386   1.970 131.664  0.00  0.00    -0.274 OA
ATOM     12  H   PHE A   2     -10.932   3.317 129.722  0.00  0.00    +0.149 HD
ENDROOT
BRANCH   6  13
ATOM     13  OD  HYP A   1      -6.538   4.145 134.143  0.00  0.00    -0.390 OA
ATOM     14  HD  HYP A   1      -6.090   4.231 135.002  0.00  0.00    +0.210 HD
ENDBRANCH   6  13
BRANCH   8  15
ATOM     15  CB  PHE A   2     -11.728   5.747 130.801  0.00  0.00    +0.067 C 
BRANCH  15  16
ATOM     16  CG  PHE A   2     -12.334   6.804 129.909  0.00  0.00    -0.045 A 
ATOM     17  CD1 PHE A   2     -12.968   6.446 128.711  0.00  0.00    +0.003 A 
ATOM     18  CE1 PHE A   2     -13.519   7.425 127.883  0.00  0.00    +0.000 A 
ATOM     19  CZ  PHE A   2     -13.443   8.768 128.244  0.00  0.00    +0.000 A 
ATOM     20  CE2 PHE A   2     -12.812   9.135 129.432  0.00  0.00    +0.000 A 
ATOM     21  CD2 PHE A   2     -12.258   8.158 130.261  0.00  0.00    +0.003 A 
ENDBRANCH  15  16
ENDBRANCH   8  15
TORSDOF 3
ENDMDL
MODEL 4
REMARK VINA RESULT:      -6.8      1.692      2.761
REMARK  Name = NuBBE_870
REMARK  3 active torsions:
REMARK  status: ('A' for Active; 'I' for Inactive)
REMARK    1  A    between atoms: CG_7  and  OD_10
REMARK    2  A    between atoms: CA_11  and  CB_16
REMARK    3  A    between atoms: CB_16  and  CG_17
REMARK                            x       y       z     vdW  Elec       q    Type
REMARK                         _______ _______ _______ _____ _____    ______ ____
ROOT
ATOM      1  O   PHE A   2     -11.067   3.785 130.061  0.00  0.00    -0.274 OA
ATOM      2  C   PHE A   2     -10.437   4.067 131.076  0.00  0.00    +0.237 C 
ATOM      3  N   HYP A   1      -9.347   3.341 131.507  0.00  0.00    -0.286 N 
ATOM      4  CA  HYP A   1      -8.928   3.354 132.894  0.00  0.00    +0.164 C 
ATOM      5  CB  HYP A   1      -7.571   2.672 132.842  0.00  0.00    +0.064 C 
ATOM      6  CG  HYP A   1      -7.815   1.561 131.816  0.00  0.00    +0.134 C 
ATOM      7  CD  HYP A   1      -8.829   2.165 130.828  0.00  0.00    +0.140 C 
ATOM      8  CA  PHE A   2     -10.559   5.449 131.766  0.00  0.00    +0.163 C 
ATOM      9  N   PHE A   2     -10.065   5.475 133.151  0.00  0.00    -0.302 N 
ATOM     10  C   HYP A   1      -8.946   4.751 133.507  0.00  0.00    +0.234 C 
ATOM     11  O   HYP A   1      -8.211   5.116 134.417  0.00  0.00    -0.274 OA
ATOM     12  H   PHE A   2     -10.134   6.368 133.629  0.00  0.00    +0.149 HD
ENDROOT
BRANCH   6  13
ATOM     13  OD  HYP A   1      -8.391   0.437 132.479  0.00  0.00    -0.390 OA
ATOM     14  HD  HYP A   1      -7.980   0.372 133.359  0.00  0.00    +0.210 HD
ENDBRANCH   6  13
BRANCH   8  15
ATOM     15  CB  PHE A   2      -9.792   6.448 130.876  0.00  0.00    +0.067 C 
BRANCH  15  16
ATOM     16  CG  PHE A   2     -10.691   7.253 129.967  0.00  0.00    -0.045 A 
ATOM     17  CD1 PHE A   2     -10.258   7.627 128.687  0.00  0.00    +0.003 A 
ATOM     18  CE1 PHE A   2     -11.086   8.378 127.852  0.00  0.00    +0.000 A 
ATOM     19  CZ  PHE A   2     -12.352   8.761 128.287  0.00  0.00    +0.000 A 
ATOM     20  CE2 PHE A   2     -12.791   8.397 129.559  0.00  0.00    +0.000 A 
ATOM     21  CD2 PHE A   2     -11.964   7.648 130.397  0.00  0.00    +0.003 A 
ENDBRANCH  15  16
ENDBRANCH   8  15
TORSDOF 3
ENDMDL
MODEL 5
REMARK VINA RESULT:      -6.7      2.170      6.623
REMARK  Name = NuBBE_870
REMARK  3 active torsions:
REMARK  status: ('A' for Active; 'I' for Inactive)
REMARK    1  A    between atoms: CG_7  and  OD_10
REMARK    2  A    between atoms: CA_11  and  CB_16
REMARK    3  A    between atoms: CB_16  and  CG_17
REMARK                            x       y       z     vdW  Elec       q    Type
REMARK                         _______ _______ _______ _____ _____    ______ ____
ROOT
ATOM      1  O   PHE A   2      -8.978   5.350 128.513  0.00  0.00    -0.274 OA
ATOM      2  C   PHE A   2      -9.773   5.665 129.394  0.00  0.00    +0.237 C 
ATOM      3  N   HYP A   1     -10.867   6.472 129.162  0.00  0.00    -0.286 N 
ATOM      4  CA  HYP A   1     -11.492   7.226 130.230  0.00  0.00    +0.164 C 
ATOM      5  CB  HYP A   1     -12.779   7.716 129.587  0.00  0.00    +0.064 C 
ATOM      6  CG  HYP A   1     -12.310   8.067 128.171  0.00  0.00    +0.134 C 
ATOM      7  CD  HYP A   1     -11.199   7.046 127.869  0.00  0.00    +0.140 C 
ATOM      8  CA  PHE A   2      -9.847   4.914 130.746  0.00  0.00    +0.163 C 
ATOM      9  N   PHE A   2     -10.546   5.654 131.808  0.00  0.00    -0.302 N 
ATOM     10  C   HYP A   1     -11.658   6.416 131.512  0.00  0.00    +0.234 C 
ATOM     11  O   HYP A   1     -12.544   6.600 132.337  0.00  0.00    -0.274 OA
ATOM     12  H   PHE A   2     -10.608   5.186 132.706  0.00  0.00    +0.149 HD
ENDROOT
BRANCH   6  13
ATOM     13  OD  HYP A   1     -11.771   9.388 128.176  0.00  0.00    -0.390 OA
ATOM     14  HD  HYP A   1     -10.907   9.356 127.729  0.00  0.00    +0.210 HD
ENDBRANCH   6  13
BRANCH   8  15
ATOM     15  CB  PHE A   2     -10.532   3.563 130.456  0.00  0.00    +0.067 C 
BRANCH  15  16
ATOM     16  CG  PHE A   2      -9.631   2.373 130.690  0.00  0.00    -0.045 A 
ATOM     17  CD1 PHE A   2      -8.636   2.041 129.759  0.00  0.00    +0.003 A 
ATOM     18  CE1 PHE A   2      -7.810   0.936 129.971  0.00  0.00    +0.000 A 
ATOM     19  CZ  PHE A   2      -7.971   0.154 131.113  0.00  0.00    +0.000 A 
ATOM     20  CE2 PHE A   2      -8.960   0.474 132.042  0.00  0.00    +0.000 A 
ATOM     21  CD2 PHE A   2      -9.788   1.577 131.831  0.00  0.00    +0.003 A 
ENDBRANCH  15  16
ENDBRANCH   8  15
TORSDOF 3
ENDMDL
MODEL 6
REMARK VINA RESULT:      -6.6      1.721      2.677
REMARK  Name = NuBBE_870
REMARK  3 active torsions:
REMARK  status: ('A' for Active; 'I' for Inactive)
REMARK    1  A    between atoms: CG_7  and  OD_10
REMARK    2  A    between atoms: CA_11  and  CB_16
REMARK    3  A    between atoms: CB_16  and  CG_17
REMARK                            x       y       z     vdW  Elec       q    Type
REMARK                         _______ _______ _______ _____ _____    ______ ____
ROOT
ATOM      1  O   PHE A   2      -9.010   5.383 128.459  0.00  0.00    -0.274 OA
ATOM      2  C   PHE A   2      -9.103   5.016 129.627  0.00  0.00    +0.237 C 
ATOM      3  N   HYP A   1      -8.013   4.893 130.462  0.00  0.00    -0.286 N 
ATOM      4  CA  HYP A   1      -8.042   4.024 131.622  0.00  0.00    +0.164 C 
ATOM      5  CB  HYP A   1      -6.778   4.419 132.370  0.00  0.00    +0.064 C 
ATOM      6  CG  HYP A   1      -5.785   4.629 131.222  0.00  0.00    +0.134 C 
ATOM      7  CD  HYP A   1      -6.643   5.167 130.063  0.00  0.00    +0.140 C 
ATOM      8  CA  PHE A   2     -10.454   5.007 130.385  0.00  0.00    +0.163 C 
ATOM      9  N   PHE A   2     -10.457   4.180 131.602  0.00  0.00    -0.302 N 
ATOM     10  C   HYP A   1      -9.342   4.129 132.413  0.00  0.00    +0.234 C 
ATOM     11  O   HYP A   1      -9.436   3.928 133.617  0.00  0.00    -0.274 OA
ATOM     12  H   PHE A   2     -11.329   4.155 132.118  0.00  0.00    +0.149 HD
ENDROOT
BRANCH   6  13
ATOM     13  OD  HYP A   1      -5.218   3.369 130.865  0.00  0.00    -0.390 OA
ATOM     14  HD  HYP A   1      -5.809   2.954 130.212  0.00  0.00    +0.210 HD
ENDBRANCH   6  13
BRANCH   8  15
ATOM     15  CB  PHE A   2     -10.783   6.480 130.704  0.00  0.00    +0.067 C 
BRANCH  15  16
ATOM     16  CG  PHE A   2     -11.776   7.093 129.745  0.00  0.00    -0.045 A 
ATOM     17  CD1 PHE A   2     -11.734   8.465 129.459  0.00  0.00    +0.003 A 
ATOM     18  CE1 PHE A   2     -12.658   9.032 128.580  0.00  0.00    +0.000 A 
ATOM     19  CZ  PHE A   2     -13.629   8.234 127.979  0.00  0.00    +0.000 A 
ATOM     20  CE2 PHE A   2     -13.681   6.870 128.259  0.00  0.00    +0.000 A 
ATOM     21  CD2 PHE A   2     -12.760   6.301 129.139  0.00  0.00    +0.003 A 
ENDBRANCH  15  16
ENDBRANCH   8  15
TORSDOF 3
ENDMDL
MODEL 7
REMARK VINA RESULT:      -6.5      7.803     10.070
REMARK  Name = NuBBE_870
REMARK  3 active torsions:
REMARK  status: ('A' for Active; 'I' for Inactive)
REMARK    1  A    between atoms: CG_7  and  OD_10
REMARK    2  A    between atoms: CA_11  and  CB_16
REMARK    3  A    between atoms: CB_16  and  CG_17
REMARK                            x       y       z     vdW  Elec       q    Type
REMARK                         _______ _______ _______ _____ _____    ______ ____
ROOT
ATOM      1  O   PHE A   2      -7.568   0.867 126.071  0.00  0.00    -0.274 OA
ATOM      2  C   PHE A   2      -7.461   1.542 125.051  0.00  0.00    +0.237 C 
ATOM      3  N   HYP A   1      -6.547   2.567 124.923  0.00  0.00    -0.286 N 
ATOM      4  CA  HYP A   1      -6.742   3.641 123.971  0.00  0.00    +0.164 C 
ATOM      5  CB  HYP A   1      -5.397   4.348 123.981  0.00  0.00    +0.064 C 
ATOM      6  CG  HYP A   1      -5.026   4.299 125.467  0.00  0.00    +0.134 C 
ATOM      7  CD  HYP A   1      -5.624   2.972 125.969  0.00  0.00    +0.140 C 
ATOM      8  CA  PHE A   2      -8.063   1.092 123.696  0.00  0.00    +0.163 C 
ATOM      9  N   PHE A   2      -8.192   2.172 122.707  0.00  0.00    -0.302 N 
ATOM     10  C   HYP A   1      -7.222   3.149 122.609  0.00  0.00    +0.234 C 
ATOM     11  O   HYP A   1      -6.990   3.715 121.548  0.00  0.00    -0.274 OA
ATOM     12  H   PHE A   2      -8.586   1.907 121.810  0.00  0.00    +0.149 HD
ENDROOT
BRANCH   6  13
ATOM     13  OD  HYP A   1      -5.645   5.397 126.135  0.00  0.00    -0.390 OA
ATOM     14  HD  HYP A   1      -5.728   5.161 127.076  0.00  0.00    +0.210 HD
ENDBRANCH   6  13
BRANCH   8  15
ATOM     15  CB  PHE A   2      -7.160  -0.045 123.175  0.00  0.00    +0.067 C 
BRANCH  15  16
ATOM     16  CG  PHE A   2      -7.666  -1.423 123.533  0.00  0.00    -0.045 A 
ATOM     17  CD1 PHE A   2      -8.945  -1.836 123.136  0.00  0.00    +0.003 A 
ATOM     18  CE1 PHE A   2      -9.414  -3.106 123.475  0.00  0.00    +0.000 A 
ATOM     19  CZ  PHE A   2      -8.610  -3.972 124.213  0.00  0.00    +0.000 A 
ATOM     20  CE2 PHE A   2      -7.338  -3.569 124.616  0.00  0.00    +0.000 A 
ATOM     21  CD2 PHE A   2      -6.868  -2.299 124.280  0.00  0.00    +0.003 A 
ENDBRANCH  15  16
ENDBRANCH   8  15
TORSDOF 3
ENDMDL
MODEL 8
REMARK VINA RESULT:      -6.4      6.808      9.122
REMARK  Name = NuBBE_870
REMARK  3 active torsions:
REMARK  status: ('A' for Active; 'I' for Inactive)
REMARK    1  A    between atoms: CG_7  and  OD_10
REMARK    2  A    between atoms: CA_11  and  CB_16
REMARK    3  A    between atoms: CB_16  and  CG_17
REMARK                            x       y       z     vdW  Elec       q    Type
REMARK                         _______ _______ _______ _____ _____    ______ ____
ROOT
ATOM      1  O   PHE A   2      -6.987   1.815 127.762  0.00  0.00    -0.274 OA
ATOM      2  C   PHE A   2      -7.574   1.882 126.686  0.00  0.00    +0.237 C 
ATOM      3  N   HYP A   1      -7.128   2.657 125.637  0.00  0.00    -0.286 N 
ATOM      4  CA  HYP A   1      -8.029   3.119 124.600  0.00  0.00    +0.164 C 
ATOM      5  CB  HYP A   1      -7.077   3.666 123.548  0.00  0.00    +0.064 C 
ATOM      6  CG  HYP A   1      -6.010   4.348 124.411  0.00  0.00    +0.134 C 
ATOM      7  CD  HYP A   1      -5.934   3.483 125.682  0.00  0.00    +0.140 C 
ATOM      8  CA  PHE A   2      -8.647   0.847 126.265  0.00  0.00    +0.163 C 
ATOM      9  N   PHE A   2      -9.513   1.293 125.163  0.00  0.00    -0.302 N 
ATOM     10  C   HYP A   1      -8.993   2.038 124.124  0.00  0.00    +0.234 C 
ATOM     11  O   HYP A   1      -9.471   1.984 122.998  0.00  0.00    -0.274 OA
ATOM     12  H   PHE A   2     -10.226   0.635 124.867  0.00  0.00    +0.149 HD
ENDROOT
BRANCH   6  13
ATOM     13  OD  HYP A   1      -6.453   5.663 124.741  0.00  0.00    -0.390 OA
ATOM     14  HD  HYP A   1      -6.569   6.153 123.908  0.00  0.00    +0.210 HD
ENDBRANCH   6  13
BRANCH   8  15
ATOM     15  CB  PHE A   2      -7.886  -0.443 125.897  0.00  0.00    +0.067 C 
BRANCH  15  16
ATOM     16  CG  PHE A   2      -8.138  -1.581 126.857  0.00  0.00    -0.045 A 
ATOM     17  CD1 PHE A   2      -7.639  -1.531 128.167  0.00  0.00    +0.003 A 
ATOM     18  CE1 PHE A   2      -7.865  -2.587 129.050  0.00  0.00    +0.000 A 
ATOM     19  CZ  PHE A   2      -8.590  -3.701 128.634  0.00  0.00    +0.000 A 
ATOM     20  CE2 PHE A   2      -9.088  -3.762 127.333  0.00  0.00    +0.000 A 
ATOM     21  CD2 PHE A   2      -8.861  -2.709 126.447  0.00  0.00    +0.003 A 
ENDBRANCH  15  16
ENDBRANCH   8  15
TORSDOF 3
ENDMDL
MODEL 9
REMARK VINA RESULT:      -6.2      8.137      9.084
REMARK  Name = NuBBE_870
REMARK  3 active torsions:
REMARK  status: ('A' for Active; 'I' for Inactive)
REMARK    1  A    between atoms: CG_7  and  OD_10
REMARK    2  A    between atoms: CA_11  and  CB_16
REMARK    3  A    between atoms: CB_16  and  CG_17
REMARK                            x       y       z     vdW  Elec       q    Type
REMARK                         _______ _______ _______ _____ _____    ______ ____
ROOT
ATOM      1  O   PHE A   2      -5.520   1.068 125.733  0.00  0.00    -0.274 OA
ATOM      2  C   PHE A   2      -6.377   0.370 125.198  0.00  0.00    +0.237 C 
ATOM      3  N   HYP A   1      -7.232  -0.443 125.910  0.00  0.00    -0.286 N 
ATOM      4  CA  HYP A   1      -7.872  -1.591 125.297  0.00  0.00    +0.164 C 
ATOM      5  CB  HYP A   1      -8.905  -1.995 126.337  0.00  0.00    +0.064 C 
ATOM      6  CG  HYP A   1      -8.137  -1.777 127.645  0.00  0.00    +0.134 C 
ATOM      7  CD  HYP A   1      -7.214  -0.580 127.356  0.00  0.00    +0.140 C 
ATOM      8  CA  PHE A   2      -6.832   0.599 123.735  0.00  0.00    +0.163 C 
ATOM      9  N   PHE A   2      -7.545  -0.543 123.141  0.00  0.00    -0.302 N 
ATOM     10  C   HYP A   1      -8.415  -1.295 123.903  0.00  0.00    +0.234 C 
ATOM     11  O   HYP A   1      -9.377  -1.863 123.401  0.00  0.00    -0.274 OA
ATOM     12  H   PHE A   2      -7.853  -0.422 122.182  0.00  0.00    +0.149 HD
ENDROOT
BRANCH   6  13
ATOM     13  OD  HYP A   1      -7.357  -2.939 127.922  0.00  0.00    -0.390 OA
ATOM     14  HD  HYP A   1      -6.419  -2.687 127.858  0.00  0.00    +0.210 HD
ENDBRANCH   6  13
BRANCH   8  15
ATOM     15  CB  PHE A   2      -7.710   1.867 123.745  0.00  0.00    +0.067 C 
BRANCH  15  16
ATOM     16  CG  PHE A   2      -7.624   2.665 122.465  0.00  0.00    -0.045 A 
ATOM     17  CD1 PHE A   2      -8.790   3.081 121.808  0.00  0.00    +0.003 A 
ATOM     18  CE1 PHE A   2      -8.710   3.810 120.621  0.00  0.00    +0.000 A 
ATOM     19  CZ  PHE A   2      -7.466   4.129 120.081  0.00  0.00    +0.000 A 
ATOM     20  CE2 PHE A   2      -6.301   3.717 120.726  0.00  0.00    +0.000 A 
ATOM     21  CD2 PHE A   2      -6.378   2.987 121.912  0.00  0.00    +0.003 A 
ENDBRANCH  15  16
ENDBRANCH   8  15
TORSDOF 3
ENDMDL
