MODEL 1
REMARK VINA RESULT:      -8.7      0.000      0.000
REMARK  Name = NuBBE_488
REMARK  6 active torsions:
REMARK  status: ('A' for Active; 'I' for Inactive)
REMARK    1  A    between atoms: C_7  and  C_9
REMARK    2  A    between atoms: C_18  and  C_22
REMARK    3  A    between atoms: C_25  and  O_30
REMARK    4  A    between atoms: C_26  and  O_27
REMARK    5  A    between atoms: O_27  and  C_28
REMARK    6  A    between atoms: O_30  and  C_31
REMARK                            x       y       z     vdW  Elec       q    Type
REMARK                         _______ _______ _______ _____ _____    ______ ____
ROOT
ATOM      1  C   LIG A   1      -8.810   2.504 123.333  0.00  0.00    +0.056 C 
ATOM      2  C   LIG A   1      -8.942   2.009 124.750  0.00  0.00    +0.056 C 
ATOM      3  C   LIG A   1      -7.570   2.275 125.306  0.00  0.00    +0.167 C 
ATOM      4  O   LIG A   1      -6.641   2.099 124.232  0.00  0.00    -0.371 OA
ATOM      5  C   LIG A   1      -7.361   2.153 122.980  0.00  0.00    +0.154 C 
ATOM      6  C   LIG A   1      -9.459   0.572 124.591  0.00  0.00    +0.154 C 
ATOM      7  O   LIG A   1     -10.259   0.615 123.383  0.00  0.00    -0.371 OA
ATOM      8  C   LIG A   1      -9.876   1.745 122.585  0.00  0.00    +0.167 C 
ENDROOT
BRANCH   5   9
ATOM      9  C   LIG A   1      -6.716   3.152 122.037  0.00  0.00    -0.015 A 
ATOM     10  C   LIG A   1      -5.506   3.787 122.410  0.00  0.00    +0.010 A 
ATOM     11  C   LIG A   1      -4.883   4.712 121.563  0.00  0.00    +0.050 A 
ATOM     12  C   LIG A   1      -5.478   4.982 120.355  0.00  0.00    +0.166 A 
ATOM     13  O   LIG A   1      -5.017   5.848 119.412  0.00  0.00    -0.453 OA
ATOM     14  C   LIG A   1      -6.035   5.714 118.399  0.00  0.00    +0.466 C 
ATOM     15  O   LIG A   1      -7.073   4.775 118.747  0.00  0.00    -0.453 OA
ATOM     16  C   LIG A   1      -6.651   4.371 119.976  0.00  0.00    +0.167 A 
ATOM     17  C   LIG A   1      -7.288   3.456 120.789  0.00  0.00    +0.055 A 
ENDBRANCH   5   9
BRANCH   6  18
ATOM     18  C   LIG A   1      -8.507  -0.614 124.530  0.00  0.00    -0.015 A 
ATOM     19  C   LIG A   1      -8.296  -1.313 123.335  0.00  0.00    +0.010 A 
ATOM     20  C   LIG A   1      -7.396  -2.384 123.285  0.00  0.00    +0.050 A 
ATOM     21  C   LIG A   1      -6.666  -2.774 124.415  0.00  0.00    +0.162 A 
ATOM     22  C   LIG A   1      -6.804  -2.038 125.598  0.00  0.00    +0.162 A 
ATOM     23  C   LIG A   1      -7.735  -0.989 125.645  0.00  0.00    +0.055 A 
BRANCH  22  24
ATOM     24  O   LIG A   1      -6.044  -2.377 126.687  0.00  0.00    -0.491 OA
ATOM     25  C   LIG A   1      -5.523  -1.292 127.450  0.00  0.00    +0.277 C 
ENDBRANCH  22  24
BRANCH  21  26
ATOM     26  O   LIG A   1      -5.824  -3.833 124.186  0.00  0.00    -0.491 OA
ATOM     27  C   LIG A   1      -4.614  -3.546 123.495  0.00  0.00    +0.277 C 
ENDBRANCH  21  26
ENDBRANCH   6  18
TORSDOF 4
ENDMDL
MODEL 2
REMARK VINA RESULT:      -8.0      3.307      4.785
REMARK  Name = NuBBE_488
REMARK  6 active torsions:
REMARK  status: ('A' for Active; 'I' for Inactive)
REMARK    1  A    between atoms: C_7  and  C_9
REMARK    2  A    between atoms: C_18  and  C_22
REMARK    3  A    between atoms: C_25  and  O_30
REMARK    4  A    between atoms: C_26  and  O_27
REMARK    5  A    between atoms: O_27  and  C_28
REMARK    6  A    between atoms: O_30  and  C_31
REMARK                            x       y       z     vdW  Elec       q    Type
REMARK                         _______ _______ _______ _____ _____    ______ ____
ROOT
ATOM      1  C   LIG A   1      -7.075   3.478 124.482  0.00  0.00    +0.056 C 
ATOM      2  C   LIG A   1      -8.448   2.860 124.537  0.00  0.00    +0.056 C 
ATOM      3  C   LIG A   1      -8.503   2.339 125.947  0.00  0.00    +0.167 C 
ATOM      4  O   LIG A   1      -7.174   1.940 126.298  0.00  0.00    -0.371 OA
ATOM      5  C   LIG A   1      -6.245   2.551 125.376  0.00  0.00    +0.154 C 
ATOM      6  C   LIG A   1      -8.465   1.894 123.343  0.00  0.00    +0.154 C 
ATOM      7  O   LIG A   1      -7.604   2.526 122.363  0.00  0.00    -0.371 OA
ATOM      8  C   LIG A   1      -6.731   3.462 123.014  0.00  0.00    +0.167 C 
ENDROOT
BRANCH   5   9
ATOM      9  C   LIG A   1      -5.145   3.276 126.130  0.00  0.00    -0.015 A 
ATOM     10  C   LIG A   1      -3.953   2.586 126.465  0.00  0.00    +0.010 A 
ATOM     11  C   LIG A   1      -2.918   3.226 127.158  0.00  0.00    +0.050 A 
ATOM     12  C   LIG A   1      -3.090   4.545 127.501  0.00  0.00    +0.166 A 
ATOM     13  O   LIG A   1      -2.195   5.320 128.171  0.00  0.00    -0.453 OA
ATOM     14  C   LIG A   1      -2.914   6.569 128.238  0.00  0.00    +0.466 C 
ATOM     15  O   LIG A   1      -4.210   6.521 127.606  0.00  0.00    -0.453 OA
ATOM     16  C   LIG A   1      -4.239   5.230 127.179  0.00  0.00    +0.167 A 
ATOM     17  C   LIG A   1      -5.276   4.627 126.497  0.00  0.00    +0.055 A 
ENDBRANCH   5   9
BRANCH   6  18
ATOM     18  C   LIG A   1      -8.073   0.431 123.497  0.00  0.00    -0.015 A 
ATOM     19  C   LIG A   1      -6.767  -0.000 123.237  0.00  0.00    +0.010 A 
ATOM     20  C   LIG A   1      -6.411  -1.343 123.410  0.00  0.00    +0.050 A 
ATOM     21  C   LIG A   1      -7.339  -2.287 123.867  0.00  0.00    +0.162 A 
ATOM     22  C   LIG A   1      -8.629  -1.862 124.207  0.00  0.00    +0.162 A 
ATOM     23  C   LIG A   1      -8.982  -0.520 123.996  0.00  0.00    +0.055 A 
BRANCH  22  24
ATOM     24  O   LIG A   1      -9.521  -2.771 124.714  0.00  0.00    -0.491 OA
ATOM     25  C   LIG A   1      -9.461  -2.989 126.121  0.00  0.00    +0.277 C 
ENDBRANCH  22  24
BRANCH  21  26
ATOM     26  O   LIG A   1      -6.822  -3.552 123.989  0.00  0.00    -0.491 OA
ATOM     27  C   LIG A   1      -5.403  -3.659 124.009  0.00  0.00    +0.277 C 
ENDBRANCH  21  26
ENDBRANCH   6  18
TORSDOF 4
ENDMDL
MODEL 3
REMARK VINA RESULT:      -7.9      2.371      8.410
REMARK  Name = NuBBE_488
REMARK  6 active torsions:
REMARK  status: ('A' for Active; 'I' for Inactive)
REMARK    1  A    between atoms: C_7  and  C_9
REMARK    2  A    between atoms: C_18  and  C_22
REMARK    3  A    between atoms: C_25  and  O_30
REMARK    4  A    between atoms: C_26  and  O_27
REMARK    5  A    between atoms: O_27  and  C_28
REMARK    6  A    between atoms: O_30  and  C_31
REMARK                            x       y       z     vdW  Elec       q    Type
REMARK                         _______ _______ _______ _____ _____    ______ ____
ROOT
ATOM      1  C   LIG A   1      -7.578  -2.961 125.321  0.00  0.00    +0.056 C 
ATOM      2  C   LIG A   1      -7.068  -2.450 123.999  0.00  0.00    +0.056 C 
ATOM      3  C   LIG A   1      -5.760  -1.818 124.388  0.00  0.00    +0.167 C 
ATOM      4  O   LIG A   1      -5.926  -1.289 125.707  0.00  0.00    -0.371 OA
ATOM      5  C   LIG A   1      -7.087  -1.902 126.312  0.00  0.00    +0.154 C 
ATOM      6  C   LIG A   1      -8.225  -1.592 123.466  0.00  0.00    +0.154 C 
ATOM      7  O   LIG A   1      -9.414  -2.236 123.988  0.00  0.00    -0.371 OA
ATOM      8  C   LIG A   1      -9.071  -3.043 125.125  0.00  0.00    +0.167 C 
ENDROOT
BRANCH   5   9
ATOM      9  C   LIG A   1      -6.739  -2.473 127.674  0.00  0.00    -0.015 A 
ATOM     10  C   LIG A   1      -7.770  -2.968 128.511  0.00  0.00    +0.010 A 
ATOM     11  C   LIG A   1      -7.482  -3.504 129.773  0.00  0.00    +0.050 A 
ATOM     12  C   LIG A   1      -6.169  -3.541 130.174  0.00  0.00    +0.166 A 
ATOM     13  O   LIG A   1      -5.708  -4.023 131.360  0.00  0.00    -0.453 OA
ATOM     14  C   LIG A   1      -4.291  -3.797 131.213  0.00  0.00    +0.466 C 
ATOM     15  O   LIG A   1      -3.933  -3.196 129.952  0.00  0.00    -0.453 OA
ATOM     16  C   LIG A   1      -5.156  -3.068 129.371  0.00  0.00    +0.167 A 
ATOM     17  C   LIG A   1      -5.408  -2.534 128.124  0.00  0.00    +0.055 A 
ENDBRANCH   5   9
BRANCH   6  18
ATOM     18  C   LIG A   1      -8.296  -0.096 123.734  0.00  0.00    -0.015 A 
ATOM     19  C   LIG A   1      -9.280   0.445 124.571  0.00  0.00    +0.010 A 
ATOM     20  C   LIG A   1      -9.317   1.820 124.834  0.00  0.00    +0.050 A 
ATOM     21  C   LIG A   1      -8.364   2.689 124.289  0.00  0.00    +0.162 A 
ATOM     22  C   LIG A   1      -7.326   2.159 123.514  0.00  0.00    +0.162 A 
ATOM     23  C   LIG A   1      -7.320   0.784 123.230  0.00  0.00    +0.055 A 
BRANCH  22  24
ATOM     24  O   LIG A   1      -6.356   2.998 123.032  0.00  0.00    -0.491 OA
ATOM     25  C   LIG A   1      -6.527   3.448 121.690  0.00  0.00    +0.277 C 
ENDBRANCH  22  24
BRANCH  21  26
ATOM     26  O   LIG A   1      -8.543   3.999 124.656  0.00  0.00    -0.491 OA
ATOM     27  C   LIG A   1      -7.838   4.437 125.813  0.00  0.00    +0.277 C 
ENDBRANCH  21  26
ENDBRANCH   6  18
TORSDOF 4
ENDMDL
MODEL 4
REMARK VINA RESULT:      -7.9      6.700      9.978
REMARK  Name = NuBBE_488
REMARK  6 active torsions:
REMARK  status: ('A' for Active; 'I' for Inactive)
REMARK    1  A    between atoms: C_7  and  C_9
REMARK    2  A    between atoms: C_18  and  C_22
REMARK    3  A    between atoms: C_25  and  O_30
REMARK    4  A    between atoms: C_26  and  O_27
REMARK    5  A    between atoms: O_27  and  C_28
REMARK    6  A    between atoms: O_30  and  C_31
REMARK                            x       y       z     vdW  Elec       q    Type
REMARK                         _______ _______ _______ _____ _____    ______ ____
ROOT
ATOM      1  C   LIG A   1      -8.151   4.468 131.100  0.00  0.00    +0.056 C 
ATOM      2  C   LIG A   1      -9.430   4.410 131.892  0.00  0.00    +0.056 C 
ATOM      3  C   LIG A   1     -10.283   3.501 131.050  0.00  0.00    +0.167 C 
ATOM      4  O   LIG A   1      -9.921   3.733 129.685  0.00  0.00    -0.371 OA
ATOM      5  C   LIG A   1      -8.641   4.403 129.650  0.00  0.00    +0.154 C 
ATOM      6  C   LIG A   1      -9.811   5.885 132.085  0.00  0.00    +0.154 C 
ATOM      7  O   LIG A   1      -8.538   6.575 132.139  0.00  0.00    -0.371 OA
ATOM      8  C   LIG A   1      -7.520   5.769 131.527  0.00  0.00    +0.167 C 
ENDROOT
BRANCH   5   9
ATOM      9  C   LIG A   1      -7.683   3.673 128.727  0.00  0.00    -0.015 A 
ATOM     10  C   LIG A   1      -8.108   2.492 128.068  0.00  0.00    +0.010 A 
ATOM     11  C   LIG A   1      -7.250   1.796 127.208  0.00  0.00    +0.050 A 
ATOM     12  C   LIG A   1      -5.985   2.294 127.016  0.00  0.00    +0.166 A 
ATOM     13  O   LIG A   1      -5.024   1.752 126.220  0.00  0.00    -0.453 OA
ATOM     14  C   LIG A   1      -3.944   2.686 126.422  0.00  0.00    +0.466 C 
ATOM     15  O   LIG A   1      -4.277   3.764 127.321  0.00  0.00    -0.453 OA
ATOM     16  C   LIG A   1      -5.559   3.441 127.644  0.00  0.00    +0.167 A 
ATOM     17  C   LIG A   1      -6.380   4.149 128.497  0.00  0.00    +0.055 A 
ENDBRANCH   5   9
BRANCH   6  18
ATOM     18  C   LIG A   1     -10.738   6.601 131.113  0.00  0.00    -0.015 A 
ATOM     19  C   LIG A   1     -12.103   6.746 131.388  0.00  0.00    +0.010 A 
ATOM     20  C   LIG A   1     -12.941   7.432 130.500  0.00  0.00    +0.050 A 
ATOM     21  C   LIG A   1     -12.439   8.010 129.327  0.00  0.00    +0.162 A 
ATOM     22  C   LIG A   1     -11.064   7.944 129.073  0.00  0.00    +0.162 A 
ATOM     23  C   LIG A   1     -10.241   7.224 129.953  0.00  0.00    +0.055 A 
BRANCH  22  24
ATOM     24  O   LIG A   1     -10.560   8.562 127.959  0.00  0.00    -0.491 OA
ATOM     25  C   LIG A   1     -10.766   7.887 126.720  0.00  0.00    +0.277 C 
ENDBRANCH  22  24
BRANCH  21  26
ATOM     26  O   LIG A   1     -13.394   8.651 128.579  0.00  0.00    -0.491 OA
ATOM     27  C   LIG A   1     -13.578  10.039 128.835  0.00  0.00    +0.277 C 
ENDBRANCH  21  26
ENDBRANCH   6  18
TORSDOF 4
ENDMDL
MODEL 5
REMARK VINA RESULT:      -7.7      1.880      2.728
REMARK  Name = NuBBE_488
REMARK  6 active torsions:
REMARK  status: ('A' for Active; 'I' for Inactive)
REMARK    1  A    between atoms: C_7  and  C_9
REMARK    2  A    between atoms: C_18  and  C_22
REMARK    3  A    between atoms: C_25  and  O_30
REMARK    4  A    between atoms: C_26  and  O_27
REMARK    5  A    between atoms: O_27  and  C_28
REMARK    6  A    between atoms: O_30  and  C_31
REMARK                            x       y       z     vdW  Elec       q    Type
REMARK                         _______ _______ _______ _____ _____    ______ ____
ROOT
ATOM      1  C   LIG A   1      -6.690   4.064 125.397  0.00  0.00    +0.056 C 
ATOM      2  C   LIG A   1      -6.234   3.265 126.589  0.00  0.00    +0.056 C 
ATOM      3  C   LIG A   1      -5.217   2.339 125.979  0.00  0.00    +0.167 C 
ATOM      4  O   LIG A   1      -5.658   2.051 124.649  0.00  0.00    -0.371 OA
ATOM      5  C   LIG A   1      -6.634   3.042 124.257  0.00  0.00    +0.154 C 
ATOM      6  C   LIG A   1      -7.538   2.714 127.184  0.00  0.00    +0.154 C 
ATOM      7  O   LIG A   1      -8.524   3.732 126.880  0.00  0.00    -0.371 OA
ATOM      8  C   LIG A   1      -8.064   4.544 125.789  0.00  0.00    +0.167 C 
ENDROOT
BRANCH   5   9
ATOM      9  C   LIG A   1      -6.262   3.657 122.920  0.00  0.00    -0.015 A 
ATOM     10  C   LIG A   1      -5.032   4.349 122.786  0.00  0.00    +0.010 A 
ATOM     11  C   LIG A   1      -4.657   4.926 121.567  0.00  0.00    +0.050 A 
ATOM     12  C   LIG A   1      -5.514   4.797 120.500  0.00  0.00    +0.166 A 
ATOM     13  O   LIG A   1      -5.313   5.291 119.249  0.00  0.00    -0.453 OA
ATOM     14  C   LIG A   1      -6.519   4.856 118.588  0.00  0.00    +0.466 C 
ATOM     15  O   LIG A   1      -7.408   4.111 119.447  0.00  0.00    -0.453 OA
ATOM     16  C   LIG A   1      -6.709   4.125 120.614  0.00  0.00    +0.167 A 
ATOM     17  C   LIG A   1      -7.106   3.546 121.801  0.00  0.00    +0.055 A 
ENDBRANCH   5   9
BRANCH   6  18
ATOM     18  C   LIG A   1      -8.078   1.347 126.788  0.00  0.00    -0.015 A 
ATOM     19  C   LIG A   1      -9.188   1.223 125.943  0.00  0.00    +0.010 A 
ATOM     20  C   LIG A   1      -9.658  -0.040 125.563  0.00  0.00    +0.050 A 
ATOM     21  C   LIG A   1      -9.023  -1.211 125.995  0.00  0.00    +0.162 A 
ATOM     22  C   LIG A   1      -7.866  -1.108 126.776  0.00  0.00    +0.162 A 
ATOM     23  C   LIG A   1      -7.426   0.163 127.179  0.00  0.00    +0.055 A 
BRANCH  22  24
ATOM     24  O   LIG A   1      -7.207  -2.250 127.149  0.00  0.00    -0.491 OA
ATOM     25  C   LIG A   1      -5.903  -2.428 126.601  0.00  0.00    +0.277 C 
ENDBRANCH  22  24
BRANCH  21  26
ATOM     26  O   LIG A   1      -9.608  -2.359 125.522  0.00  0.00    -0.491 OA
ATOM     27  C   LIG A   1      -9.111  -2.863 124.287  0.00  0.00    +0.277 C 
ENDBRANCH  21  26
ENDBRANCH   6  18
TORSDOF 4
ENDMDL
MODEL 6
REMARK VINA RESULT:      -7.7      8.407     11.078
REMARK  Name = NuBBE_488
REMARK  6 active torsions:
REMARK  status: ('A' for Active; 'I' for Inactive)
REMARK    1  A    between atoms: C_7  and  C_9
REMARK    2  A    between atoms: C_18  and  C_22
REMARK    3  A    between atoms: C_25  and  O_30
REMARK    4  A    between atoms: C_26  and  O_27
REMARK    5  A    between atoms: O_27  and  C_28
REMARK    6  A    between atoms: O_30  and  C_31
REMARK                            x       y       z     vdW  Elec       q    Type
REMARK                         _______ _______ _______ _____ _____    ______ ____
ROOT
ATOM      1  C   LIG A   1      -8.747   4.528 131.465  0.00  0.00    +0.056 C 
ATOM      2  C   LIG A   1      -7.895   4.215 132.668  0.00  0.00    +0.056 C 
ATOM      3  C   LIG A   1      -8.233   5.348 133.598  0.00  0.00    +0.167 C 
ATOM      4  O   LIG A   1      -8.491   6.496 132.783  0.00  0.00    -0.371 OA
ATOM      5  C   LIG A   1      -8.740   6.059 131.428  0.00  0.00    +0.154 C 
ATOM      6  C   LIG A   1      -6.480   4.072 132.088  0.00  0.00    +0.154 C 
ATOM      7  O   LIG A   1      -6.695   3.552 130.753  0.00  0.00    -0.371 OA
ATOM      8  C   LIG A   1      -8.037   3.835 130.330  0.00  0.00    +0.167 C 
ENDROOT
BRANCH   5   9
ATOM      9  C   LIG A   1     -10.037   6.650 130.908  0.00  0.00    -0.015 A 
ATOM     10  C   LIG A   1     -11.241   6.439 131.626  0.00  0.00    +0.010 A 
ATOM     11  C   LIG A   1     -12.455   6.973 131.176  0.00  0.00    +0.050 A 
ATOM     12  C   LIG A   1     -12.445   7.713 130.018  0.00  0.00    +0.166 A 
ATOM     13  O   LIG A   1     -13.523   8.303 129.437  0.00  0.00    -0.453 OA
ATOM     14  C   LIG A   1     -12.910   8.914 128.283  0.00  0.00    +0.466 C 
ATOM     15  O   LIG A   1     -11.488   8.685 128.199  0.00  0.00    -0.453 OA
ATOM     16  C   LIG A   1     -11.284   7.930 129.312  0.00  0.00    +0.167 A 
ATOM     17  C   LIG A   1     -10.073   7.418 129.730  0.00  0.00    +0.055 A 
ENDBRANCH   5   9
BRANCH   6  18
ATOM     18  C   LIG A   1      -5.522   5.253 132.028  0.00  0.00    -0.015 A 
ATOM     19  C   LIG A   1      -4.655   5.538 133.090  0.00  0.00    +0.010 A 
ATOM     20  C   LIG A   1      -3.758   6.610 133.011  0.00  0.00    +0.050 A 
ATOM     21  C   LIG A   1      -3.683   7.412 131.865  0.00  0.00    +0.162 A 
ATOM     22  C   LIG A   1      -4.485   7.095 130.762  0.00  0.00    +0.162 A 
ATOM     23  C   LIG A   1      -5.405   6.040 130.867  0.00  0.00    +0.055 A 
BRANCH  22  24
ATOM     24  O   LIG A   1      -4.369   7.839 129.617  0.00  0.00    -0.491 OA
ATOM     25  C   LIG A   1      -3.457   7.346 128.639  0.00  0.00    +0.277 C 
ENDBRANCH  22  24
BRANCH  21  26
ATOM     26  O   LIG A   1      -2.745   8.409 131.953  0.00  0.00    -0.491 OA
ATOM     27  C   LIG A   1      -2.305   8.755 133.261  0.00  0.00    +0.277 C 
ENDBRANCH  21  26
ENDBRANCH   6  18
TORSDOF 4
ENDMDL
MODEL 7
REMARK VINA RESULT:      -7.7      6.394      9.807
REMARK  Name = NuBBE_488
REMARK  6 active torsions:
REMARK  status: ('A' for Active; 'I' for Inactive)
REMARK    1  A    between atoms: C_7  and  C_9
REMARK    2  A    between atoms: C_18  and  C_22
REMARK    3  A    between atoms: C_25  and  O_30
REMARK    4  A    between atoms: C_26  and  O_27
REMARK    5  A    between atoms: O_27  and  C_28
REMARK    6  A    between atoms: O_30  and  C_31
REMARK                            x       y       z     vdW  Elec       q    Type
REMARK                         _______ _______ _______ _____ _____    ______ ____
ROOT
ATOM      1  C   LIG A   1      -7.758   4.039 130.596  0.00  0.00    +0.056 C 
ATOM      2  C   LIG A   1      -8.774   4.164 131.702  0.00  0.00    +0.056 C 
ATOM      3  C   LIG A   1      -9.897   3.300 131.197  0.00  0.00    +0.167 C 
ATOM      4  O   LIG A   1      -9.902   3.410 129.771  0.00  0.00    -0.371 OA
ATOM      5  C   LIG A   1      -8.628   3.939 129.340  0.00  0.00    +0.154 C 
ATOM      6  C   LIG A   1      -8.960   5.681 131.859  0.00  0.00    +0.154 C 
ATOM      7  O   LIG A   1      -7.667   6.234 131.514  0.00  0.00    -0.371 OA
ATOM      8  C   LIG A   1      -6.926   5.289 130.727  0.00  0.00    +0.167 C 
ENDROOT
BRANCH   5   9
ATOM      9  C   LIG A   1      -8.023   3.057 128.263  0.00  0.00    -0.015 A 
ATOM     10  C   LIG A   1      -6.873   3.497 127.561  0.00  0.00    +0.010 A 
ATOM     11  C   LIG A   1      -6.288   2.706 126.563  0.00  0.00    +0.050 A 
ATOM     12  C   LIG A   1      -6.860   1.488 126.287  0.00  0.00    +0.166 A 
ATOM     13  O   LIG A   1      -6.429   0.595 125.356  0.00  0.00    -0.453 OA
ATOM     14  C   LIG A   1      -7.401  -0.459 125.519  0.00  0.00    +0.466 C 
ATOM     15  O   LIG A   1      -8.382  -0.182 126.540  0.00  0.00    -0.453 OA
ATOM     16  C   LIG A   1      -7.974   1.045 126.962  0.00  0.00    +0.167 A 
ATOM     17  C   LIG A   1      -8.572   1.801 127.950  0.00  0.00    +0.055 A 
ENDBRANCH   5   9
BRANCH   6  18
ATOM     18  C   LIG A   1     -10.052   6.430 131.109  0.00  0.00    -0.015 A 
ATOM     19  C   LIG A   1     -11.348   6.533 131.629  0.00  0.00    +0.010 A 
ATOM     20  C   LIG A   1     -12.337   7.249 130.944  0.00  0.00    +0.050 A 
ATOM     21  C   LIG A   1     -12.057   7.900 129.736  0.00  0.00    +0.162 A 
ATOM     22  C   LIG A   1     -10.748   7.876 129.240  0.00  0.00    +0.162 A 
ATOM     23  C   LIG A   1      -9.775   7.125 129.918  0.00  0.00    +0.055 A 
BRANCH  22  24
ATOM     24  O   LIG A   1     -10.457   8.564 128.091  0.00  0.00    -0.491 OA
ATOM     25  C   LIG A   1     -10.887   7.962 126.873  0.00  0.00    +0.277 C 
ENDBRANCH  22  24
BRANCH  21  26
ATOM     26  O   LIG A   1     -13.136   8.562 129.206  0.00  0.00    -0.491 OA
ATOM     27  C   LIG A   1     -13.223   9.957 129.477  0.00  0.00    +0.277 C 
ENDBRANCH  21  26
ENDBRANCH   6  18
TORSDOF 4
ENDMDL
MODEL 8
REMARK VINA RESULT:      -7.5      7.466     10.150
REMARK  Name = NuBBE_488
REMARK  6 active torsions:
REMARK  status: ('A' for Active; 'I' for Inactive)
REMARK    1  A    between atoms: C_7  and  C_9
REMARK    2  A    between atoms: C_18  and  C_22
REMARK    3  A    between atoms: C_25  and  O_30
REMARK    4  A    between atoms: C_26  and  O_27
REMARK    5  A    between atoms: O_27  and  C_28
REMARK    6  A    between atoms: O_30  and  C_31
REMARK                            x       y       z     vdW  Elec       q    Type
REMARK                         _______ _______ _______ _____ _____    ______ ____
ROOT
ATOM      1  C   LIG A   1      -5.717   6.121 132.568  0.00  0.00    +0.056 C 
ATOM      2  C   LIG A   1      -4.435   6.772 132.116  0.00  0.00    +0.056 C 
ATOM      3  C   LIG A   1      -4.908   7.655 130.993  0.00  0.00    +0.167 C 
ATOM      4  O   LIG A   1      -6.004   6.983 130.365  0.00  0.00    -0.371 OA
ATOM      5  C   LIG A   1      -6.501   5.963 131.261  0.00  0.00    +0.154 C 
ATOM      6  C   LIG A   1      -3.498   5.588 131.840  0.00  0.00    +0.154 C 
ATOM      7  O   LIG A   1      -3.918   4.575 132.788  0.00  0.00    -0.371 OA
ATOM      8  C   LIG A   1      -5.259   4.843 133.224  0.00  0.00    +0.167 C 
ENDROOT
BRANCH   5   9
ATOM      9  C   LIG A   1      -8.001   6.100 131.444  0.00  0.00    -0.015 A 
ATOM     10  C   LIG A   1      -8.618   5.557 132.598  0.00  0.00    +0.010 A 
ATOM     11  C   LIG A   1     -10.000   5.668 132.800  0.00  0.00    +0.050 A 
ATOM     12  C   LIG A   1     -10.740   6.325 131.846  0.00  0.00    +0.166 A 
ATOM     13  O   LIG A   1     -12.085   6.526 131.876  0.00  0.00    -0.453 OA
ATOM     14  C   LIG A   1     -12.280   7.247 130.642  0.00  0.00    +0.466 C 
ATOM     15  O   LIG A   1     -11.059   7.468 129.906  0.00  0.00    -0.453 OA
ATOM     16  C   LIG A   1     -10.155   6.861 130.723  0.00  0.00    +0.167 A 
ATOM     17  C   LIG A   1      -8.797   6.768 130.497  0.00  0.00    +0.055 A 
ENDBRANCH   5   9
BRANCH   6  18
ATOM     18  C   LIG A   1      -3.381   4.972 130.454  0.00  0.00    -0.015 A 
ATOM     19  C   LIG A   1      -2.656   5.606 129.438  0.00  0.00    +0.010 A 
ATOM     20  C   LIG A   1      -2.531   5.015 128.174  0.00  0.00    +0.050 A 
ATOM     21  C   LIG A   1      -3.106   3.769 127.895  0.00  0.00    +0.162 A 
ATOM     22  C   LIG A   1      -3.768   3.083 128.920  0.00  0.00    +0.162 A 
ATOM     23  C   LIG A   1      -3.916   3.701 130.171  0.00  0.00    +0.055 A 
BRANCH  22  24
ATOM     24  O   LIG A   1      -4.277   1.836 128.668  0.00  0.00    -0.491 OA
ATOM     25  C   LIG A   1      -5.667   1.662 128.926  0.00  0.00    +0.277 C 
ENDBRANCH  22  24
BRANCH  21  26
ATOM     26  O   LIG A   1      -2.878   3.334 126.614  0.00  0.00    -0.491 OA
ATOM     27  C   LIG A   1      -1.545   2.947 126.300  0.00  0.00    +0.277 C 
ENDBRANCH  21  26
ENDBRANCH   6  18
TORSDOF 4
ENDMDL
MODEL 9
REMARK VINA RESULT:      -7.4      2.698      8.440
REMARK  Name = NuBBE_488
REMARK  6 active torsions:
REMARK  status: ('A' for Active; 'I' for Inactive)
REMARK    1  A    between atoms: C_7  and  C_9
REMARK    2  A    between atoms: C_18  and  C_22
REMARK    3  A    between atoms: C_25  and  O_30
REMARK    4  A    between atoms: C_26  and  O_27
REMARK    5  A    between atoms: O_27  and  C_28
REMARK    6  A    between atoms: O_30  and  C_31
REMARK                            x       y       z     vdW  Elec       q    Type
REMARK                         _______ _______ _______ _____ _____    ______ ____
ROOT
ATOM      1  C   LIG A   1      -7.649  -2.900 126.083  0.00  0.00    +0.056 C 
ATOM      2  C   LIG A   1      -7.335  -2.683 124.625  0.00  0.00    +0.056 C 
ATOM      3  C   LIG A   1      -5.858  -2.398 124.660  0.00  0.00    +0.167 C 
ATOM      4  O   LIG A   1      -5.592  -1.714 125.888  0.00  0.00    -0.371 OA
ATOM      5  C   LIG A   1      -6.705  -1.921 126.787  0.00  0.00    +0.154 C 
ATOM      6  C   LIG A   1      -8.333  -1.599 124.191  0.00  0.00    +0.154 C 
ATOM      7  O   LIG A   1      -9.497  -1.837 125.020  0.00  0.00    -0.371 OA
ATOM      8  C   LIG A   1      -9.121  -2.588 126.184  0.00  0.00    +0.167 C 
ENDROOT
BRANCH   5   9
ATOM      9  C   LIG A   1      -6.216  -2.426 128.132  0.00  0.00    -0.015 A 
ATOM     10  C   LIG A   1      -4.842  -2.724 128.311  0.00  0.00    +0.010 A 
ATOM     11  C   LIG A   1      -4.356  -3.189 129.540  0.00  0.00    +0.050 A 
ATOM     12  C   LIG A   1      -5.252  -3.344 130.570  0.00  0.00    +0.166 A 
ATOM     13  O   LIG A   1      -4.960  -3.782 131.824  0.00  0.00    -0.453 OA
ATOM     14  C   LIG A   1      -6.265  -3.740 132.438  0.00  0.00    +0.466 C 
ATOM     15  O   LIG A   1      -7.303  -3.275 131.550  0.00  0.00    -0.453 OA
ATOM     16  C   LIG A   1      -6.588  -3.055 130.413  0.00  0.00    +0.167 A 
ATOM     17  C   LIG A   1      -7.095  -2.596 129.216  0.00  0.00    +0.055 A 
ENDBRANCH   5   9
BRANCH   6  18
ATOM     18  C   LIG A   1      -7.970  -0.122 124.232  0.00  0.00    -0.015 A 
ATOM     19  C   LIG A   1      -7.238   0.474 123.198  0.00  0.00    +0.010 A 
ATOM     20  C   LIG A   1      -6.935   1.841 123.233  0.00  0.00    +0.050 A 
ATOM     21  C   LIG A   1      -7.371   2.654 124.285  0.00  0.00    +0.162 A 
ATOM     22  C   LIG A   1      -8.171   2.095 125.289  0.00  0.00    +0.162 A 
ATOM     23  C   LIG A   1      -8.438   0.717 125.261  0.00  0.00    +0.055 A 
BRANCH  22  24
ATOM     24  O   LIG A   1      -8.652   2.902 126.287  0.00  0.00    -0.491 OA
ATOM     25  C   LIG A   1      -7.865   2.967 127.474  0.00  0.00    +0.277 C 
ENDBRANCH  22  24
BRANCH  21  26
ATOM     26  O   LIG A   1      -6.995   3.968 124.156  0.00  0.00    -0.491 OA
ATOM     27  C   LIG A   1      -5.606   4.217 123.972  0.00  0.00    +0.277 C 
ENDBRANCH  21  26
ENDBRANCH   6  18
TORSDOF 4
ENDMDL
