MODEL 1
REMARK VINA RESULT:      -7.6      0.000      0.000
REMARK  Name = NuBBE_1892
REMARK  9 active torsions:
REMARK  status: ('A' for Active; 'I' for Inactive)
REMARK    1  A    between atoms: C_5  and  O_6
REMARK    2  A    between atoms: O_6  and  C_7
REMARK    3  A    between atoms: C_8  and  O_9
REMARK    4  A    between atoms: O_9  and  C_10
REMARK    5  A    between atoms: C_15  and  C_16
REMARK    6  A    between atoms: C_19  and  O_20
REMARK    7  A    between atoms: O_20  and  C_21
REMARK    8  A    between atoms: C_22  and  O_23
REMARK    9  A    between atoms: O_23  and  C_24
REMARK                            x       y       z     vdW  Elec       q    Type
REMARK                         _______ _______ _______ _____ _____    ______ ____
ROOT
ATOM      1  O   LIG A   1     -10.739   3.735 130.048  0.00  0.00    -0.286 OA
ATOM      2  C   LIG A   1     -10.091   4.090 131.015  0.00  0.00    +0.200 A 
ATOM      3  C   LIG A   1      -9.261   3.108 131.725  0.00  0.00    +0.068 A 
ATOM      4  C   LIG A   1      -9.244   1.789 131.272  0.00  0.00    +0.064 A 
ATOM      5  C   LIG A   1      -8.484   0.829 131.943  0.00  0.00    +0.162 A 
ATOM      6  C   LIG A   1      -7.691   1.233 133.036  0.00  0.00    +0.165 A 
ATOM      7  C   LIG A   1      -7.729   2.570 133.479  0.00  0.00    +0.096 A 
ATOM      8  C   LIG A   1      -8.525   3.501 132.816  0.00  0.00    +0.142 A 
ATOM      9  O   LIG A   1      -8.541   4.793 133.290  0.00  0.00    -0.462 OA
ATOM     10  C   LIG A   1      -9.335   5.702 132.621  0.00  0.00    +0.208 A 
ATOM     11  C   LIG A   1     -10.097   5.478 131.536  0.00  0.00    +0.064 A 
ENDROOT
BRANCH  11  12
ATOM     12  C   LIG A   1     -10.902   6.549 130.902  0.00  0.00    -0.008 A 
ATOM     13  C   LIG A   1     -12.093   6.996 131.482  0.00  0.00    +0.012 A 
ATOM     14  C   LIG A   1     -12.874   7.981 130.878  0.00  0.00    +0.050 A 
ATOM     15  C   LIG A   1     -12.478   8.559 129.672  0.00  0.00    +0.162 A 
ATOM     16  C   LIG A   1     -11.294   8.114 129.061  0.00  0.00    +0.162 A 
ATOM     17  C   LIG A   1     -10.514   7.124 129.678  0.00  0.00    +0.058 A 
BRANCH  15  18
ATOM     18  O   LIG A   1     -13.188   9.534 129.017  0.00  0.00    -0.491 OA
ATOM     19  C   LIG A   1     -13.469  10.721 129.748  0.00  0.00    +0.277 C 
ENDBRANCH  15  18
BRANCH  16  20
ATOM     20  O   LIG A   1     -10.937   8.713 127.876  0.00  0.00    -0.491 OA
ATOM     21  C   LIG A   1     -10.955   7.872 126.727  0.00  0.00    +0.277 C 
ENDBRANCH  16  20
ENDBRANCH  11  12
BRANCH   5  22
ATOM     22  O   LIG A   1      -8.508  -0.494 131.604  0.00  0.00    -0.491 OA
ATOM     23  C   LIG A   1      -7.864  -0.901 130.403  0.00  0.00    +0.277 C 
ENDBRANCH   5  22
BRANCH   6  24
ATOM     24  O   LIG A   1      -6.862   0.434 133.785  0.00  0.00    -0.491 OA
ATOM     25  C   LIG A   1      -5.844   1.096 134.531  0.00  0.00    +0.277 C 
ENDBRANCH   6  24
TORSDOF 5
ENDMDL
MODEL 2
REMARK VINA RESULT:      -7.3      1.211      2.589
REMARK  Name = NuBBE_1892
REMARK  9 active torsions:
REMARK  status: ('A' for Active; 'I' for Inactive)
REMARK    1  A    between atoms: C_5  and  O_6
REMARK    2  A    between atoms: O_6  and  C_7
REMARK    3  A    between atoms: C_8  and  O_9
REMARK    4  A    between atoms: O_9  and  C_10
REMARK    5  A    between atoms: C_15  and  C_16
REMARK    6  A    between atoms: C_19  and  O_20
REMARK    7  A    between atoms: O_20  and  C_21
REMARK    8  A    between atoms: C_22  and  O_23
REMARK    9  A    between atoms: O_23  and  C_24
REMARK                            x       y       z     vdW  Elec       q    Type
REMARK                         _______ _______ _______ _____ _____    ______ ____
ROOT
ATOM      1  O   LIG A   1      -9.061   6.420 132.635  0.00  0.00    -0.286 OA
ATOM      2  C   LIG A   1      -9.381   5.354 132.143  0.00  0.00    +0.200 A 
ATOM      3  C   LIG A   1      -8.704   4.126 132.582  0.00  0.00    +0.068 A 
ATOM      4  C   LIG A   1      -7.705   4.218 133.551  0.00  0.00    +0.064 A 
ATOM      5  C   LIG A   1      -7.028   3.071 133.969  0.00  0.00    +0.162 A 
ATOM      6  C   LIG A   1      -7.418   1.823 133.444  0.00  0.00    +0.165 A 
ATOM      7  C   LIG A   1      -8.426   1.756 132.461  0.00  0.00    +0.096 A 
ATOM      8  C   LIG A   1      -9.060   2.918 132.033  0.00  0.00    +0.142 A 
ATOM      9  O   LIG A   1     -10.031   2.807 131.063  0.00  0.00    -0.462 OA
ATOM     10  C   LIG A   1     -10.649   3.971 130.651  0.00  0.00    +0.208 A 
ATOM     11  C   LIG A   1     -10.424   5.218 131.098  0.00  0.00    +0.064 A 
ENDROOT
BRANCH  11  12
ATOM     12  C   LIG A   1     -11.167   6.390 130.577  0.00  0.00    -0.008 A 
ATOM     13  C   LIG A   1     -12.208   6.967 131.309  0.00  0.00    +0.012 A 
ATOM     14  C   LIG A   1     -12.935   8.051 130.815  0.00  0.00    +0.050 A 
ATOM     15  C   LIG A   1     -12.631   8.598 129.569  0.00  0.00    +0.162 A 
ATOM     16  C   LIG A   1     -11.600   8.024 128.806  0.00  0.00    +0.162 A 
ATOM     17  C   LIG A   1     -10.874   6.936 129.314  0.00  0.00    +0.058 A 
BRANCH  15  18
ATOM     18  O   LIG A   1     -13.295   9.663 129.014  0.00  0.00    -0.491 OA
ATOM     19  C   LIG A   1     -13.438  10.822 129.827  0.00  0.00    +0.277 C 
ENDBRANCH  15  18
BRANCH  16  20
ATOM     20  O   LIG A   1     -11.330   8.596 127.585  0.00  0.00    -0.491 OA
ATOM     21  C   LIG A   1     -10.977   7.693 126.543  0.00  0.00    +0.277 C 
ENDBRANCH  16  20
ENDBRANCH  11  12
BRANCH   5  22
ATOM     22  O   LIG A   1      -5.977   3.117 134.840  0.00  0.00    -0.491 OA
ATOM     23  C   LIG A   1      -5.881   4.218 135.735  0.00  0.00    +0.277 C 
ENDBRANCH   5  22
BRANCH   6  24
ATOM     24  O   LIG A   1      -6.888   0.598 133.765  0.00  0.00    -0.491 OA
ATOM     25  C   LIG A   1      -7.102  -0.454 132.829  0.00  0.00    +0.277 C 
ENDBRANCH   6  24
TORSDOF 5
ENDMDL
MODEL 3
REMARK VINA RESULT:      -6.8      2.825      3.631
REMARK  Name = NuBBE_1892
REMARK  9 active torsions:
REMARK  status: ('A' for Active; 'I' for Inactive)
REMARK    1  A    between atoms: C_5  and  O_6
REMARK    2  A    between atoms: O_6  and  C_7
REMARK    3  A    between atoms: C_8  and  O_9
REMARK    4  A    between atoms: O_9  and  C_10
REMARK    5  A    between atoms: C_15  and  C_16
REMARK    6  A    between atoms: C_19  and  O_20
REMARK    7  A    between atoms: O_20  and  C_21
REMARK    8  A    between atoms: C_22  and  O_23
REMARK    9  A    between atoms: O_23  and  C_24
REMARK                            x       y       z     vdW  Elec       q    Type
REMARK                         _______ _______ _______ _____ _____    ______ ____
ROOT
ATOM      1  O   LIG A   1      -7.402   7.488 130.514  0.00  0.00    -0.286 OA
ATOM      2  C   LIG A   1      -7.775   6.696 131.359  0.00  0.00    +0.200 A 
ATOM      3  C   LIG A   1      -6.780   6.018 132.200  0.00  0.00    +0.068 A 
ATOM      4  C   LIG A   1      -5.428   6.299 132.002  0.00  0.00    +0.064 A 
ATOM      5  C   LIG A   1      -4.459   5.651 132.769  0.00  0.00    +0.162 A 
ATOM      6  C   LIG A   1      -4.876   4.767 133.784  0.00  0.00    +0.165 A 
ATOM      7  C   LIG A   1      -6.247   4.494 133.962  0.00  0.00    +0.096 A 
ATOM      8  C   LIG A   1      -7.193   5.124 133.158  0.00  0.00    +0.142 A 
ATOM      9  O   LIG A   1      -8.521   4.820 133.359  0.00  0.00    -0.462 OA
ATOM     10  C   LIG A   1      -9.443   5.454 132.553  0.00  0.00    +0.208 A 
ATOM     11  C   LIG A   1      -9.201   6.358 131.588  0.00  0.00    +0.064 A 
ENDROOT
BRANCH  11  12
ATOM     12  C   LIG A   1     -10.289   6.977 130.794  0.00  0.00    -0.008 A 
ATOM     13  C   LIG A   1     -11.598   7.030 131.283  0.00  0.00    +0.012 A 
ATOM     14  C   LIG A   1     -12.636   7.583 130.533  0.00  0.00    +0.050 A 
ATOM     15  C   LIG A   1     -12.390   8.109 129.265  0.00  0.00    +0.162 A 
ATOM     16  C   LIG A   1     -11.086   8.051 128.745  0.00  0.00    +0.162 A 
ATOM     17  C   LIG A   1     -10.050   7.496 129.509  0.00  0.00    +0.058 A 
BRANCH  15  18
ATOM     18  O   LIG A   1     -13.354   8.671 128.466  0.00  0.00    -0.491 OA
ATOM     19  C   LIG A   1     -13.699  10.025 128.734  0.00  0.00    +0.277 C 
ENDBRANCH  15  18
BRANCH  16  20
ATOM     20  O   LIG A   1     -10.887   8.585 127.493  0.00  0.00    -0.491 OA
ATOM     21  C   LIG A   1     -10.819   7.649 126.424  0.00  0.00    +0.277 C 
ENDBRANCH  16  20
ENDBRANCH  11  12
BRANCH   5  22
ATOM     22  O   LIG A   1      -3.121   5.813 132.550  0.00  0.00    -0.491 OA
ATOM     23  C   LIG A   1      -2.485   4.990 131.581  0.00  0.00    +0.277 C 
ENDBRANCH   5  22
BRANCH   6  24
ATOM     24  O   LIG A   1      -4.066   4.074 134.650  0.00  0.00    -0.491 OA
ATOM     25  C   LIG A   1      -3.841   2.699 134.350  0.00  0.00    +0.277 C 
ENDBRANCH   6  24
TORSDOF 5
ENDMDL
MODEL 4
REMARK VINA RESULT:      -6.8      8.640     11.322
REMARK  Name = NuBBE_1892
REMARK  9 active torsions:
REMARK  status: ('A' for Active; 'I' for Inactive)
REMARK    1  A    between atoms: C_5  and  O_6
REMARK    2  A    between atoms: O_6  and  C_7
REMARK    3  A    between atoms: C_8  and  O_9
REMARK    4  A    between atoms: O_9  and  C_10
REMARK    5  A    between atoms: C_15  and  C_16
REMARK    6  A    between atoms: C_19  and  O_20
REMARK    7  A    between atoms: O_20  and  C_21
REMARK    8  A    between atoms: C_22  and  O_23
REMARK    9  A    between atoms: O_23  and  C_24
REMARK                            x       y       z     vdW  Elec       q    Type
REMARK                         _______ _______ _______ _____ _____    ______ ____
ROOT
ATOM      1  O   LIG A   1      -8.446  -3.501 129.121  0.00  0.00    -0.286 OA
ATOM      2  C   LIG A   1      -7.411  -3.046 128.672  0.00  0.00    +0.200 A 
ATOM      3  C   LIG A   1      -7.384  -2.547 127.290  0.00  0.00    +0.068 A 
ATOM      4  C   LIG A   1      -8.549  -2.616 126.527  0.00  0.00    +0.064 A 
ATOM      5  C   LIG A   1      -8.545  -2.173 125.203  0.00  0.00    +0.162 A 
ATOM      6  C   LIG A   1      -7.368  -1.600 124.683  0.00  0.00    +0.165 A 
ATOM      7  C   LIG A   1      -6.201  -1.546 125.470  0.00  0.00    +0.096 A 
ATOM      8  C   LIG A   1      -6.219  -2.030 126.776  0.00  0.00    +0.142 A 
ATOM      9  O   LIG A   1      -5.054  -1.968 127.506  0.00  0.00    -0.462 OA
ATOM     10  C   LIG A   1      -5.092  -2.452 128.798  0.00  0.00    +0.208 A 
ATOM     11  C   LIG A   1      -6.148  -2.972 129.446  0.00  0.00    +0.064 A 
ENDROOT
BRANCH  11  12
ATOM     12  C   LIG A   1      -6.059  -3.451 130.846  0.00  0.00    -0.008 A 
ATOM     13  C   LIG A   1      -5.535  -4.712 131.145  0.00  0.00    +0.012 A 
ATOM     14  C   LIG A   1      -5.475  -5.185 132.456  0.00  0.00    +0.050 A 
ATOM     15  C   LIG A   1      -5.932  -4.400 133.514  0.00  0.00    +0.162 A 
ATOM     16  C   LIG A   1      -6.479  -3.136 133.237  0.00  0.00    +0.162 A 
ATOM     17  C   LIG A   1      -6.533  -2.669 131.915  0.00  0.00    +0.058 A 
BRANCH  15  18
ATOM     18  O   LIG A   1      -5.905  -4.791 134.829  0.00  0.00    -0.491 OA
ATOM     19  C   LIG A   1      -6.762  -5.866 135.194  0.00  0.00    +0.277 C 
ENDBRANCH  15  18
BRANCH  16  20
ATOM     20  O   LIG A   1      -6.915  -2.393 134.308  0.00  0.00    -0.491 OA
ATOM     21  C   LIG A   1      -6.058  -1.332 134.716  0.00  0.00    +0.277 C 
ENDBRANCH  16  20
ENDBRANCH  11  12
BRANCH   5  22
ATOM     22  O   LIG A   1      -9.628  -2.308 124.382  0.00  0.00    -0.491 OA
ATOM     23  C   LIG A   1      -9.663  -3.405 123.477  0.00  0.00    +0.277 C 
ENDBRANCH   5  22
BRANCH   6  24
ATOM     24  O   LIG A   1      -7.197  -1.085 123.421  0.00  0.00    -0.491 OA
ATOM     25  C   LIG A   1      -6.333  -1.808 122.550  0.00  0.00    +0.277 C 
ENDBRANCH   6  24
TORSDOF 5
ENDMDL
MODEL 5
REMARK VINA RESULT:      -6.6      7.648     11.267
REMARK  Name = NuBBE_1892
REMARK  9 active torsions:
REMARK  status: ('A' for Active; 'I' for Inactive)
REMARK    1  A    between atoms: C_5  and  O_6
REMARK    2  A    between atoms: O_6  and  C_7
REMARK    3  A    between atoms: C_8  and  O_9
REMARK    4  A    between atoms: O_9  and  C_10
REMARK    5  A    between atoms: C_15  and  C_16
REMARK    6  A    between atoms: C_19  and  O_20
REMARK    7  A    between atoms: O_20  and  C_21
REMARK    8  A    between atoms: C_22  and  O_23
REMARK    9  A    between atoms: O_23  and  C_24
REMARK                            x       y       z     vdW  Elec       q    Type
REMARK                         _______ _______ _______ _____ _____    ______ ____
ROOT
ATOM      1  O   LIG A   1      -5.788  -1.546 127.973  0.00  0.00    -0.286 OA
ATOM      2  C   LIG A   1      -6.806  -2.145 127.680  0.00  0.00    +0.200 A 
ATOM      3  C   LIG A   1      -7.417  -1.927 126.363  0.00  0.00    +0.068 A 
ATOM      4  C   LIG A   1      -6.814  -1.029 125.482  0.00  0.00    +0.064 A 
ATOM      5  C   LIG A   1      -7.387  -0.783 124.233  0.00  0.00    +0.162 A 
ATOM      6  C   LIG A   1      -8.540  -1.504 123.861  0.00  0.00    +0.165 A 
ATOM      7  C   LIG A   1      -9.135  -2.401 124.770  0.00  0.00    +0.096 A 
ATOM      8  C   LIG A   1      -8.566  -2.601 126.025  0.00  0.00    +0.142 A 
ATOM      9  O   LIG A   1      -9.186  -3.478 126.885  0.00  0.00    -0.462 OA
ATOM     10  C   LIG A   1      -8.608  -3.663 128.124  0.00  0.00    +0.208 A 
ATOM     11  C   LIG A   1      -7.486  -3.093 128.596  0.00  0.00    +0.064 A 
ENDROOT
BRANCH  11  12
ATOM     12  C   LIG A   1      -6.960  -3.386 129.951  0.00  0.00    -0.008 A 
ATOM     13  C   LIG A   1      -6.080  -4.449 130.169  0.00  0.00    +0.012 A 
ATOM     14  C   LIG A   1      -5.603  -4.753 131.444  0.00  0.00    +0.050 A 
ATOM     15  C   LIG A   1      -5.990  -3.989 132.545  0.00  0.00    +0.162 A 
ATOM     16  C   LIG A   1      -6.888  -2.926 132.354  0.00  0.00    +0.162 A 
ATOM     17  C   LIG A   1      -7.359  -2.627 131.067  0.00  0.00    +0.058 A 
BRANCH  15  18
ATOM     18  O   LIG A   1      -5.565  -4.221 133.829  0.00  0.00    -0.491 OA
ATOM     19  C   LIG A   1      -5.937  -5.464 134.412  0.00  0.00    +0.277 C 
ENDBRANCH  15  18
BRANCH  16  20
ATOM     20  O   LIG A   1      -7.241  -2.196 133.465  0.00  0.00    -0.491 OA
ATOM     21  C   LIG A   1      -6.650  -0.906 133.572  0.00  0.00    +0.277 C 
ENDBRANCH  16  20
ENDBRANCH  11  12
BRANCH   5  22
ATOM     22  O   LIG A   1      -6.896   0.157 123.373  0.00  0.00    -0.491 OA
ATOM     23  C   LIG A   1      -7.047   1.531 123.707  0.00  0.00    +0.277 C 
ENDBRANCH   5  22
BRANCH   6  24
ATOM     24  O   LIG A   1      -9.211  -1.413 122.666  0.00  0.00    -0.491 OA
ATOM     25  C   LIG A   1     -10.063  -0.284 122.498  0.00  0.00    +0.277 C 
ENDBRANCH   6  24
TORSDOF 5
ENDMDL
MODEL 6
REMARK VINA RESULT:      -6.6      1.782      8.208
REMARK  Name = NuBBE_1892
REMARK  9 active torsions:
REMARK  status: ('A' for Active; 'I' for Inactive)
REMARK    1  A    between atoms: C_5  and  O_6
REMARK    2  A    between atoms: O_6  and  C_7
REMARK    3  A    between atoms: C_8  and  O_9
REMARK    4  A    between atoms: O_9  and  C_10
REMARK    5  A    between atoms: C_15  and  C_16
REMARK    6  A    between atoms: C_19  and  O_20
REMARK    7  A    between atoms: O_20  and  C_21
REMARK    8  A    between atoms: C_22  and  O_23
REMARK    9  A    between atoms: O_23  and  C_24
REMARK                            x       y       z     vdW  Elec       q    Type
REMARK                         _______ _______ _______ _____ _____    ______ ____
ROOT
ATOM      1  O   LIG A   1      -7.884   5.888 130.172  0.00  0.00    -0.286 OA
ATOM      2  C   LIG A   1      -8.873   6.094 130.850  0.00  0.00    +0.200 A 
ATOM      3  C   LIG A   1     -10.004   6.829 130.268  0.00  0.00    +0.068 A 
ATOM      4  C   LIG A   1      -9.909   7.277 128.950  0.00  0.00    +0.064 A 
ATOM      5  C   LIG A   1     -10.959   7.999 128.379  0.00  0.00    +0.162 A 
ATOM      6  C   LIG A   1     -12.130   8.206 129.135  0.00  0.00    +0.165 A 
ATOM      7  C   LIG A   1     -12.200   7.751 130.466  0.00  0.00    +0.096 A 
ATOM      8  C   LIG A   1     -11.126   7.065 131.026  0.00  0.00    +0.142 A 
ATOM      9  O   LIG A   1     -11.233   6.648 132.333  0.00  0.00    -0.462 OA
ATOM     10  C   LIG A   1     -10.157   5.970 132.871  0.00  0.00    +0.208 A 
ATOM     11  C   LIG A   1      -9.004   5.651 132.259  0.00  0.00    +0.064 A 
ENDROOT
BRANCH  11  12
ATOM     12  C   LIG A   1      -7.923   4.907 132.949  0.00  0.00    -0.008 A 
ATOM     13  C   LIG A   1      -6.787   5.565 133.428  0.00  0.00    +0.012 A 
ATOM     14  C   LIG A   1      -5.750   4.872 134.052  0.00  0.00    +0.050 A 
ATOM     15  C   LIG A   1      -5.825   3.489 134.223  0.00  0.00    +0.162 A 
ATOM     16  C   LIG A   1      -6.949   2.803 133.733  0.00  0.00    +0.162 A 
ATOM     17  C   LIG A   1      -7.988   3.511 133.110  0.00  0.00    +0.058 A 
BRANCH  15  18
ATOM     18  O   LIG A   1      -4.851   2.735 134.826  0.00  0.00    -0.491 OA
ATOM     19  C   LIG A   1      -3.605   2.636 134.146  0.00  0.00    +0.277 C 
ENDBRANCH  15  18
BRANCH  16  20
ATOM     20  O   LIG A   1      -6.985   1.442 133.925  0.00  0.00    -0.491 OA
ATOM     21  C   LIG A   1      -7.109   0.653 132.747  0.00  0.00    +0.277 C 
ENDBRANCH  16  20
ENDBRANCH  11  12
BRANCH   5  22
ATOM     22  O   LIG A   1     -10.879   8.545 127.130  0.00  0.00    -0.491 OA
ATOM     23  C   LIG A   1     -10.984   7.684 126.003  0.00  0.00    +0.277 C 
ENDBRANCH   5  22
BRANCH   6  24
ATOM     24  O   LIG A   1     -13.265   8.861 128.723  0.00  0.00    -0.491 OA
ATOM     25  C   LIG A   1     -13.466  10.173 129.241  0.00  0.00    +0.277 C 
ENDBRANCH   6  24
TORSDOF 5
ENDMDL
MODEL 7
REMARK VINA RESULT:      -6.4      7.981      9.124
REMARK  Name = NuBBE_1892
REMARK  9 active torsions:
REMARK  status: ('A' for Active; 'I' for Inactive)
REMARK    1  A    between atoms: C_5  and  O_6
REMARK    2  A    between atoms: O_6  and  C_7
REMARK    3  A    between atoms: C_8  and  O_9
REMARK    4  A    between atoms: O_9  and  C_10
REMARK    5  A    between atoms: C_15  and  C_16
REMARK    6  A    between atoms: C_19  and  O_20
REMARK    7  A    between atoms: O_20  and  C_21
REMARK    8  A    between atoms: C_22  and  O_23
REMARK    9  A    between atoms: O_23  and  C_24
REMARK                            x       y       z     vdW  Elec       q    Type
REMARK                         _______ _______ _______ _____ _____    ______ ____
ROOT
ATOM      1  O   LIG A   1      -8.229  -1.299 130.889  0.00  0.00    -0.286 OA
ATOM      2  C   LIG A   1      -7.500  -2.273 130.936  0.00  0.00    +0.200 A 
ATOM      3  C   LIG A   1      -6.843  -2.620 132.202  0.00  0.00    +0.068 A 
ATOM      4  C   LIG A   1      -7.069  -1.817 133.320  0.00  0.00    +0.064 A 
ATOM      5  C   LIG A   1      -6.438  -2.109 134.530  0.00  0.00    +0.162 A 
ATOM      6  C   LIG A   1      -5.628  -3.259 134.614  0.00  0.00    +0.165 A 
ATOM      7  C   LIG A   1      -5.409  -4.052 133.470  0.00  0.00    +0.096 A 
ATOM      8  C   LIG A   1      -6.020  -3.719 132.264  0.00  0.00    +0.142 A 
ATOM      9  O   LIG A   1      -5.769  -4.514 131.169  0.00  0.00    -0.462 OA
ATOM     10  C   LIG A   1      -6.383  -4.168 129.983  0.00  0.00    +0.208 A 
ATOM     11  C   LIG A   1      -7.221  -3.140 129.765  0.00  0.00    +0.064 A 
ENDROOT
BRANCH  11  12
ATOM     12  C   LIG A   1      -7.825  -2.880 128.437  0.00  0.00    -0.008 A 
ATOM     13  C   LIG A   1      -8.824  -3.713 127.924  0.00  0.00    +0.012 A 
ATOM     14  C   LIG A   1      -9.379  -3.497 126.663  0.00  0.00    +0.050 A 
ATOM     15  C   LIG A   1      -8.952  -2.427 125.876  0.00  0.00    +0.162 A 
ATOM     16  C   LIG A   1      -7.937  -1.587 126.362  0.00  0.00    +0.162 A 
ATOM     17  C   LIG A   1      -7.388  -1.812 127.633  0.00  0.00    +0.058 A 
BRANCH  15  18
ATOM     18  O   LIG A   1      -9.448  -2.146 124.628  0.00  0.00    -0.491 OA
ATOM     19  C   LIG A   1      -9.301  -3.157 123.638  0.00  0.00    +0.277 C 
ENDBRANCH  15  18
BRANCH  16  20
ATOM     20  O   LIG A   1      -7.549  -0.542 125.557  0.00  0.00    -0.491 OA
ATOM     21  C   LIG A   1      -6.269  -0.671 124.948  0.00  0.00    +0.277 C 
ENDBRANCH  16  20
ENDBRANCH  11  12
BRANCH   5  22
ATOM     22  O   LIG A   1      -6.546  -1.301 135.627  0.00  0.00    -0.491 OA
ATOM     23  C   LIG A   1      -5.582  -0.272 135.811  0.00  0.00    +0.277 C 
ENDBRANCH   5  22
BRANCH   6  24
ATOM     24  O   LIG A   1      -4.963  -3.712 135.727  0.00  0.00    -0.491 OA
ATOM     25  C   LIG A   1      -3.600  -4.085 135.546  0.00  0.00    +0.277 C 
ENDBRANCH   6  24
TORSDOF 5
ENDMDL
MODEL 8
REMARK VINA RESULT:      -6.3      7.056      8.492
REMARK  Name = NuBBE_1892
REMARK  9 active torsions:
REMARK  status: ('A' for Active; 'I' for Inactive)
REMARK    1  A    between atoms: C_5  and  O_6
REMARK    2  A    between atoms: O_6  and  C_7
REMARK    3  A    between atoms: C_8  and  O_9
REMARK    4  A    between atoms: O_9  and  C_10
REMARK    5  A    between atoms: C_15  and  C_16
REMARK    6  A    between atoms: C_19  and  O_20
REMARK    7  A    between atoms: O_20  and  C_21
REMARK    8  A    between atoms: C_22  and  O_23
REMARK    9  A    between atoms: O_23  and  C_24
REMARK                            x       y       z     vdW  Elec       q    Type
REMARK                         _______ _______ _______ _____ _____    ______ ____
ROOT
ATOM      1  O   LIG A   1      -8.253  -2.613 129.858  0.00  0.00    -0.286 OA
ATOM      2  C   LIG A   1      -7.076  -2.457 129.590  0.00  0.00    +0.200 A 
ATOM      3  C   LIG A   1      -6.053  -3.026 130.478  0.00  0.00    +0.068 A 
ATOM      4  C   LIG A   1      -6.462  -3.728 131.612  0.00  0.00    +0.064 A 
ATOM      5  C   LIG A   1      -5.512  -4.258 132.486  0.00  0.00    +0.162 A 
ATOM      6  C   LIG A   1      -4.146  -4.127 132.166  0.00  0.00    +0.165 A 
ATOM      7  C   LIG A   1      -3.757  -3.408 131.019  0.00  0.00    +0.096 A 
ATOM      8  C   LIG A   1      -4.723  -2.855 130.181  0.00  0.00    +0.142 A 
ATOM      9  O   LIG A   1      -4.297  -2.151 129.077  0.00  0.00    -0.462 OA
ATOM     10  C   LIG A   1      -5.269  -1.611 128.260  0.00  0.00    +0.208 A 
ATOM     11  C   LIG A   1      -6.603  -1.702 128.405  0.00  0.00    +0.064 A 
ENDROOT
BRANCH  11  12
ATOM     12  C   LIG A   1      -7.545  -1.080 127.445  0.00  0.00    -0.008 A 
ATOM     13  C   LIG A   1      -7.908   0.265 127.558  0.00  0.00    +0.012 A 
ATOM     14  C   LIG A   1      -8.817   0.853 126.679  0.00  0.00    +0.050 A 
ATOM     15  C   LIG A   1      -9.388   0.108 125.648  0.00  0.00    +0.162 A 
ATOM     16  C   LIG A   1      -9.052  -1.251 125.524  0.00  0.00    +0.162 A 
ATOM     17  C   LIG A   1      -8.134  -1.831 126.412  0.00  0.00    +0.058 A 
BRANCH  15  18
ATOM     18  O   LIG A   1     -10.287   0.611 124.742  0.00  0.00    -0.491 OA
ATOM     19  C   LIG A   1      -9.809   1.617 123.857  0.00  0.00    +0.277 C 
ENDBRANCH  15  18
BRANCH  16  20
ATOM     20  O   LIG A   1      -9.634  -1.949 124.491  0.00  0.00    -0.491 OA
ATOM     21  C   LIG A   1      -8.833  -2.967 123.903  0.00  0.00    +0.277 C 
ENDBRANCH  16  20
ENDBRANCH  11  12
BRANCH   5  22
ATOM     22  O   LIG A   1      -5.855  -4.867 133.660  0.00  0.00    -0.491 OA
ATOM     23  C   LIG A   1      -6.969  -4.365 134.388  0.00  0.00    +0.277 C 
ENDBRANCH   5  22
BRANCH   6  24
ATOM     24  O   LIG A   1      -3.085  -4.613 132.890  0.00  0.00    -0.491 OA
ATOM     25  C   LIG A   1      -2.626  -3.803 133.968  0.00  0.00    +0.277 C 
ENDBRANCH   6  24
TORSDOF 5
ENDMDL
MODEL 9
REMARK VINA RESULT:      -6.2      2.484      4.290
REMARK  Name = NuBBE_1892
REMARK  9 active torsions:
REMARK  status: ('A' for Active; 'I' for Inactive)
REMARK    1  A    between atoms: C_5  and  O_6
REMARK    2  A    between atoms: O_6  and  C_7
REMARK    3  A    between atoms: C_8  and  O_9
REMARK    4  A    between atoms: O_9  and  C_10
REMARK    5  A    between atoms: C_15  and  C_16
REMARK    6  A    between atoms: C_19  and  O_20
REMARK    7  A    between atoms: O_20  and  C_21
REMARK    8  A    between atoms: C_22  and  O_23
REMARK    9  A    between atoms: O_23  and  C_24
REMARK                            x       y       z     vdW  Elec       q    Type
REMARK                         _______ _______ _______ _____ _____    ______ ____
ROOT
ATOM      1  O   LIG A   1      -8.325   2.092 128.195  0.00  0.00    -0.286 OA
ATOM      2  C   LIG A   1      -8.420   1.536 129.274  0.00  0.00    +0.200 A 
ATOM      3  C   LIG A   1      -7.940   0.156 129.418  0.00  0.00    +0.068 A 
ATOM      4  C   LIG A   1      -7.389  -0.484 128.307  0.00  0.00    +0.064 A 
ATOM      5  C   LIG A   1      -6.947  -1.804 128.409  0.00  0.00    +0.162 A 
ATOM      6  C   LIG A   1      -7.008  -2.446 129.662  0.00  0.00    +0.165 A 
ATOM      7  C   LIG A   1      -7.574  -1.782 130.768  0.00  0.00    +0.096 A 
ATOM      8  C   LIG A   1      -8.043  -0.478 130.632  0.00  0.00    +0.142 A 
ATOM      9  O   LIG A   1      -8.598   0.129 131.736  0.00  0.00    -0.462 OA
ATOM     10  C   LIG A   1      -9.057   1.421 131.583  0.00  0.00    +0.208 A 
ATOM     11  C   LIG A   1      -9.016   2.177 130.472  0.00  0.00    +0.064 A 
ENDROOT
BRANCH  11  12
ATOM     12  C   LIG A   1      -9.538   3.564 130.440  0.00  0.00    -0.008 A 
ATOM     13  C   LIG A   1     -10.911   3.816 130.391  0.00  0.00    +0.012 A 
ATOM     14  C   LIG A   1     -11.414   5.116 130.331  0.00  0.00    +0.050 A 
ATOM     15  C   LIG A   1     -10.548   6.210 130.325  0.00  0.00    +0.162 A 
ATOM     16  C   LIG A   1      -9.162   5.981 130.355  0.00  0.00    +0.162 A 
ATOM     17  C   LIG A   1      -8.668   4.670 130.419  0.00  0.00    +0.058 A 
BRANCH  15  18
ATOM     18  O   LIG A   1     -10.961   7.517 130.269  0.00  0.00    -0.491 OA
ATOM     19  C   LIG A   1     -12.366   7.745 130.268  0.00  0.00    +0.277 C 
ENDBRANCH  15  18
BRANCH  16  20
ATOM     20  O   LIG A   1      -8.344   7.086 130.353  0.00  0.00    -0.491 OA
ATOM     21  C   LIG A   1      -7.131   6.961 131.085  0.00  0.00    +0.277 C 
ENDBRANCH  16  20
ENDBRANCH  11  12
BRANCH   5  22
ATOM     22  O   LIG A   1      -6.493  -2.510 127.332  0.00  0.00    -0.491 OA
ATOM     23  C   LIG A   1      -7.256  -2.489 126.132  0.00  0.00    +0.277 C 
ENDBRANCH   5  22
BRANCH   6  24
ATOM     24  O   LIG A   1      -6.589  -3.722 129.948  0.00  0.00    -0.491 OA
ATOM     25  C   LIG A   1      -6.093  -3.949 131.265  0.00  0.00    +0.277 C 
ENDBRANCH   6  24
TORSDOF 5
ENDMDL
