MODEL 1
REMARK VINA RESULT:      -7.0      0.000      0.000
REMARK  Name = NuBBE_2471
REMARK  21 active torsions:
REMARK  status: ('A' for Active; 'I' for Inactive)
REMARK    1  A    between atoms: C_1  and  O_2
REMARK    2  A    between atoms: O_2  and  C_3
REMARK    3  A    between atoms: C_4  and  O_5
REMARK    4  A    between atoms: O_5  and  C_6
REMARK    5  A    between atoms: C_9  and  C_10
REMARK    6  A    between atoms: C_10  and  C_11
REMARK    7  A    between atoms: C_11  and  C_13
REMARK    8  A    between atoms: C_11  and  C_31
REMARK    9  A    between atoms: C_13  and  C_15
REMARK   10  A    between atoms: C_13  and  C_20
REMARK   11  A    between atoms: C_15  and  O_16
REMARK   12  A    between atoms: O_16  and  C_17
REMARK   13  A    between atoms: C_17  and  C_18
REMARK   14  A    between atoms: C_20  and  C_21
REMARK   15  A    between atoms: C_24  and  O_25
REMARK   16  A    between atoms: O_25  and  C_26
REMARK   17  A    between atoms: C_27  and  O_28
REMARK   18  A    between atoms: O_28  and  C_29
REMARK   19  A    between atoms: C_31  and  O_32
REMARK   20  A    between atoms: O_32  and  C_33
REMARK   21  A    between atoms: C_33  and  C_34
REMARK                            x       y       z     vdW  Elec       q    Type
REMARK                         _______ _______ _______ _____ _____    ______ ____
ROOT
ATOM      1  C   LIG A   1      -7.046   5.800 131.181  0.00  0.00    +0.038 C 
ENDROOT
BRANCH   1   2
ATOM      2  C   LIG A   1      -8.328   6.126 132.020  0.00  0.00    +0.042 C 
BRANCH   2   7
ATOM      3  C   LIG A   1     -10.572   7.807 129.321  0.00  0.00    +0.162 A 
ATOM      4  C   LIG A   1     -11.839   7.709 129.907  0.00  0.00    +0.162 A 
ATOM      5  C   LIG A   1     -11.946   6.958 131.097  0.00  0.00    +0.050 A 
ATOM      6  C   LIG A   1     -10.827   6.398 131.739  0.00  0.00    +0.007 A 
ATOM      7  C   LIG A   1      -9.547   6.584 131.221  0.00  0.00    -0.043 A 
ATOM      8  C   LIG A   1      -9.459   7.187 129.952  0.00  0.00    +0.053 A 
BRANCH   3  10
ATOM      9  C   LIG A   1     -10.802   7.929 126.950  0.00  0.00    +0.277 C 
ATOM     10  O   LIG A   1     -10.231   8.436 128.151  0.00  0.00    -0.491 OA
ENDBRANCH   3  10
BRANCH   4  11
ATOM     11  O   LIG A   1     -13.016   8.318 129.562  0.00  0.00    -0.491 OA
ATOM     12  C   LIG A   1     -13.144   9.731 129.472  0.00  0.00    +0.277 C 
ENDBRANCH   4  11
ENDBRANCH   2   7
ENDBRANCH   1   2
BRANCH   1  13
ATOM     13  C   LIG A   1      -6.670   4.264 131.242  0.00  0.00    +0.038 C 
BRANCH  13  14
ATOM     14  C   LIG A   1      -6.757   3.656 132.677  0.00  0.00    +0.236 C 
BRANCH  14  15
ATOM     15  O   LIG A   1      -7.637   2.500 132.672  0.00  0.00    -0.465 OA
BRANCH  15  16
ATOM     16  C   LIG A   1      -8.976   2.744 132.926  0.00  0.00    +0.304 C 
ATOM     17  C   LIG A   1      -9.838   1.982 131.924  0.00  0.00    +0.136 C 
ATOM     18  O   LIG A   1      -9.414   3.350 133.825  0.00  0.00    -0.251 OA
ENDBRANCH  15  16
ENDBRANCH  14  15
ENDBRANCH  13  14
BRANCH  13  19
ATOM     19  C   LIG A   1      -5.271   3.997 130.654  0.00  0.00    +0.042 C 
BRANCH  19  20
ATOM     20  C   LIG A   1      -5.165   3.938 129.141  0.00  0.00    -0.043 A 
ATOM     21  C   LIG A   1      -6.256   3.812 128.302  0.00  0.00    +0.007 A 
ATOM     22  C   LIG A   1      -6.402   3.948 126.942  0.00  0.00    +0.050 A 
ATOM     23  C   LIG A   1      -5.255   4.009 126.231  0.00  0.00    +0.162 A 
ATOM     24  C   LIG A   1      -4.054   3.976 126.993  0.00  0.00    +0.162 A 
ATOM     25  C   LIG A   1      -4.020   4.039 128.431  0.00  0.00    +0.053 A 
BRANCH  23  26
ATOM     26  O   LIG A   1      -5.300   4.022 124.865  0.00  0.00    -0.491 OA
ATOM     27  C   LIG A   1      -6.604   4.224 124.278  0.00  0.00    +0.277 C 
ENDBRANCH  23  26
BRANCH  24  28
ATOM     28  O   LIG A   1      -2.871   3.864 126.311  0.00  0.00    -0.491 OA
ATOM     29  C   LIG A   1      -1.910   3.143 127.079  0.00  0.00    +0.277 C 
ENDBRANCH  24  28
ENDBRANCH  19  20
ENDBRANCH  13  19
ENDBRANCH   1  13
BRANCH   1  30
ATOM     30  C   LIG A   1      -5.839   6.780 131.418  0.00  0.00    +0.236 C 
BRANCH  30  31
ATOM     31  O   LIG A   1      -5.510   7.567 130.220  0.00  0.00    -0.465 OA
BRANCH  31  32
ATOM     32  C   LIG A   1      -4.227   7.584 129.706  0.00  0.00    +0.304 C 
ATOM     33  C   LIG A   1      -3.190   7.363 130.911  0.00  0.00    +0.136 C 
ATOM     34  O   LIG A   1      -3.974   7.486 128.522  0.00  0.00    -0.251 OA
ENDBRANCH  31  32
ENDBRANCH  30  31
ENDBRANCH   1  30
TORSDOF 15
ENDMDL
MODEL 2
REMARK VINA RESULT:      -6.8      2.188      6.120
REMARK  Name = NuBBE_2471
REMARK  21 active torsions:
REMARK  status: ('A' for Active; 'I' for Inactive)
REMARK    1  A    between atoms: C_1  and  O_2
REMARK    2  A    between atoms: O_2  and  C_3
REMARK    3  A    between atoms: C_4  and  O_5
REMARK    4  A    between atoms: O_5  and  C_6
REMARK    5  A    between atoms: C_9  and  C_10
REMARK    6  A    between atoms: C_10  and  C_11
REMARK    7  A    between atoms: C_11  and  C_13
REMARK    8  A    between atoms: C_11  and  C_31
REMARK    9  A    between atoms: C_13  and  C_15
REMARK   10  A    between atoms: C_13  and  C_20
REMARK   11  A    between atoms: C_15  and  O_16
REMARK   12  A    between atoms: O_16  and  C_17
REMARK   13  A    between atoms: C_17  and  C_18
REMARK   14  A    between atoms: C_20  and  C_21
REMARK   15  A    between atoms: C_24  and  O_25
REMARK   16  A    between atoms: O_25  and  C_26
REMARK   17  A    between atoms: C_27  and  O_28
REMARK   18  A    between atoms: O_28  and  C_29
REMARK   19  A    between atoms: C_31  and  O_32
REMARK   20  A    between atoms: O_32  and  C_33
REMARK   21  A    between atoms: C_33  and  C_34
REMARK                            x       y       z     vdW  Elec       q    Type
REMARK                         _______ _______ _______ _____ _____    ______ ____
ROOT
ATOM      1  C   LIG A   1      -8.666   5.398 131.535  0.00  0.00    +0.038 C 
ENDROOT
BRANCH   1   2
ATOM      2  C   LIG A   1      -7.940   6.742 131.187  0.00  0.00    +0.042 C 
BRANCH   2   7
ATOM      3  C   LIG A   1      -4.389   6.283 132.713  0.00  0.00    +0.162 A 
ATOM      4  C   LIG A   1      -3.606   7.044 131.837  0.00  0.00    +0.162 A 
ATOM      5  C   LIG A   1      -4.237   7.559 130.685  0.00  0.00    +0.050 A 
ATOM      6  C   LIG A   1      -5.614   7.407 130.447  0.00  0.00    +0.007 A 
ATOM      7  C   LIG A   1      -6.423   6.744 131.368  0.00  0.00    -0.043 A 
ATOM      8  C   LIG A   1      -5.769   6.089 132.429  0.00  0.00    +0.053 A 
BRANCH   3  10
ATOM      9  C   LIG A   1      -4.138   6.360 135.084  0.00  0.00    +0.277 C 
ATOM     10  O   LIG A   1      -3.993   5.646 133.860  0.00  0.00    -0.491 OA
ENDBRANCH   3  10
BRANCH   4  11
ATOM     11  O   LIG A   1      -2.310   7.470 131.961  0.00  0.00    -0.491 OA
ATOM     12  C   LIG A   1      -1.202   6.639 131.640  0.00  0.00    +0.277 C 
ENDBRANCH   4  11
ENDBRANCH   2   7
ENDBRANCH   1   2
BRANCH   1  13
ATOM     13  C   LIG A   1      -9.360   4.752 130.268  0.00  0.00    +0.038 C 
BRANCH  13  14
ATOM     14  C   LIG A   1     -10.877   4.451 130.472  0.00  0.00    +0.236 C 
BRANCH  14  15
ATOM     15  O   LIG A   1     -11.677   5.418 129.739  0.00  0.00    -0.465 OA
BRANCH  15  16
ATOM     16  C   LIG A   1     -12.009   6.580 130.414  0.00  0.00    +0.304 C 
ATOM     17  C   LIG A   1     -11.473   7.789 129.653  0.00  0.00    +0.136 C 
ATOM     18  O   LIG A   1     -12.684   6.664 131.366  0.00  0.00    -0.251 OA
ENDBRANCH  15  16
ENDBRANCH  14  15
ENDBRANCH  13  14
BRANCH  13  19
ATOM     19  C   LIG A   1      -8.637   3.469 129.817  0.00  0.00    +0.042 C 
BRANCH  19  20
ATOM     20  C   LIG A   1      -7.126   3.544 129.688  0.00  0.00    -0.043 A 
ATOM     21  C   LIG A   1      -6.478   4.191 128.653  0.00  0.00    +0.007 A 
ATOM     22  C   LIG A   1      -5.166   4.552 128.462  0.00  0.00    +0.050 A 
ATOM     23  C   LIG A   1      -4.275   4.010 129.321  0.00  0.00    +0.162 A 
ATOM     24  C   LIG A   1      -4.825   3.181 130.338  0.00  0.00    +0.162 A 
ATOM     25  C   LIG A   1      -6.238   3.035 130.570  0.00  0.00    +0.053 A 
BRANCH  23  26
ATOM     26  O   LIG A   1      -2.937   4.214 129.134  0.00  0.00    -0.491 OA
ATOM     27  C   LIG A   1      -2.563   4.864 127.899  0.00  0.00    +0.277 C 
ENDBRANCH  23  26
BRANCH  24  28
ATOM     28  O   LIG A   1      -3.952   2.476 131.124  0.00  0.00    -0.491 OA
ATOM     29  C   LIG A   1      -4.466   2.331 132.446  0.00  0.00    +0.277 C 
ENDBRANCH  24  28
ENDBRANCH  19  20
ENDBRANCH  13  19
ENDBRANCH   1  13
BRANCH   1  30
ATOM     30  C   LIG A   1      -9.570   5.454 132.821  0.00  0.00    +0.236 C 
BRANCH  30  31
ATOM     31  O   LIG A   1      -9.571   4.185 133.563  0.00  0.00    -0.465 OA
BRANCH  31  32
ATOM     32  C   LIG A   1      -8.401   3.479 133.775  0.00  0.00    +0.304 C 
ATOM     33  C   LIG A   1      -7.501   4.286 134.831  0.00  0.00    +0.136 C 
ATOM     34  O   LIG A   1      -8.243   2.322 133.441  0.00  0.00    -0.251 OA
ENDBRANCH  31  32
ENDBRANCH  30  31
ENDBRANCH   1  30
TORSDOF 15
ENDMDL
MODEL 3
REMARK VINA RESULT:      -6.7      5.361      9.532
REMARK  Name = NuBBE_2471
REMARK  21 active torsions:
REMARK  status: ('A' for Active; 'I' for Inactive)
REMARK    1  A    between atoms: C_1  and  O_2
REMARK    2  A    between atoms: O_2  and  C_3
REMARK    3  A    between atoms: C_4  and  O_5
REMARK    4  A    between atoms: O_5  and  C_6
REMARK    5  A    between atoms: C_9  and  C_10
REMARK    6  A    between atoms: C_10  and  C_11
REMARK    7  A    between atoms: C_11  and  C_13
REMARK    8  A    between atoms: C_11  and  C_31
REMARK    9  A    between atoms: C_13  and  C_15
REMARK   10  A    between atoms: C_13  and  C_20
REMARK   11  A    between atoms: C_15  and  O_16
REMARK   12  A    between atoms: O_16  and  C_17
REMARK   13  A    between atoms: C_17  and  C_18
REMARK   14  A    between atoms: C_20  and  C_21
REMARK   15  A    between atoms: C_24  and  O_25
REMARK   16  A    between atoms: O_25  and  C_26
REMARK   17  A    between atoms: C_27  and  O_28
REMARK   18  A    between atoms: O_28  and  C_29
REMARK   19  A    between atoms: C_31  and  O_32
REMARK   20  A    between atoms: O_32  and  C_33
REMARK   21  A    between atoms: C_33  and  C_34
REMARK                            x       y       z     vdW  Elec       q    Type
REMARK                         _______ _______ _______ _____ _____    ______ ____
ROOT
ATOM      1  C   LIG A   1      -6.879   1.983 125.174  0.00  0.00    +0.038 C 
ENDROOT
BRANCH   1   2
ATOM      2  C   LIG A   1      -8.025   0.915 125.178  0.00  0.00    +0.042 C 
BRANCH   2   7
ATOM      3  C   LIG A   1      -7.724  -2.965 125.100  0.00  0.00    +0.162 A 
ATOM      4  C   LIG A   1      -6.594  -3.143 124.292  0.00  0.00    +0.162 A 
ATOM      5  C   LIG A   1      -6.055  -1.998 123.671  0.00  0.00    +0.050 A 
ATOM      6  C   LIG A   1      -6.555  -0.705 123.906  0.00  0.00    +0.007 A 
ATOM      7  C   LIG A   1      -7.611  -0.505 124.794  0.00  0.00    -0.043 A 
ATOM      8  C   LIG A   1      -8.254  -1.658 125.283  0.00  0.00    +0.053 A 
BRANCH   3  10
ATOM      9  C   LIG A   1      -9.047  -3.547 126.997  0.00  0.00    +0.277 C 
ATOM     10  O   LIG A   1      -8.445  -3.923 125.763  0.00  0.00    -0.491 OA
ENDBRANCH   3  10
BRANCH   4  11
ATOM     11  O   LIG A   1      -5.839  -4.265 124.073  0.00  0.00    -0.491 OA
ATOM     12  C   LIG A   1      -4.458  -4.200 123.744  0.00  0.00    +0.277 C 
ENDBRANCH   4  11
ENDBRANCH   2   7
ENDBRANCH   1   2
BRANCH   1  13
ATOM     13  C   LIG A   1      -6.215   2.147 126.602  0.00  0.00    +0.038 C 
BRANCH  13  14
ATOM     14  C   LIG A   1      -5.510   3.524 126.808  0.00  0.00    +0.236 C 
BRANCH  14  15
ATOM     15  O   LIG A   1      -4.220   3.524 126.139  0.00  0.00    -0.465 OA
BRANCH  15  16
ATOM     16  C   LIG A   1      -3.155   4.044 126.856  0.00  0.00    +0.304 C 
ATOM     17  C   LIG A   1      -1.938   3.136 126.701  0.00  0.00    +0.136 C 
ATOM     18  O   LIG A   1      -3.127   5.070 127.417  0.00  0.00    -0.251 OA
ENDBRANCH  15  16
ENDBRANCH  14  15
ENDBRANCH  13  14
BRANCH  13  19
ATOM     19  C   LIG A   1      -5.219   1.010 126.899  0.00  0.00    +0.042 C 
BRANCH  19  20
ATOM     20  C   LIG A   1      -5.751  -0.176 127.685  0.00  0.00    -0.043 A 
ATOM     21  C   LIG A   1      -5.284  -1.467 127.530  0.00  0.00    +0.007 A 
ATOM     22  C   LIG A   1      -5.467  -2.615 128.264  0.00  0.00    +0.050 A 
ATOM     23  C   LIG A   1      -6.442  -2.566 129.197  0.00  0.00    +0.162 A 
ATOM     24  C   LIG A   1      -7.111  -1.318 129.327  0.00  0.00    +0.162 A 
ATOM     25  C   LIG A   1      -6.698  -0.118 128.647  0.00  0.00    +0.053 A 
BRANCH  23  26
ATOM     26  O   LIG A   1      -6.779  -3.695 129.890  0.00  0.00    -0.491 OA
ATOM     27  C   LIG A   1      -5.676  -4.467 130.414  0.00  0.00    +0.277 C 
ENDBRANCH  23  26
BRANCH  24  28
ATOM     28  O   LIG A   1      -8.215  -1.269 130.137  0.00  0.00    -0.491 OA
ATOM     29  C   LIG A   1      -7.911  -0.620 131.370  0.00  0.00    +0.277 C 
ENDBRANCH  24  28
ENDBRANCH  19  20
ENDBRANCH  13  19
ENDBRANCH   1  13
BRANCH   1  30
ATOM     30  C   LIG A   1      -7.246   3.336 124.462  0.00  0.00    +0.236 C 
BRANCH  30  31
ATOM     31  O   LIG A   1      -7.024   3.285 123.010  0.00  0.00    -0.465 OA
BRANCH  31  32
ATOM     32  C   LIG A   1      -5.865   3.785 122.445  0.00  0.00    +0.304 C 
ATOM     33  C   LIG A   1      -5.666   3.109 121.003  0.00  0.00    +0.136 C 
ATOM     34  O   LIG A   1      -5.287   4.771 122.856  0.00  0.00    -0.251 OA
ENDBRANCH  31  32
ENDBRANCH  30  31
ENDBRANCH   1  30
TORSDOF 15
ENDMDL
MODEL 4
REMARK VINA RESULT:      -6.6      2.075      6.571
REMARK  Name = NuBBE_2471
REMARK  21 active torsions:
REMARK  status: ('A' for Active; 'I' for Inactive)
REMARK    1  A    between atoms: C_1  and  O_2
REMARK    2  A    between atoms: O_2  and  C_3
REMARK    3  A    between atoms: C_4  and  O_5
REMARK    4  A    between atoms: O_5  and  C_6
REMARK    5  A    between atoms: C_9  and  C_10
REMARK    6  A    between atoms: C_10  and  C_11
REMARK    7  A    between atoms: C_11  and  C_13
REMARK    8  A    between atoms: C_11  and  C_31
REMARK    9  A    between atoms: C_13  and  C_15
REMARK   10  A    between atoms: C_13  and  C_20
REMARK   11  A    between atoms: C_15  and  O_16
REMARK   12  A    between atoms: O_16  and  C_17
REMARK   13  A    between atoms: C_17  and  C_18
REMARK   14  A    between atoms: C_20  and  C_21
REMARK   15  A    between atoms: C_24  and  O_25
REMARK   16  A    between atoms: O_25  and  C_26
REMARK   17  A    between atoms: C_27  and  O_28
REMARK   18  A    between atoms: O_28  and  C_29
REMARK   19  A    between atoms: C_31  and  O_32
REMARK   20  A    between atoms: O_32  and  C_33
REMARK   21  A    between atoms: C_33  and  C_34
REMARK                            x       y       z     vdW  Elec       q    Type
REMARK                         _______ _______ _______ _____ _____    ______ ____
ROOT
ATOM      1  C   LIG A   1      -9.387   4.817 130.304  0.00  0.00    +0.038 C 
ENDROOT
BRANCH   1   2
ATOM      2  C   LIG A   1      -8.858   3.438 129.782  0.00  0.00    +0.042 C 
BRANCH   2   7
ATOM      3  C   LIG A   1      -5.077   2.523 129.905  0.00  0.00    +0.162 A 
ATOM      4  C   LIG A   1      -4.523   3.507 129.078  0.00  0.00    +0.162 A 
ATOM      5  C   LIG A   1      -5.416   4.347 128.381  0.00  0.00    +0.050 A 
ATOM      6  C   LIG A   1      -6.809   4.281 128.560  0.00  0.00    +0.007 A 
ATOM      7  C   LIG A   1      -7.365   3.377 129.464  0.00  0.00    -0.043 A 
ATOM      8  C   LIG A   1      -6.491   2.431 130.032  0.00  0.00    +0.053 A 
BRANCH   3  10
ATOM      9  C   LIG A   1      -4.304   1.791 132.039  0.00  0.00    +0.277 C 
ATOM     10  O   LIG A   1      -4.420   1.569 130.638  0.00  0.00    -0.491 OA
ENDBRANCH   3  10
BRANCH   4  11
ATOM     11  O   LIG A   1      -3.214   3.869 128.899  0.00  0.00    -0.491 OA
ATOM     12  C   LIG A   1      -2.541   3.704 127.658  0.00  0.00    +0.277 C 
ENDBRANCH   4  11
ENDBRANCH   2   7
ENDBRANCH   1   2
BRANCH   1  13
ATOM     13  C   LIG A   1      -8.684   5.251 131.654  0.00  0.00    +0.038 C 
BRANCH  13  14
ATOM     14  C   LIG A   1      -9.660   5.330 132.870  0.00  0.00    +0.236 C 
BRANCH  14  15
ATOM     15  O   LIG A   1      -9.515   4.144 133.697  0.00  0.00    -0.465 OA
BRANCH  15  16
ATOM     16  C   LIG A   1      -8.300   3.989 134.344  0.00  0.00    +0.304 C 
ATOM     17  C   LIG A   1      -7.559   2.788 133.765  0.00  0.00    +0.136 C 
ATOM     18  O   LIG A   1      -7.839   4.710 135.141  0.00  0.00    -0.251 OA
ENDBRANCH  15  16
ENDBRANCH  14  15
ENDBRANCH  13  14
BRANCH  13  19
ATOM     19  C   LIG A   1      -7.942   6.592 131.503  0.00  0.00    +0.042 C 
BRANCH  19  20
ATOM     20  C   LIG A   1      -6.425   6.538 131.503  0.00  0.00    -0.043 A 
ATOM     21  C   LIG A   1      -5.688   5.755 132.371  0.00  0.00    +0.007 A 
ATOM     22  C   LIG A   1      -4.359   5.404 132.403  0.00  0.00    +0.050 A 
ATOM     23  C   LIG A   1      -3.547   6.096 131.574  0.00  0.00    +0.162 A 
ATOM     24  C   LIG A   1      -4.188   7.059 130.745  0.00  0.00    +0.162 A 
ATOM     25  C   LIG A   1      -5.617   7.201 130.647  0.00  0.00    +0.053 A 
BRANCH  23  26
ATOM     26  O   LIG A   1      -2.195   5.902 131.625  0.00  0.00    -0.491 OA
ATOM     27  C   LIG A   1      -1.737   4.892 132.550  0.00  0.00    +0.277 C 
ENDBRANCH  23  26
BRANCH  24  28
ATOM     28  O   LIG A   1      -3.390   7.900 130.015  0.00  0.00    -0.491 OA
ATOM     29  C   LIG A   1      -3.377   7.519 128.641  0.00  0.00    +0.277 C 
ENDBRANCH  24  28
ENDBRANCH  19  20
ENDBRANCH  13  19
ENDBRANCH   1  13
BRANCH   1  30
ATOM     30  C   LIG A   1     -10.953   4.961 130.305  0.00  0.00    +0.236 C 
BRANCH  30  31
ATOM     31  O   LIG A   1     -11.395   6.290 129.855  0.00  0.00    -0.465 OA
BRANCH  31  32
ATOM     32  C   LIG A   1     -12.176   7.095 130.663  0.00  0.00    +0.304 C 
ATOM     33  C   LIG A   1     -12.617   8.389 129.822  0.00  0.00    +0.136 C 
ATOM     34  O   LIG A   1     -12.667   6.724 131.710  0.00  0.00    -0.251 OA
ENDBRANCH  31  32
ENDBRANCH  30  31
ENDBRANCH   1  30
TORSDOF 15
ENDMDL
MODEL 5
REMARK VINA RESULT:      -6.6      5.802      7.631
REMARK  Name = NuBBE_2471
REMARK  21 active torsions:
REMARK  status: ('A' for Active; 'I' for Inactive)
REMARK    1  A    between atoms: C_1  and  O_2
REMARK    2  A    between atoms: O_2  and  C_3
REMARK    3  A    between atoms: C_4  and  O_5
REMARK    4  A    between atoms: O_5  and  C_6
REMARK    5  A    between atoms: C_9  and  C_10
REMARK    6  A    between atoms: C_10  and  C_11
REMARK    7  A    between atoms: C_11  and  C_13
REMARK    8  A    between atoms: C_11  and  C_31
REMARK    9  A    between atoms: C_13  and  C_15
REMARK   10  A    between atoms: C_13  and  C_20
REMARK   11  A    between atoms: C_15  and  O_16
REMARK   12  A    between atoms: O_16  and  C_17
REMARK   13  A    between atoms: C_17  and  C_18
REMARK   14  A    between atoms: C_20  and  C_21
REMARK   15  A    between atoms: C_24  and  O_25
REMARK   16  A    between atoms: O_25  and  C_26
REMARK   17  A    between atoms: C_27  and  O_28
REMARK   18  A    between atoms: O_28  and  C_29
REMARK   19  A    between atoms: C_31  and  O_32
REMARK   20  A    between atoms: O_32  and  C_33
REMARK   21  A    between atoms: C_33  and  C_34
REMARK                            x       y       z     vdW  Elec       q    Type
REMARK                         _______ _______ _______ _____ _____    ______ ____
ROOT
ATOM      1  C   LIG A   1      -6.644  -0.323 129.626  0.00  0.00    +0.038 C 
ENDROOT
BRANCH   1   2
ATOM      2  C   LIG A   1      -7.551   0.876 129.187  0.00  0.00    +0.042 C 
BRANCH   2   7
ATOM      3  C   LIG A   1      -8.252   2.095 125.558  0.00  0.00    +0.162 A 
ATOM      4  C   LIG A   1      -6.985   1.978 124.972  0.00  0.00    +0.162 A 
ATOM      5  C   LIG A   1      -5.907   1.652 125.821  0.00  0.00    +0.050 A 
ATOM      6  C   LIG A   1      -6.082   1.361 127.186  0.00  0.00    +0.007 A 
ATOM      7  C   LIG A   1      -7.354   1.368 127.754  0.00  0.00    -0.043 A 
ATOM      8  C   LIG A   1      -8.404   1.854 126.951  0.00  0.00    +0.053 A 
BRANCH   3  10
ATOM      9  C   LIG A   1     -10.092   1.444 124.188  0.00  0.00    +0.277 C 
ATOM     10  O   LIG A   1      -9.431   2.446 124.953  0.00  0.00    -0.491 OA
ENDBRANCH   3  10
BRANCH   4  11
ATOM     11  O   LIG A   1      -6.619   2.034 123.654  0.00  0.00    -0.491 OA
ATOM     12  C   LIG A   1      -6.583   3.254 122.925  0.00  0.00    +0.277 C 
ENDBRANCH   4  11
ENDBRANCH   2   7
ENDBRANCH   1   2
BRANCH   1  13
ATOM     13  C   LIG A   1      -7.492  -1.612 129.979  0.00  0.00    +0.038 C 
BRANCH  13  14
ATOM     14  C   LIG A   1      -7.293  -2.110 131.445  0.00  0.00    +0.236 C 
BRANCH  14  15
ATOM     15  O   LIG A   1      -7.014  -3.536 131.449  0.00  0.00    -0.465 OA
BRANCH  15  16
ATOM     16  C   LIG A   1      -5.978  -3.958 132.264  0.00  0.00    +0.304 C 
ATOM     17  C   LIG A   1      -5.306  -5.182 131.650  0.00  0.00    +0.136 C 
ATOM     18  O   LIG A   1      -5.585  -3.421 133.226  0.00  0.00    -0.251 OA
ENDBRANCH  15  16
ENDBRANCH  14  15
ENDBRANCH  13  14
BRANCH  13  19
ATOM     19  C   LIG A   1      -7.205  -2.766 129.000  0.00  0.00    +0.042 C 
BRANCH  19  20
ATOM     20  C   LIG A   1      -7.239  -2.432 127.519  0.00  0.00    -0.043 A 
ATOM     21  C   LIG A   1      -8.402  -2.165 126.823  0.00  0.00    +0.007 A 
ATOM     22  C   LIG A   1      -8.635  -1.649 125.570  0.00  0.00    +0.050 A 
ATOM     23  C   LIG A   1      -7.560  -1.570 124.757  0.00  0.00    +0.162 A 
ATOM     24  C   LIG A   1      -6.323  -1.983 125.326  0.00  0.00    +0.162 A 
ATOM     25  C   LIG A   1      -6.158  -2.314 126.718  0.00  0.00    +0.053 A 
BRANCH  23  26
ATOM     26  O   LIG A   1      -7.716  -1.184 123.455  0.00  0.00    -0.491 OA
ATOM     27  C   LIG A   1      -8.652  -1.960 122.675  0.00  0.00    +0.277 C 
ENDBRANCH  23  26
BRANCH  24  28
ATOM     28  O   LIG A   1      -5.240  -2.081 124.493  0.00  0.00    -0.491 OA
ATOM     29  C   LIG A   1      -5.088  -3.415 124.015  0.00  0.00    +0.277 C 
ENDBRANCH  24  28
ENDBRANCH  19  20
ENDBRANCH  13  19
ENDBRANCH   1  13
BRANCH   1  30
ATOM     30  C   LIG A   1      -5.538   0.043 130.683  0.00  0.00    +0.236 C 
BRANCH  30  31
ATOM     31  O   LIG A   1      -4.196  -0.390 130.265  0.00  0.00    -0.465 OA
BRANCH  31  32
ATOM     32  C   LIG A   1      -3.637  -1.556 130.754  0.00  0.00    +0.304 C 
ATOM     33  C   LIG A   1      -3.551  -2.623 129.558  0.00  0.00    +0.136 C 
ATOM     34  O   LIG A   1      -3.054  -1.629 131.818  0.00  0.00    -0.251 OA
ENDBRANCH  31  32
ENDBRANCH  30  31
ENDBRANCH   1  30
TORSDOF 15
ENDMDL
MODEL 6
REMARK VINA RESULT:      -6.6      5.404     10.030
REMARK  Name = NuBBE_2471
REMARK  21 active torsions:
REMARK  status: ('A' for Active; 'I' for Inactive)
REMARK    1  A    between atoms: C_1  and  O_2
REMARK    2  A    between atoms: O_2  and  C_3
REMARK    3  A    between atoms: C_4  and  O_5
REMARK    4  A    between atoms: O_5  and  C_6
REMARK    5  A    between atoms: C_9  and  C_10
REMARK    6  A    between atoms: C_10  and  C_11
REMARK    7  A    between atoms: C_11  and  C_13
REMARK    8  A    between atoms: C_11  and  C_31
REMARK    9  A    between atoms: C_13  and  C_15
REMARK   10  A    between atoms: C_13  and  C_20
REMARK   11  A    between atoms: C_15  and  O_16
REMARK   12  A    between atoms: O_16  and  C_17
REMARK   13  A    between atoms: C_17  and  C_18
REMARK   14  A    between atoms: C_20  and  C_21
REMARK   15  A    between atoms: C_24  and  O_25
REMARK   16  A    between atoms: O_25  and  C_26
REMARK   17  A    between atoms: C_27  and  O_28
REMARK   18  A    between atoms: O_28  and  C_29
REMARK   19  A    between atoms: C_31  and  O_32
REMARK   20  A    between atoms: O_32  and  C_33
REMARK   21  A    between atoms: C_33  and  C_34
REMARK                            x       y       z     vdW  Elec       q    Type
REMARK                         _______ _______ _______ _____ _____    ______ ____
ROOT
ATOM      1  C   LIG A   1      -7.924  -2.024 126.082  0.00  0.00    +0.038 C 
ENDROOT
BRANCH   1   2
ATOM      2  C   LIG A   1      -8.342  -2.974 127.255  0.00  0.00    +0.042 C 
BRANCH   2   7
ATOM      3  C   LIG A   1      -5.236  -2.786 129.593  0.00  0.00    +0.162 A 
ATOM      4  C   LIG A   1      -5.793  -3.134 130.830  0.00  0.00    +0.162 A 
ATOM      5  C   LIG A   1      -7.195  -3.269 130.893  0.00  0.00    +0.050 A 
ATOM      6  C   LIG A   1      -8.017  -3.155 129.758  0.00  0.00    +0.007 A 
ATOM      7  C   LIG A   1      -7.461  -2.916 128.502  0.00  0.00    -0.043 A 
ATOM      8  C   LIG A   1      -6.086  -2.617 128.466  0.00  0.00    +0.053 A 
BRANCH   3  10
ATOM      9  C   LIG A   1      -3.064  -3.688 129.193  0.00  0.00    +0.277 C 
ATOM     10  O   LIG A   1      -3.917  -2.553 129.298  0.00  0.00    -0.491 OA
ENDBRANCH   3  10
BRANCH   4  11
ATOM     11  O   LIG A   1      -5.178  -3.471 132.006  0.00  0.00    -0.491 OA
ATOM     12  C   LIG A   1      -5.866  -4.125 133.064  0.00  0.00    +0.277 C 
ENDBRANCH   4  11
ENDBRANCH   2   7
ENDBRANCH   1   2
BRANCH   1  13
ATOM     13  C   LIG A   1      -8.573  -0.587 126.220  0.00  0.00    +0.038 C 
BRANCH  13  14
ATOM     14  C   LIG A   1      -9.067   0.009 124.866  0.00  0.00    +0.236 C 
BRANCH  14  15
ATOM     15  O   LIG A   1      -9.545   1.366 125.067  0.00  0.00    -0.465 OA
BRANCH  15  16
ATOM     16  C   LIG A   1      -9.177   2.297 124.110  0.00  0.00    +0.304 C 
ATOM     17  C   LIG A   1      -8.383   3.423 124.766  0.00  0.00    +0.136 C 
ATOM     18  O   LIG A   1      -9.342   2.211 122.955  0.00  0.00    -0.251 OA
ENDBRANCH  15  16
ENDBRANCH  14  15
ENDBRANCH  13  14
BRANCH  13  19
ATOM     19  C   LIG A   1      -7.613   0.407 126.900  0.00  0.00    +0.042 C 
BRANCH  19  20
ATOM     20  C   LIG A   1      -8.078   1.022 128.209  0.00  0.00    -0.043 A 
ATOM     21  C   LIG A   1      -7.906   0.418 129.440  0.00  0.00    +0.007 A 
ATOM     22  C   LIG A   1      -8.053   0.878 130.727  0.00  0.00    +0.050 A 
ATOM     23  C   LIG A   1      -8.680   2.067 130.859  0.00  0.00    +0.162 A 
ATOM     24  C   LIG A   1      -9.055   2.705 129.644  0.00  0.00    +0.162 A 
ATOM     25  C   LIG A   1      -8.668   2.230 128.342  0.00  0.00    +0.053 A 
BRANCH  23  26
ATOM     26  O   LIG A   1      -8.980   2.545 132.104  0.00  0.00    -0.491 OA
ATOM     27  C   LIG A   1      -7.980   2.323 133.123  0.00  0.00    +0.277 C 
ENDBRANCH  23  26
BRANCH  24  28
ATOM     28  O   LIG A   1      -9.840   3.825 129.730  0.00  0.00    -0.491 OA
ATOM     29  C   LIG A   1      -9.056   5.006 129.574  0.00  0.00    +0.277 C 
ENDBRANCH  24  28
ENDBRANCH  19  20
ENDBRANCH  13  19
ENDBRANCH   1  13
BRANCH   1  30
ATOM     30  C   LIG A   1      -8.041  -2.661 124.649  0.00  0.00    +0.236 C 
BRANCH  30  31
ATOM     31  O   LIG A   1      -6.841  -3.422 124.272  0.00  0.00    -0.465 OA
BRANCH  31  32
ATOM     32  C   LIG A   1      -5.845  -2.853 123.500  0.00  0.00    +0.304 C 
ATOM     33  C   LIG A   1      -4.533  -3.772 123.600  0.00  0.00    +0.136 C 
ATOM     34  O   LIG A   1      -6.046  -1.984 122.676  0.00  0.00    -0.251 OA
ENDBRANCH  31  32
ENDBRANCH  30  31
ENDBRANCH   1  30
TORSDOF 15
ENDMDL
MODEL 7
REMARK VINA RESULT:      -6.6      5.547      9.815
REMARK  Name = NuBBE_2471
REMARK  21 active torsions:
REMARK  status: ('A' for Active; 'I' for Inactive)
REMARK    1  A    between atoms: C_1  and  O_2
REMARK    2  A    between atoms: O_2  and  C_3
REMARK    3  A    between atoms: C_4  and  O_5
REMARK    4  A    between atoms: O_5  and  C_6
REMARK    5  A    between atoms: C_9  and  C_10
REMARK    6  A    between atoms: C_10  and  C_11
REMARK    7  A    between atoms: C_11  and  C_13
REMARK    8  A    between atoms: C_11  and  C_31
REMARK    9  A    between atoms: C_13  and  C_15
REMARK   10  A    between atoms: C_13  and  C_20
REMARK   11  A    between atoms: C_15  and  O_16
REMARK   12  A    between atoms: O_16  and  C_17
REMARK   13  A    between atoms: C_17  and  C_18
REMARK   14  A    between atoms: C_20  and  C_21
REMARK   15  A    between atoms: C_24  and  O_25
REMARK   16  A    between atoms: O_25  and  C_26
REMARK   17  A    between atoms: C_27  and  O_28
REMARK   18  A    between atoms: O_28  and  C_29
REMARK   19  A    between atoms: C_31  and  O_32
REMARK   20  A    between atoms: O_32  and  C_33
REMARK   21  A    between atoms: C_33  and  C_34
REMARK                            x       y       z     vdW  Elec       q    Type
REMARK                         _______ _______ _______ _____ _____    ______ ____
ROOT
ATOM      1  C   LIG A   1      -7.464  -2.197 125.814  0.00  0.00    +0.038 C 
ENDROOT
BRANCH   1   2
ATOM      2  C   LIG A   1      -8.306  -2.495 127.101  0.00  0.00    +0.042 C 
BRANCH   2   7
ATOM      3  C   LIG A   1      -5.384  -3.084 129.603  0.00  0.00    +0.162 A 
ATOM      4  C   LIG A   1      -6.077  -3.281 130.804  0.00  0.00    +0.162 A 
ATOM      5  C   LIG A   1      -7.470  -3.062 130.790  0.00  0.00    +0.050 A 
ATOM      6  C   LIG A   1      -8.174  -2.748 129.615  0.00  0.00    +0.007 A 
ATOM      7  C   LIG A   1      -7.508  -2.658 128.393  0.00  0.00    -0.043 A 
ATOM      8  C   LIG A   1      -6.102  -2.711 128.434  0.00  0.00    +0.053 A 
BRANCH   3  10
ATOM      9  C   LIG A   1      -3.197  -2.218 130.000  0.00  0.00    +0.277 C 
ATOM     10  O   LIG A   1      -4.035  -3.188 129.382  0.00  0.00    -0.491 OA
ENDBRANCH   3  10
BRANCH   4  11
ATOM     11  O   LIG A   1      -5.631  -3.760 132.007  0.00  0.00    -0.491 OA
ATOM     12  C   LIG A   1      -5.149  -5.087 132.167  0.00  0.00    +0.277 C 
ENDBRANCH   4  11
ENDBRANCH   2   7
ENDBRANCH   1   2
BRANCH   1  13
ATOM     13  C   LIG A   1      -7.409  -0.649 125.485  0.00  0.00    +0.038 C 
BRANCH  13  14
ATOM     14  C   LIG A   1      -8.030  -0.282 124.102  0.00  0.00    +0.236 C 
BRANCH  14  15
ATOM     15  O   LIG A   1      -9.342   0.313 124.291  0.00  0.00    -0.465 OA
BRANCH  15  16
ATOM     16  C   LIG A   1      -9.927   0.884 123.173  0.00  0.00    +0.304 C 
ATOM     17  C   LIG A   1      -9.149   2.131 122.764  0.00  0.00    +0.136 C 
ATOM     18  O   LIG A   1     -10.816   0.445 122.551  0.00  0.00    -0.251 OA
ENDBRANCH  15  16
ENDBRANCH  14  15
ENDBRANCH  13  14
BRANCH  13  19
ATOM     19  C   LIG A   1      -5.972  -0.102 125.565  0.00  0.00    +0.042 C 
BRANCH  19  20
ATOM     20  C   LIG A   1      -5.819   1.386 125.828  0.00  0.00    -0.043 A 
ATOM     21  C   LIG A   1      -5.564   1.920 127.076  0.00  0.00    +0.007 A 
ATOM     22  C   LIG A   1      -5.191   3.176 127.490  0.00  0.00    +0.050 A 
ATOM     23  C   LIG A   1      -5.281   4.152 126.560  0.00  0.00    +0.162 A 
ATOM     24  C   LIG A   1      -5.702   3.735 125.267  0.00  0.00    +0.162 A 
ATOM     25  C   LIG A   1      -5.870   2.356 124.889  0.00  0.00    +0.053 A 
BRANCH  23  26
ATOM     26  O   LIG A   1      -5.049   5.452 126.912  0.00  0.00    -0.491 OA
ATOM     27  C   LIG A   1      -3.934   5.676 127.803  0.00  0.00    +0.277 C 
ENDBRANCH  23  26
BRANCH  24  28
ATOM     28  O   LIG A   1      -5.971   4.709 124.341  0.00  0.00    -0.491 OA
ATOM     29  C   LIG A   1      -5.621   4.271 123.030  0.00  0.00    +0.277 C 
ENDBRANCH  24  28
ENDBRANCH  19  20
ENDBRANCH  13  19
ENDBRANCH   1  13
BRANCH   1  30
ATOM     30  C   LIG A   1      -7.798  -3.117 124.583  0.00  0.00    +0.236 C 
BRANCH  30  31
ATOM     31  O   LIG A   1      -6.653  -3.941 124.170  0.00  0.00    -0.465 OA
BRANCH  31  32
ATOM     32  C   LIG A   1      -5.534  -3.373 123.590  0.00  0.00    +0.304 C 
ATOM     33  C   LIG A   1      -4.295  -4.376 123.777  0.00  0.00    +0.136 C 
ATOM     34  O   LIG A   1      -5.577  -2.428 122.828  0.00  0.00    -0.251 OA
ENDBRANCH  31  32
ENDBRANCH  30  31
ENDBRANCH   1  30
TORSDOF 15
ENDMDL
MODEL 8
REMARK VINA RESULT:      -6.5      5.114      8.734
REMARK  Name = NuBBE_2471
REMARK  21 active torsions:
REMARK  status: ('A' for Active; 'I' for Inactive)
REMARK    1  A    between atoms: C_1  and  O_2
REMARK    2  A    between atoms: O_2  and  C_3
REMARK    3  A    between atoms: C_4  and  O_5
REMARK    4  A    between atoms: O_5  and  C_6
REMARK    5  A    between atoms: C_9  and  C_10
REMARK    6  A    between atoms: C_10  and  C_11
REMARK    7  A    between atoms: C_11  and  C_13
REMARK    8  A    between atoms: C_11  and  C_31
REMARK    9  A    between atoms: C_13  and  C_15
REMARK   10  A    between atoms: C_13  and  C_20
REMARK   11  A    between atoms: C_15  and  O_16
REMARK   12  A    between atoms: O_16  and  C_17
REMARK   13  A    between atoms: C_17  and  C_18
REMARK   14  A    between atoms: C_20  and  C_21
REMARK   15  A    between atoms: C_24  and  O_25
REMARK   16  A    between atoms: O_25  and  C_26
REMARK   17  A    between atoms: C_27  and  O_28
REMARK   18  A    between atoms: O_28  and  C_29
REMARK   19  A    between atoms: C_31  and  O_32
REMARK   20  A    between atoms: O_32  and  C_33
REMARK   21  A    between atoms: C_33  and  C_34
REMARK                            x       y       z     vdW  Elec       q    Type
REMARK                         _______ _______ _______ _____ _____    ______ ____
ROOT
ATOM      1  C   LIG A   1      -8.273  -0.381 126.480  0.00  0.00    +0.038 C 
ENDROOT
BRANCH   1   2
ATOM      2  C   LIG A   1      -7.083   0.472 127.039  0.00  0.00    +0.042 C 
BRANCH   2   7
ATOM      3  C   LIG A   1      -6.289   0.988 130.814  0.00  0.00    +0.162 A 
ATOM      4  C   LIG A   1      -7.540   1.369 131.315  0.00  0.00    +0.162 A 
ATOM      5  C   LIG A   1      -8.570   1.597 130.380  0.00  0.00    +0.050 A 
ATOM      6  C   LIG A   1      -8.403   1.370 129.002  0.00  0.00    +0.007 A 
ATOM      7  C   LIG A   1      -7.194   0.885 128.506  0.00  0.00    -0.043 A 
ATOM      8  C   LIG A   1      -6.119   0.817 129.413  0.00  0.00    +0.053 A 
BRANCH   3  10
ATOM      9  C   LIG A   1      -4.127   1.763 131.457  0.00  0.00    +0.277 C 
ATOM     10  O   LIG A   1      -5.134   0.758 131.516  0.00  0.00    -0.491 OA
ENDBRANCH   3  10
BRANCH   4  11
ATOM     11  O   LIG A   1      -7.974   1.469 132.611  0.00  0.00    -0.491 OA
ATOM     12  C   LIG A   1      -8.736   2.575 133.075  0.00  0.00    +0.277 C 
ENDBRANCH   4  11
ENDBRANCH   2   7
ENDBRANCH   1   2
BRANCH   1  13
ATOM     13  C   LIG A   1      -7.841  -1.871 126.169  0.00  0.00    +0.038 C 
BRANCH  13  14
ATOM     14  C   LIG A   1      -8.414  -2.420 124.825  0.00  0.00    +0.236 C 
BRANCH  14  15
ATOM     15  O   LIG A   1      -7.367  -3.104 124.084  0.00  0.00    -0.465 OA
BRANCH  15  16
ATOM     16  C   LIG A   1      -6.377  -2.305 123.538  0.00  0.00    +0.304 C 
ATOM     17  C   LIG A   1      -5.017  -2.971 123.725  0.00  0.00    +0.136 C 
ATOM     18  O   LIG A   1      -6.535  -1.319 122.928  0.00  0.00    -0.251 OA
ENDBRANCH  15  16
ENDBRANCH  14  15
ENDBRANCH  13  14
BRANCH  13  19
ATOM     19  C   LIG A   1      -8.220  -2.825 127.317  0.00  0.00    +0.042 C 
BRANCH  19  20
ATOM     20  C   LIG A   1      -7.406  -2.715 128.595  0.00  0.00    -0.043 A 
ATOM     21  C   LIG A   1      -7.965  -2.528 129.844  0.00  0.00    +0.007 A 
ATOM     22  C   LIG A   1      -7.447  -2.612 131.115  0.00  0.00    +0.050 A 
ATOM     23  C   LIG A   1      -6.101  -2.683 131.197  0.00  0.00    +0.162 A 
ATOM     24  C   LIG A   1      -5.407  -2.713 129.956  0.00  0.00    +0.162 A 
ATOM     25  C   LIG A   1      -6.062  -2.827 128.679  0.00  0.00    +0.053 A 
BRANCH  23  26
ATOM     26  O   LIG A   1      -5.490  -2.646 132.419  0.00  0.00    -0.491 OA
ATOM     27  C   LIG A   1      -6.329  -2.956 133.554  0.00  0.00    +0.277 C 
ENDBRANCH  23  26
BRANCH  24  28
ATOM     28  O   LIG A   1      -4.041  -2.613 129.988  0.00  0.00    -0.491 OA
ATOM     29  C   LIG A   1      -3.440  -3.632 129.192  0.00  0.00    +0.277 C 
ENDBRANCH  24  28
ENDBRANCH  19  20
ENDBRANCH  13  19
ENDBRANCH   1  13
BRANCH   1  30
ATOM     30  C   LIG A   1      -9.098   0.315 125.336  0.00  0.00    +0.236 C 
BRANCH  30  31
ATOM     31  O   LIG A   1      -9.328   1.744 125.598  0.00  0.00    -0.465 OA
BRANCH  31  32
ATOM     32  C   LIG A   1      -8.927   2.710 124.694  0.00  0.00    +0.304 C 
ATOM     33  C   LIG A   1      -9.119   2.131 123.209  0.00  0.00    +0.136 C 
ATOM     34  O   LIG A   1      -8.749   3.875 124.987  0.00  0.00    -0.251 OA
ENDBRANCH  31  32
ENDBRANCH  30  31
ENDBRANCH   1  30
TORSDOF 15
ENDMDL
MODEL 9
REMARK VINA RESULT:      -6.4      5.416      8.654
REMARK  Name = NuBBE_2471
REMARK  21 active torsions:
REMARK  status: ('A' for Active; 'I' for Inactive)
REMARK    1  A    between atoms: C_1  and  O_2
REMARK    2  A    between atoms: O_2  and  C_3
REMARK    3  A    between atoms: C_4  and  O_5
REMARK    4  A    between atoms: O_5  and  C_6
REMARK    5  A    between atoms: C_9  and  C_10
REMARK    6  A    between atoms: C_10  and  C_11
REMARK    7  A    between atoms: C_11  and  C_13
REMARK    8  A    between atoms: C_11  and  C_31
REMARK    9  A    between atoms: C_13  and  C_15
REMARK   10  A    between atoms: C_13  and  C_20
REMARK   11  A    between atoms: C_15  and  O_16
REMARK   12  A    between atoms: O_16  and  C_17
REMARK   13  A    between atoms: C_17  and  C_18
REMARK   14  A    between atoms: C_20  and  C_21
REMARK   15  A    between atoms: C_24  and  O_25
REMARK   16  A    between atoms: O_25  and  C_26
REMARK   17  A    between atoms: C_27  and  O_28
REMARK   18  A    between atoms: O_28  and  C_29
REMARK   19  A    between atoms: C_31  and  O_32
REMARK   20  A    between atoms: O_32  and  C_33
REMARK   21  A    between atoms: C_33  and  C_34
REMARK                            x       y       z     vdW  Elec       q    Type
REMARK                         _______ _______ _______ _____ _____    ______ ____
ROOT
ATOM      1  C   LIG A   1      -7.607   0.256 124.518  0.00  0.00    +0.038 C 
ENDROOT
BRANCH   1   2
ATOM      2  C   LIG A   1      -8.221   1.696 124.452  0.00  0.00    +0.042 C 
BRANCH   2   7
ATOM      3  C   LIG A   1      -8.228   3.589 121.051  0.00  0.00    +0.162 A 
ATOM      4  C   LIG A   1      -6.868   3.874 120.886  0.00  0.00    +0.162 A 
ATOM      5  C   LIG A   1      -6.008   3.577 121.963  0.00  0.00    +0.050 A 
ATOM      6  C   LIG A   1      -6.455   2.936 123.131  0.00  0.00    +0.007 A 
ATOM      7  C   LIG A   1      -7.787   2.548 123.261  0.00  0.00    -0.043 A 
ATOM      8  C   LIG A   1      -8.675   2.992 122.263  0.00  0.00    +0.053 A 
BRANCH   3  10
ATOM      9  C   LIG A   1      -8.900   4.242 118.858  0.00  0.00    +0.277 C 
ATOM     10  O   LIG A   1      -9.253   3.830 120.174  0.00  0.00    -0.491 OA
ENDBRANCH   3  10
BRANCH   4  11
ATOM     11  O   LIG A   1      -6.192   4.320 119.781  0.00  0.00    -0.491 OA
ATOM     12  C   LIG A   1      -5.283   5.411 119.833  0.00  0.00    +0.277 C 
ENDBRANCH   4  11
ENDBRANCH   2   7
ENDBRANCH   1   2
BRANCH   1  13
ATOM     13  C   LIG A   1      -6.539   0.117 125.678  0.00  0.00    +0.038 C 
BRANCH  13  14
ATOM     14  C   LIG A   1      -6.474  -1.312 126.301  0.00  0.00    +0.236 C 
BRANCH  14  15
ATOM     15  O   LIG A   1      -7.781  -1.944 126.226  0.00  0.00    -0.465 OA
BRANCH  15  16
ATOM     16  C   LIG A   1      -8.146  -2.732 127.304  0.00  0.00    +0.304 C 
ATOM     17  C   LIG A   1      -7.694  -2.071 128.602  0.00  0.00    +0.136 C 
ATOM     18  O   LIG A   1      -8.793  -3.706 127.267  0.00  0.00    -0.251 OA
ENDBRANCH  15  16
ENDBRANCH  14  15
ENDBRANCH  13  14
BRANCH  13  19
ATOM     19  C   LIG A   1      -6.774   1.154 126.793  0.00  0.00    +0.042 C 
BRANCH  19  20
ATOM     20  C   LIG A   1      -5.574   1.979 127.225  0.00  0.00    -0.043 A 
ATOM     21  C   LIG A   1      -4.567   2.372 126.364  0.00  0.00    +0.007 A 
ATOM     22  C   LIG A   1      -3.535   3.271 126.492  0.00  0.00    +0.050 A 
ATOM     23  C   LIG A   1      -3.298   3.719 127.744  0.00  0.00    +0.162 A 
ATOM     24  C   LIG A   1      -4.183   3.240 128.749  0.00  0.00    +0.162 A 
ATOM     25  C   LIG A   1      -5.360   2.460 128.469  0.00  0.00    +0.053 A 
BRANCH  23  26
ATOM     26  O   LIG A   1      -2.217   4.519 127.988  0.00  0.00    -0.491 OA
ATOM     27  C   LIG A   1      -2.492   5.932 128.111  0.00  0.00    +0.277 C 
ENDBRANCH  23  26
BRANCH  24  28
ATOM     28  O   LIG A   1      -3.881   3.530 130.054  0.00  0.00    -0.491 OA
ATOM     29  C   LIG A   1      -4.133   2.406 130.894  0.00  0.00    +0.277 C 
ENDBRANCH  24  28
ENDBRANCH  19  20
ENDBRANCH  13  19
ENDBRANCH   1  13
BRANCH   1  30
ATOM     30  C   LIG A   1      -7.146  -0.325 123.131  0.00  0.00    +0.236 C 
BRANCH  30  31
ATOM     31  O   LIG A   1      -7.748  -1.635 122.843  0.00  0.00    -0.465 OA
BRANCH  31  32
ATOM     32  C   LIG A   1      -9.119  -1.811 122.857  0.00  0.00    +0.304 C 
ATOM     33  C   LIG A   1      -9.448  -3.210 123.571  0.00  0.00    +0.136 C 
ATOM     34  O   LIG A   1      -9.915  -0.921 122.633  0.00  0.00    -0.251 OA
ENDBRANCH  31  32
ENDBRANCH  30  31
ENDBRANCH   1  30
TORSDOF 15
ENDMDL
