MODEL 1
REMARK VINA RESULT:      -4.8      0.000      0.000
REMARK  Name = NuBBE_1297
REMARK  3 active torsions:
REMARK  status: ('A' for Active; 'I' for Inactive)
REMARK    1  A    between atoms: O_1  and  C_2
REMARK    2  A    between atoms: C_2  and  C_3
REMARK    3  A    between atoms: N_4  and  C_8
REMARK                            x       y       z     vdW  Elec       q    Type
REMARK                         _______ _______ _______ _____ _____    ______ ____
ROOT
ATOM      1  C   LIG A   1     -11.000   8.256 127.784  0.00  0.00    +0.166 C 
ATOM      2  N   LIG A   1     -12.462   8.361 128.058  0.00  0.00    -0.293 NA
ATOM      3  C   LIG A   1     -12.516   8.563 129.514  0.00  0.00    +0.085 C 
ATOM      4  C   LIG A   1     -11.421   7.682 130.100  0.00  0.00    +0.017 C 
ATOM      5  C   LIG A   1     -10.410   7.500 128.973  0.00  0.00    +0.031 C 
ATOM      6  C   LIG A   1     -13.211   7.159 127.676  0.00  0.00    +0.105 C 
ENDROOT
BRANCH   1   7
ATOM      7  C   LIG A   1     -10.664   7.638 126.431  0.00  0.00    +0.322 C 
ATOM      8  O   LIG A   1     -10.929   8.091 125.328  0.00  0.00    -0.249 OA
BRANCH   7   9
ATOM      9  O   LIG A   1      -9.974   6.482 126.537  0.00  0.00    -0.479 OA
ATOM     10  H   LIG A   1     -10.543   5.823 126.091  0.00  0.00    +0.295 HD
ENDBRANCH   7   9
ENDBRANCH   1   7
TORSDOF 2
ENDMDL
MODEL 2
REMARK VINA RESULT:      -4.6      2.648      3.760
REMARK  Name = NuBBE_1297
REMARK  3 active torsions:
REMARK  status: ('A' for Active; 'I' for Inactive)
REMARK    1  A    between atoms: O_1  and  C_2
REMARK    2  A    between atoms: C_2  and  C_3
REMARK    3  A    between atoms: N_4  and  C_8
REMARK                            x       y       z     vdW  Elec       q    Type
REMARK                         _______ _______ _______ _____ _____    ______ ____
ROOT
ATOM      1  C   LIG A   1     -12.839   7.091 129.948  0.00  0.00    +0.166 C 
ATOM      2  N   LIG A   1     -12.021   8.318 129.719  0.00  0.00    -0.293 NA
ATOM      3  C   LIG A   1     -12.854   9.109 128.800  0.00  0.00    +0.085 C 
ATOM      4  C   LIG A   1     -13.495   8.107 127.849  0.00  0.00    +0.017 C 
ATOM      5  C   LIG A   1     -13.510   6.787 128.610  0.00  0.00    +0.031 C 
ATOM      6  C   LIG A   1     -10.713   8.037 129.117  0.00  0.00    +0.105 C 
ENDROOT
BRANCH   1   7
ATOM      7  C   LIG A   1     -12.054   5.919 130.526  0.00  0.00    +0.322 C 
ATOM      8  O   LIG A   1     -11.543   4.998 129.907  0.00  0.00    -0.249 OA
BRANCH   7   9
ATOM      9  O   LIG A   1     -11.923   5.984 131.868  0.00  0.00    -0.479 OA
ATOM     10  H   LIG A   1     -12.431   6.782 132.119  0.00  0.00    +0.295 HD
ENDBRANCH   7   9
ENDBRANCH   1   7
TORSDOF 2
ENDMDL
MODEL 3
REMARK VINA RESULT:      -4.6      1.442      2.050
REMARK  Name = NuBBE_1297
REMARK  3 active torsions:
REMARK  status: ('A' for Active; 'I' for Inactive)
REMARK    1  A    between atoms: O_1  and  C_2
REMARK    2  A    between atoms: C_2  and  C_3
REMARK    3  A    between atoms: N_4  and  C_8
REMARK                            x       y       z     vdW  Elec       q    Type
REMARK                         _______ _______ _______ _____ _____    ______ ____
ROOT
ATOM      1  C   LIG A   1     -12.616   7.589 128.205  0.00  0.00    +0.166 C 
ATOM      2  N   LIG A   1     -12.261   6.591 129.255  0.00  0.00    -0.293 NA
ATOM      3  C   LIG A   1     -12.914   7.126 130.460  0.00  0.00    +0.085 C 
ATOM      4  C   LIG A   1     -12.758   8.639 130.384  0.00  0.00    +0.017 C 
ATOM      5  C   LIG A   1     -12.588   8.949 128.902  0.00  0.00    +0.031 C 
ATOM      6  C   LIG A   1     -10.815   6.463 129.466  0.00  0.00    +0.105 C 
ENDROOT
BRANCH   1   7
ATOM      7  C   LIG A   1     -11.743   7.517 126.957  0.00  0.00    +0.322 C 
ATOM      8  O   LIG A   1     -10.819   8.260 126.661  0.00  0.00    -0.249 OA
BRANCH   7   9
ATOM      9  O   LIG A   1     -12.061   6.482 126.151  0.00  0.00    -0.479 OA
ATOM     10  H   LIG A   1     -12.934   6.184 126.479  0.00  0.00    +0.295 HD
ENDBRANCH   7   9
ENDBRANCH   1   7
TORSDOF 2
ENDMDL
MODEL 4
REMARK VINA RESULT:      -4.3      1.965      2.814
REMARK  Name = NuBBE_1297
REMARK  3 active torsions:
REMARK  status: ('A' for Active; 'I' for Inactive)
REMARK    1  A    between atoms: O_1  and  C_2
REMARK    2  A    between atoms: C_2  and  C_3
REMARK    3  A    between atoms: N_4  and  C_8
REMARK                            x       y       z     vdW  Elec       q    Type
REMARK                         _______ _______ _______ _____ _____    ______ ____
ROOT
ATOM      1  C   LIG A   1     -11.386   7.371 129.452  0.00  0.00    +0.166 C 
ATOM      2  N   LIG A   1     -11.540   8.449 128.432  0.00  0.00    -0.293 NA
ATOM      3  C   LIG A   1     -12.999   8.618 128.342  0.00  0.00    +0.085 C 
ATOM      4  C   LIG A   1     -13.591   7.220 128.458  0.00  0.00    +0.017 C 
ATOM      5  C   LIG A   1     -12.545   6.405 129.209  0.00  0.00    +0.031 C 
ATOM      6  C   LIG A   1     -10.980   8.093 127.124  0.00  0.00    +0.105 C 
ENDROOT
BRANCH   1   7
ATOM      7  C   LIG A   1     -10.015   6.704 129.450  0.00  0.00    +0.322 C 
ATOM      8  O   LIG A   1      -9.740   5.586 129.041  0.00  0.00    -0.249 OA
BRANCH   7   9
ATOM      9  O   LIG A   1      -9.042   7.501 129.941  0.00  0.00    -0.479 OA
ATOM     10  H   LIG A   1      -8.915   7.185 130.859  0.00  0.00    +0.295 HD
ENDBRANCH   7   9
ENDBRANCH   1   7
TORSDOF 2
ENDMDL
MODEL 5
REMARK VINA RESULT:      -4.3      3.035      3.618
REMARK  Name = NuBBE_1297
REMARK  3 active torsions:
REMARK  status: ('A' for Active; 'I' for Inactive)
REMARK    1  A    between atoms: O_1  and  C_2
REMARK    2  A    between atoms: C_2  and  C_3
REMARK    3  A    between atoms: N_4  and  C_8
REMARK                            x       y       z     vdW  Elec       q    Type
REMARK                         _______ _______ _______ _____ _____    ______ ____
ROOT
ATOM      1  C   LIG A   1     -10.738   6.438 129.449  0.00  0.00    +0.166 C 
ATOM      2  N   LIG A   1     -11.985   6.481 128.633  0.00  0.00    -0.293 NA
ATOM      3  C   LIG A   1     -11.606   7.317 127.483  0.00  0.00    +0.085 C 
ATOM      4  C   LIG A   1     -10.704   8.410 128.040  0.00  0.00    +0.017 C 
ATOM      5  C   LIG A   1     -10.112   7.826 129.317  0.00  0.00    +0.031 C 
ATOM      6  C   LIG A   1     -13.124   7.070 129.346  0.00  0.00    +0.105 C 
ENDROOT
BRANCH   1   7
ATOM      7  C   LIG A   1     -10.952   5.991 130.891  0.00  0.00    +0.322 C 
ATOM      8  O   LIG A   1     -10.864   6.680 131.896  0.00  0.00    -0.249 OA
BRANCH   7   9
ATOM      9  O   LIG A   1     -11.301   4.691 130.992  0.00  0.00    -0.479 OA
ATOM     10  H   LIG A   1     -12.114   4.704 131.536  0.00  0.00    +0.295 HD
ENDBRANCH   7   9
ENDBRANCH   1   7
TORSDOF 2
ENDMDL
MODEL 6
REMARK VINA RESULT:      -4.3      2.209      3.041
REMARK  Name = NuBBE_1297
REMARK  3 active torsions:
REMARK  status: ('A' for Active; 'I' for Inactive)
REMARK    1  A    between atoms: O_1  and  C_2
REMARK    2  A    between atoms: C_2  and  C_3
REMARK    3  A    between atoms: N_4  and  C_8
REMARK                            x       y       z     vdW  Elec       q    Type
REMARK                         _______ _______ _______ _____ _____    ______ ____
ROOT
ATOM      1  C   LIG A   1     -12.762   6.578 129.195  0.00  0.00    +0.166 C 
ATOM      2  N   LIG A   1     -11.440   5.892 129.289  0.00  0.00    -0.293 NA
ATOM      3  C   LIG A   1     -11.352   5.526 130.711  0.00  0.00    +0.085 C 
ATOM      4  C   LIG A   1     -11.964   6.689 131.481  0.00  0.00    +0.017 C 
ATOM      5  C   LIG A   1     -12.910   7.366 130.496  0.00  0.00    +0.031 C 
ATOM      6  C   LIG A   1     -10.314   6.750 128.906  0.00  0.00    +0.105 C 
ENDROOT
BRANCH   1   7
ATOM      7  C   LIG A   1     -12.937   7.422 127.938  0.00  0.00    +0.322 C 
ATOM      8  O   LIG A   1     -12.852   7.043 126.779  0.00  0.00    -0.249 OA
BRANCH   7   9
ATOM      9  O   LIG A   1     -13.245   8.709 128.206  0.00  0.00    -0.479 OA
ATOM     10  H   LIG A   1     -12.378   9.132 128.370  0.00  0.00    +0.295 HD
ENDBRANCH   7   9
ENDBRANCH   1   7
TORSDOF 2
ENDMDL
MODEL 7
REMARK VINA RESULT:      -4.2     10.905     11.867
REMARK  Name = NuBBE_1297
REMARK  3 active torsions:
REMARK  status: ('A' for Active; 'I' for Inactive)
REMARK    1  A    between atoms: O_1  and  C_2
REMARK    2  A    between atoms: C_2  and  C_3
REMARK    3  A    between atoms: N_4  and  C_8
REMARK                            x       y       z     vdW  Elec       q    Type
REMARK                         _______ _______ _______ _____ _____    ______ ____
ROOT
ATOM      1  C   LIG A   1      -7.951  -3.086 123.731  0.00  0.00    +0.166 C 
ATOM      2  N   LIG A   1      -7.719  -1.947 122.796  0.00  0.00    -0.293 NA
ATOM      3  C   LIG A   1      -6.252  -1.847 122.747  0.00  0.00    +0.085 C 
ATOM      4  C   LIG A   1      -5.765  -2.133 124.161  0.00  0.00    +0.017 C 
ATOM      5  C   LIG A   1      -6.868  -2.968 124.802  0.00  0.00    +0.031 C 
ATOM      6  C   LIG A   1      -8.306  -0.686 123.263  0.00  0.00    +0.105 C 
ENDROOT
BRANCH   1   7
ATOM      7  C   LIG A   1      -9.368  -3.153 124.291  0.00  0.00    +0.322 C 
ATOM      8  O   LIG A   1      -9.727  -2.865 125.423  0.00  0.00    -0.249 OA
BRANCH   7   9
ATOM      9  O   LIG A   1     -10.277  -3.554 123.376  0.00  0.00    -0.479 OA
ATOM     10  H   LIG A   1      -9.783  -4.180 122.809  0.00  0.00    +0.295 HD
ENDBRANCH   7   9
ENDBRANCH   1   7
TORSDOF 2
ENDMDL
MODEL 8
REMARK VINA RESULT:      -4.1      2.375      2.989
REMARK  Name = NuBBE_1297
REMARK  3 active torsions:
REMARK  status: ('A' for Active; 'I' for Inactive)
REMARK    1  A    between atoms: O_1  and  C_2
REMARK    2  A    between atoms: C_2  and  C_3
REMARK    3  A    between atoms: N_4  and  C_8
REMARK                            x       y       z     vdW  Elec       q    Type
REMARK                         _______ _______ _______ _____ _____    ______ ____
ROOT
ATOM      1  C   LIG A   1     -11.127   6.973 128.691  0.00  0.00    +0.166 C 
ATOM      2  N   LIG A   1     -12.401   6.607 129.375  0.00  0.00    -0.293 NA
ATOM      3  C   LIG A   1     -13.399   7.446 128.694  0.00  0.00    +0.085 C 
ATOM      4  C   LIG A   1     -12.717   8.783 128.436  0.00  0.00    +0.017 C 
ATOM      5  C   LIG A   1     -11.226   8.471 128.408  0.00  0.00    +0.031 C 
ATOM      6  C   LIG A   1     -12.387   6.888 130.814  0.00  0.00    +0.105 C 
ENDROOT
BRANCH   1   7
ATOM      7  C   LIG A   1      -9.871   6.571 129.457  0.00  0.00    +0.322 C 
ATOM      8  O   LIG A   1      -9.500   5.437 129.719  0.00  0.00    -0.249 OA
BRANCH   7   9
ATOM      9  O   LIG A   1      -9.122   7.629 129.833  0.00  0.00    -0.479 OA
ATOM     10  H   LIG A   1      -8.572   7.823 129.047  0.00  0.00    +0.295 HD
ENDBRANCH   7   9
ENDBRANCH   1   7
TORSDOF 2
ENDMDL
MODEL 9
REMARK VINA RESULT:      -4.0      9.881     10.866
REMARK  Name = NuBBE_1297
REMARK  3 active torsions:
REMARK  status: ('A' for Active; 'I' for Inactive)
REMARK    1  A    between atoms: O_1  and  C_2
REMARK    2  A    between atoms: C_2  and  C_3
REMARK    3  A    between atoms: N_4  and  C_8
REMARK                            x       y       z     vdW  Elec       q    Type
REMARK                         _______ _______ _______ _____ _____    ______ ____
ROOT
ATOM      1  C   LIG A   1      -8.690  -1.687 123.201  0.00  0.00    +0.166 C 
ATOM      2  N   LIG A   1      -9.277  -0.629 124.073  0.00  0.00    -0.293 NA
ATOM      3  C   LIG A   1      -8.548   0.583 123.666  0.00  0.00    +0.085 C 
ATOM      4  C   LIG A   1      -7.114   0.142 123.407  0.00  0.00    +0.017 C 
ATOM      5  C   LIG A   1      -7.207  -1.343 123.076  0.00  0.00    +0.031 C 
ATOM      6  C   LIG A   1      -9.088  -0.888 125.505  0.00  0.00    +0.105 C 
ENDROOT
BRANCH   1   7
ATOM      7  C   LIG A   1      -8.956  -3.109 123.683  0.00  0.00    +0.322 C 
ATOM      8  O   LIG A   1      -8.181  -3.841 124.278  0.00  0.00    -0.249 OA
BRANCH   7   9
ATOM      9  O   LIG A   1     -10.211  -3.530 123.415  0.00  0.00    -0.479 OA
ATOM     10  H   LIG A   1     -10.474  -4.022 124.218  0.00  0.00    +0.295 HD
ENDBRANCH   7   9
ENDBRANCH   1   7
TORSDOF 2
ENDMDL
