MODEL 1
REMARK VINA RESULT:      -7.0      0.000      0.000
REMARK  Name = NuBBE_1782
REMARK  5 active torsions:
REMARK  status: ('A' for Active; 'I' for Inactive)
REMARK    1  A    between atoms: C_1  and  C_2
REMARK    2  A    between atoms: C_1  and  C_9
REMARK    3  A    between atoms: C_2  and  C_3
REMARK    4  A    between atoms: C_12  and  O_17
REMARK    5  A    between atoms: O_17  and  C_18
REMARK                            x       y       z     vdW  Elec       q    Type
REMARK                         _______ _______ _______ _____ _____    ______ ____
ROOT
ATOM      1  C   LIG A   1     -12.233   6.506 129.914  0.00  0.00    +0.184 C 
ATOM      2  C   LIG A   1     -13.305   7.450 129.372  0.00  0.00    +0.118 C 
ATOM      3  C   LIG A   1     -12.696   8.530 128.531  0.00  0.00    +0.108 C 
ATOM      4  C   LIG A   1     -11.531   8.305 127.901  0.00  0.00    +0.132 C 
ATOM      5  C   LIG A   1     -10.850   7.004 127.982  0.00  0.00    +0.335 C 
ATOM      6  O   LIG A   1      -9.889   6.767 127.254  0.00  0.00    -0.245 OA
ATOM      7  O   LIG A   1     -11.331   6.097 128.859  0.00  0.00    -0.458 OA
ENDROOT
BRANCH   3   8
ATOM      8  O   LIG A   1     -13.438   9.687 128.500  0.00  0.00    -0.499 OA
ATOM      9  C   LIG A   1     -13.396  10.537 129.642  0.00  0.00    +0.276 C 
ENDBRANCH   3   8
BRANCH   1  10
ATOM     10  C   LIG A   1     -11.439   7.078 131.105  0.00  0.00    +0.050 C 
BRANCH  10  11
ATOM     11  C   LIG A   1     -10.709   5.999 131.925  0.00  0.00    +0.038 C 
BRANCH  11  12
ATOM     12  C   LIG A   1      -9.209   6.168 131.961  0.00  0.00    -0.047 A 
ATOM     13  C   LIG A   1      -8.553   6.872 130.942  0.00  0.00    +0.003 A 
ATOM     14  C   LIG A   1      -7.161   6.975 130.933  0.00  0.00    +0.000 A 
ATOM     15  C   LIG A   1      -6.410   6.396 131.954  0.00  0.00    +0.000 A 
ATOM     16  C   LIG A   1      -7.053   5.725 132.992  0.00  0.00    +0.000 A 
ATOM     17  C   LIG A   1      -8.445   5.611 132.998  0.00  0.00    +0.003 A 
ENDBRANCH  11  12
ENDBRANCH  10  11
ENDBRANCH   1  10
TORSDOF 4
ENDMDL
MODEL 2
REMARK VINA RESULT:      -6.5      1.932      2.497
REMARK  Name = NuBBE_1782
REMARK  5 active torsions:
REMARK  status: ('A' for Active; 'I' for Inactive)
REMARK    1  A    between atoms: C_1  and  C_2
REMARK    2  A    between atoms: C_1  and  C_9
REMARK    3  A    between atoms: C_2  and  C_3
REMARK    4  A    between atoms: C_12  and  O_17
REMARK    5  A    between atoms: O_17  and  C_18
REMARK                            x       y       z     vdW  Elec       q    Type
REMARK                         _______ _______ _______ _____ _____    ______ ____
ROOT
ATOM      1  C   LIG A   1     -11.860   6.571 130.254  0.00  0.00    +0.184 C 
ATOM      2  C   LIG A   1     -12.739   7.737 130.704  0.00  0.00    +0.118 C 
ATOM      3  C   LIG A   1     -12.810   8.797 129.647  0.00  0.00    +0.108 C 
ATOM      4  C   LIG A   1     -12.640   8.463 128.357  0.00  0.00    +0.132 C 
ATOM      5  C   LIG A   1     -12.424   7.069 127.945  0.00  0.00    +0.335 C 
ATOM      6  O   LIG A   1     -12.455   6.768 126.754  0.00  0.00    -0.245 OA
ATOM      7  O   LIG A   1     -12.214   6.152 128.914  0.00  0.00    -0.458 OA
ENDROOT
BRANCH   3   8
ATOM      8  O   LIG A   1     -13.052  10.056 130.147  0.00  0.00    -0.499 OA
ATOM      9  C   LIG A   1     -13.762  10.975 129.324  0.00  0.00    +0.276 C 
ENDBRANCH   3   8
BRANCH   1  10
ATOM     10  C   LIG A   1     -10.348   6.856 130.344  0.00  0.00    +0.050 C 
BRANCH  10  11
ATOM     11  C   LIG A   1      -9.477   5.639 129.982  0.00  0.00    +0.038 C 
BRANCH  11  12
ATOM     12  C   LIG A   1      -9.413   4.588 131.064  0.00  0.00    -0.047 A 
ATOM     13  C   LIG A   1      -9.679   3.246 130.760  0.00  0.00    +0.003 A 
ATOM     14  C   LIG A   1      -9.687   2.279 131.768  0.00  0.00    +0.000 A 
ATOM     15  C   LIG A   1      -9.407   2.638 133.084  0.00  0.00    +0.000 A 
ATOM     16  C   LIG A   1      -9.106   3.963 133.391  0.00  0.00    +0.000 A 
ATOM     17  C   LIG A   1      -9.107   4.934 132.388  0.00  0.00    +0.003 A 
ENDBRANCH  11  12
ENDBRANCH  10  11
ENDBRANCH   1  10
TORSDOF 4
ENDMDL
MODEL 3
REMARK VINA RESULT:      -6.4      9.677     10.720
REMARK  Name = NuBBE_1782
REMARK  5 active torsions:
REMARK  status: ('A' for Active; 'I' for Inactive)
REMARK    1  A    between atoms: C_1  and  C_2
REMARK    2  A    between atoms: C_1  and  C_9
REMARK    3  A    between atoms: C_2  and  C_3
REMARK    4  A    between atoms: C_12  and  O_17
REMARK    5  A    between atoms: O_17  and  C_18
REMARK                            x       y       z     vdW  Elec       q    Type
REMARK                         _______ _______ _______ _____ _____    ______ ____
ROOT
ATOM      1  C   LIG A   1      -8.783  -3.520 124.474  0.00  0.00    +0.184 C 
ATOM      2  C   LIG A   1      -9.486  -2.924 123.256  0.00  0.00    +0.118 C 
ATOM      3  C   LIG A   1      -9.078  -1.498 123.043  0.00  0.00    +0.108 C 
ATOM      4  C   LIG A   1      -7.878  -1.078 123.474  0.00  0.00    +0.132 C 
ATOM      5  C   LIG A   1      -6.927  -1.996 124.119  0.00  0.00    +0.335 C 
ATOM      6  O   LIG A   1      -5.773  -1.633 124.336  0.00  0.00    -0.245 OA
ATOM      7  O   LIG A   1      -7.365  -3.233 124.437  0.00  0.00    -0.458 OA
ENDROOT
BRANCH   3   8
ATOM      8  O   LIG A   1     -10.032  -0.745 122.399  0.00  0.00    -0.499 OA
ATOM      9  C   LIG A   1     -10.090   0.648 122.689  0.00  0.00    +0.276 C 
ENDBRANCH   3   8
BRANCH   1  10
ATOM     10  C   LIG A   1      -9.383  -3.078 125.823  0.00  0.00    +0.050 C 
BRANCH  10  11
ATOM     11  C   LIG A   1      -8.732  -3.768 127.035  0.00  0.00    +0.038 C 
BRANCH  11  12
ATOM     12  C   LIG A   1      -8.196  -2.809 128.071  0.00  0.00    -0.047 A 
ATOM     13  C   LIG A   1      -8.137  -3.189 129.420  0.00  0.00    +0.003 A 
ATOM     14  C   LIG A   1      -7.706  -2.284 130.392  0.00  0.00    +0.000 A 
ATOM     15  C   LIG A   1      -7.307  -1.001 130.026  0.00  0.00    +0.000 A 
ATOM     16  C   LIG A   1      -7.327  -0.625 128.685  0.00  0.00    +0.000 A 
ATOM     17  C   LIG A   1      -7.767  -1.524 127.711  0.00  0.00    +0.003 A 
ENDBRANCH  11  12
ENDBRANCH  10  11
ENDBRANCH   1  10
TORSDOF 4
ENDMDL
MODEL 4
REMARK VINA RESULT:      -6.3     10.300     11.523
REMARK  Name = NuBBE_1782
REMARK  5 active torsions:
REMARK  status: ('A' for Active; 'I' for Inactive)
REMARK    1  A    between atoms: C_1  and  C_2
REMARK    2  A    between atoms: C_1  and  C_9
REMARK    3  A    between atoms: C_2  and  C_3
REMARK    4  A    between atoms: C_12  and  O_17
REMARK    5  A    between atoms: O_17  and  C_18
REMARK                            x       y       z     vdW  Elec       q    Type
REMARK                         _______ _______ _______ _____ _____    ______ ____
ROOT
ATOM      1  C   LIG A   1      -8.538  -1.805 126.252  0.00  0.00    +0.184 C 
ATOM      2  C   LIG A   1      -7.207  -1.372 125.642  0.00  0.00    +0.118 C 
ATOM      3  C   LIG A   1      -6.761  -2.333 124.582  0.00  0.00    +0.108 C 
ATOM      4  C   LIG A   1      -7.675  -3.053 123.911  0.00  0.00    +0.132 C 
ATOM      5  C   LIG A   1      -9.115  -2.894 124.160  0.00  0.00    +0.335 C 
ATOM      6  O   LIG A   1      -9.931  -3.425 123.410  0.00  0.00    -0.245 OA
ATOM      7  O   LIG A   1      -9.491  -2.139 125.214  0.00  0.00    -0.458 OA
ENDROOT
BRANCH   3   8
ATOM      8  O   LIG A   1      -5.397  -2.370 124.413  0.00  0.00    -0.499 OA
ATOM      9  C   LIG A   1      -4.849  -3.431 123.637  0.00  0.00    +0.276 C 
ENDBRANCH   3   8
BRANCH   1  10
ATOM     10  C   LIG A   1      -8.417  -2.964 127.260  0.00  0.00    +0.050 C 
BRANCH  10  11
ATOM     11  C   LIG A   1      -8.043  -2.499 128.680  0.00  0.00    +0.038 C 
BRANCH  11  12
ATOM     12  C   LIG A   1      -6.681  -2.962 129.137  0.00  0.00    -0.047 A 
ATOM     13  C   LIG A   1      -5.523  -2.384 128.598  0.00  0.00    +0.003 A 
ATOM     14  C   LIG A   1      -4.260  -2.853 128.965  0.00  0.00    +0.000 A 
ATOM     15  C   LIG A   1      -4.139  -3.886 129.891  0.00  0.00    +0.000 A 
ATOM     16  C   LIG A   1      -5.282  -4.442 130.461  0.00  0.00    +0.000 A 
ATOM     17  C   LIG A   1      -6.547  -3.984 130.088  0.00  0.00    +0.003 A 
ENDBRANCH  11  12
ENDBRANCH  10  11
ENDBRANCH   1  10
TORSDOF 4
ENDMDL
MODEL 5
REMARK VINA RESULT:      -6.3     10.027     12.013
REMARK  Name = NuBBE_1782
REMARK  5 active torsions:
REMARK  status: ('A' for Active; 'I' for Inactive)
REMARK    1  A    between atoms: C_1  and  C_2
REMARK    2  A    between atoms: C_1  and  C_9
REMARK    3  A    between atoms: C_2  and  C_3
REMARK    4  A    between atoms: C_12  and  O_17
REMARK    5  A    between atoms: O_17  and  C_18
REMARK                            x       y       z     vdW  Elec       q    Type
REMARK                         _______ _______ _______ _____ _____    ______ ____
ROOT
ATOM      1  C   LIG A   1      -7.136  -1.149 122.834  0.00  0.00    +0.184 C 
ATOM      2  C   LIG A   1      -5.984  -2.152 122.847  0.00  0.00    +0.118 C 
ATOM      3  C   LIG A   1      -6.167  -3.168 123.934  0.00  0.00    +0.108 C 
ATOM      4  C   LIG A   1      -7.404  -3.467 124.363  0.00  0.00    +0.132 C 
ATOM      5  C   LIG A   1      -8.597  -2.850 123.764  0.00  0.00    +0.335 C 
ATOM      6  O   LIG A   1      -9.715  -3.273 124.046  0.00  0.00    -0.245 OA
ATOM      7  O   LIG A   1      -8.410  -1.833 122.896  0.00  0.00    -0.458 OA
ENDROOT
BRANCH   3   8
ATOM      8  O   LIG A   1      -4.985  -3.703 124.390  0.00  0.00    -0.499 OA
ATOM      9  C   LIG A   1      -4.375  -4.730 123.616  0.00  0.00    +0.276 C 
ENDBRANCH   3   8
BRANCH   1  10
ATOM     10  C   LIG A   1      -7.048  -0.080 123.940  0.00  0.00    +0.050 C 
BRANCH  10  11
ATOM     11  C   LIG A   1      -7.756   1.238 123.571  0.00  0.00    +0.038 C 
BRANCH  11  12
ATOM     12  C   LIG A   1      -6.812   2.368 123.238  0.00  0.00    -0.047 A 
ATOM     13  C   LIG A   1      -6.236   3.131 124.263  0.00  0.00    +0.003 A 
ATOM     14  C   LIG A   1      -5.415   4.219 123.960  0.00  0.00    +0.000 A 
ATOM     15  C   LIG A   1      -5.143   4.543 122.633  0.00  0.00    +0.000 A 
ATOM     16  C   LIG A   1      -5.681   3.769 121.607  0.00  0.00    +0.000 A 
ATOM     17  C   LIG A   1      -6.511   2.687 121.906  0.00  0.00    +0.003 A 
ENDBRANCH  11  12
ENDBRANCH  10  11
ENDBRANCH   1  10
TORSDOF 4
ENDMDL
MODEL 6
REMARK VINA RESULT:      -6.3      3.499      4.394
REMARK  Name = NuBBE_1782
REMARK  5 active torsions:
REMARK  status: ('A' for Active; 'I' for Inactive)
REMARK    1  A    between atoms: C_1  and  C_2
REMARK    2  A    between atoms: C_1  and  C_9
REMARK    3  A    between atoms: C_2  and  C_3
REMARK    4  A    between atoms: C_12  and  O_17
REMARK    5  A    between atoms: O_17  and  C_18
REMARK                            x       y       z     vdW  Elec       q    Type
REMARK                         _______ _______ _______ _____ _____    ______ ____
ROOT
ATOM      1  C   LIG A   1     -10.203   5.863 131.392  0.00  0.00    +0.184 C 
ATOM      2  C   LIG A   1      -9.557   6.937 130.519  0.00  0.00    +0.118 C 
ATOM      3  C   LIG A   1     -10.572   7.594 129.633  0.00  0.00    +0.108 C 
ATOM      4  C   LIG A   1     -11.859   7.636 130.014  0.00  0.00    +0.132 C 
ATOM      5  C   LIG A   1     -12.299   7.086 131.305  0.00  0.00    +0.335 C 
ATOM      6  O   LIG A   1     -13.440   7.299 131.707  0.00  0.00    -0.245 OA
ATOM      7  O   LIG A   1     -11.405   6.369 132.020  0.00  0.00    -0.458 OA
ENDROOT
BRANCH   3   8
ATOM      8  O   LIG A   1     -10.039   8.103 128.471  0.00  0.00    -0.499 OA
ATOM      9  C   LIG A   1     -10.807   7.984 127.278  0.00  0.00    +0.276 C 
ENDBRANCH   3   8
BRANCH   1  10
ATOM     10  C   LIG A   1     -10.502   4.547 130.647  0.00  0.00    +0.050 C 
BRANCH  10  11
ATOM     11  C   LIG A   1      -9.256   3.922 129.992  0.00  0.00    +0.038 C 
BRANCH  11  12
ATOM     12  C   LIG A   1      -8.989   2.499 130.419  0.00  0.00    -0.047 A 
ATOM     13  C   LIG A   1      -8.164   1.673 129.642  0.00  0.00    +0.003 A 
ATOM     14  C   LIG A   1      -7.967   0.336 129.994  0.00  0.00    +0.000 A 
ATOM     15  C   LIG A   1      -8.572  -0.183 131.136  0.00  0.00    +0.000 A 
ATOM     16  C   LIG A   1      -9.364   0.638 131.935  0.00  0.00    +0.000 A 
ATOM     17  C   LIG A   1      -9.572   1.972 131.580  0.00  0.00    +0.003 A 
ENDBRANCH  11  12
ENDBRANCH  10  11
ENDBRANCH   1  10
TORSDOF 4
ENDMDL
MODEL 7
REMARK VINA RESULT:      -6.3      9.157     10.531
REMARK  Name = NuBBE_1782
REMARK  5 active torsions:
REMARK  status: ('A' for Active; 'I' for Inactive)
REMARK    1  A    between atoms: C_1  and  C_2
REMARK    2  A    between atoms: C_1  and  C_9
REMARK    3  A    between atoms: C_2  and  C_3
REMARK    4  A    between atoms: C_12  and  O_17
REMARK    5  A    between atoms: O_17  and  C_18
REMARK                            x       y       z     vdW  Elec       q    Type
REMARK                         _______ _______ _______ _____ _____    ______ ____
ROOT
ATOM      1  C   LIG A   1      -8.060   1.048 124.549  0.00  0.00    +0.184 C 
ATOM      2  C   LIG A   1      -7.036   0.115 123.904  0.00  0.00    +0.118 C 
ATOM      3  C   LIG A   1      -7.704  -1.086 123.306  0.00  0.00    +0.108 C 
ATOM      4  C   LIG A   1      -8.980  -1.003 122.896  0.00  0.00    +0.132 C 
ATOM      5  C   LIG A   1      -9.735   0.256 122.979  0.00  0.00    +0.335 C 
ATOM      6  O   LIG A   1     -10.831   0.353 122.433  0.00  0.00    -0.245 OA
ATOM      7  O   LIG A   1      -9.173   1.282 123.653  0.00  0.00    -0.458 OA
ENDROOT
BRANCH   3   8
ATOM      8  O   LIG A   1      -6.890  -2.194 123.246  0.00  0.00    -0.499 OA
ATOM      9  C   LIG A   1      -5.716  -2.204 124.052  0.00  0.00    +0.276 C 
ENDBRANCH   3   8
BRANCH   1  10
ATOM     10  C   LIG A   1      -8.569   0.565 125.921  0.00  0.00    +0.050 C 
BRANCH  10  11
ATOM     11  C   LIG A   1      -7.489  -0.149 126.755  0.00  0.00    +0.038 C 
BRANCH  11  12
ATOM     12  C   LIG A   1      -7.918  -1.493 127.290  0.00  0.00    -0.047 A 
ATOM     13  C   LIG A   1      -8.622  -2.387 126.471  0.00  0.00    +0.003 A 
ATOM     14  C   LIG A   1      -9.080  -3.604 126.979  0.00  0.00    +0.000 A 
ATOM     15  C   LIG A   1      -8.823  -3.951 128.303  0.00  0.00    +0.000 A 
ATOM     16  C   LIG A   1      -8.093  -3.087 129.116  0.00  0.00    +0.000 A 
ATOM     17  C   LIG A   1      -7.642  -1.864 128.614  0.00  0.00    +0.003 A 
ENDBRANCH  11  12
ENDBRANCH  10  11
ENDBRANCH   1  10
TORSDOF 4
ENDMDL
MODEL 8
REMARK VINA RESULT:      -6.2      8.287      9.442
REMARK  Name = NuBBE_1782
REMARK  5 active torsions:
REMARK  status: ('A' for Active; 'I' for Inactive)
REMARK    1  A    between atoms: C_1  and  C_2
REMARK    2  A    between atoms: C_1  and  C_9
REMARK    3  A    between atoms: C_2  and  C_3
REMARK    4  A    between atoms: C_12  and  O_17
REMARK    5  A    between atoms: O_17  and  C_18
REMARK                            x       y       z     vdW  Elec       q    Type
REMARK                         _______ _______ _______ _____ _____    ______ ____
ROOT
ATOM      1  C   LIG A   1      -8.979   0.891 125.398  0.00  0.00    +0.184 C 
ATOM      2  C   LIG A   1      -8.550   2.339 125.170  0.00  0.00    +0.118 C 
ATOM      3  C   LIG A   1      -8.439   2.643 123.707  0.00  0.00    +0.108 C 
ATOM      4  C   LIG A   1      -9.179   1.950 122.825  0.00  0.00    +0.132 C 
ATOM      5  C   LIG A   1     -10.133   0.920 123.262  0.00  0.00    +0.335 C 
ATOM      6  O   LIG A   1     -10.924   0.434 122.458  0.00  0.00    -0.245 OA
ATOM      7  O   LIG A   1     -10.112   0.556 124.562  0.00  0.00    -0.458 OA
ENDROOT
BRANCH   3   8
ATOM      8  O   LIG A   1      -7.544   3.648 123.421  0.00  0.00    -0.499 OA
ATOM      9  C   LIG A   1      -6.200   3.490 123.864  0.00  0.00    +0.276 C 
ENDBRANCH   3   8
BRANCH   1  10
ATOM     10  C   LIG A   1      -7.847  -0.136 125.203  0.00  0.00    +0.050 C 
BRANCH  10  11
ATOM     11  C   LIG A   1      -8.341  -1.595 125.210  0.00  0.00    +0.038 C 
BRANCH  11  12
ATOM     12  C   LIG A   1      -8.382  -2.221 126.583  0.00  0.00    -0.047 A 
ATOM     13  C   LIG A   1      -7.736  -1.600 127.661  0.00  0.00    +0.003 A 
ATOM     14  C   LIG A   1      -7.713  -2.206 128.918  0.00  0.00    +0.000 A 
ATOM     15  C   LIG A   1      -8.352  -3.427 129.118  0.00  0.00    +0.000 A 
ATOM     16  C   LIG A   1      -9.027  -4.037 128.063  0.00  0.00    +0.000 A 
ATOM     17  C   LIG A   1      -9.044  -3.438 126.802  0.00  0.00    +0.003 A 
ENDBRANCH  11  12
ENDBRANCH  10  11
ENDBRANCH   1  10
TORSDOF 4
ENDMDL
MODEL 9
REMARK VINA RESULT:      -6.1      2.457      5.703
REMARK  Name = NuBBE_1782
REMARK  5 active torsions:
REMARK  status: ('A' for Active; 'I' for Inactive)
REMARK    1  A    between atoms: C_1  and  C_2
REMARK    2  A    between atoms: C_1  and  C_9
REMARK    3  A    between atoms: C_2  and  C_3
REMARK    4  A    between atoms: C_12  and  O_17
REMARK    5  A    between atoms: O_17  and  C_18
REMARK                            x       y       z     vdW  Elec       q    Type
REMARK                         _______ _______ _______ _____ _____    ______ ____
ROOT
ATOM      1  C   LIG A   1      -9.844   5.742 132.453  0.00  0.00    +0.184 C 
ATOM      2  C   LIG A   1      -9.772   4.388 131.750  0.00  0.00    +0.118 C 
ATOM      3  C   LIG A   1      -9.235   4.530 130.359  0.00  0.00    +0.108 C 
ATOM      4  C   LIG A   1      -8.415   5.552 130.064  0.00  0.00    +0.132 C 
ATOM      5  C   LIG A   1      -7.995   6.522 131.086  0.00  0.00    +0.335 C 
ATOM      6  O   LIG A   1      -7.107   7.333 130.836  0.00  0.00    -0.245 OA
ATOM      7  O   LIG A   1      -8.602   6.468 132.291  0.00  0.00    -0.458 OA
ENDROOT
BRANCH   3   8
ATOM      8  O   LIG A   1      -9.667   3.546 129.500  0.00  0.00    -0.499 OA
ATOM      9  C   LIG A   1      -8.759   2.499 129.175  0.00  0.00    +0.276 C 
ENDBRANCH   3   8
BRANCH   1  10
ATOM     10  C   LIG A   1     -11.035   6.614 132.010  0.00  0.00    +0.050 C 
BRANCH  10  11
ATOM     11  C   LIG A   1     -11.893   5.961 130.911  0.00  0.00    +0.038 C 
BRANCH  11  12
ATOM     12  C   LIG A   1     -12.443   6.939 129.901  0.00  0.00    -0.047 A 
ATOM     13  C   LIG A   1     -12.344   8.319 130.129  0.00  0.00    +0.003 A 
ATOM     14  C   LIG A   1     -12.910   9.228 129.233  0.00  0.00    +0.000 A 
ATOM     15  C   LIG A   1     -13.561   8.771 128.090  0.00  0.00    +0.000 A 
ATOM     16  C   LIG A   1     -13.633   7.403 127.834  0.00  0.00    +0.000 A 
ATOM     17  C   LIG A   1     -13.078   6.491 128.733  0.00  0.00    +0.003 A 
ENDBRANCH  11  12
ENDBRANCH  10  11
ENDBRANCH   1  10
TORSDOF 4
ENDMDL
