MODEL 1
REMARK VINA RESULT:      -8.3      0.000      0.000
REMARK  Name = NuBBE_2156
REMARK  4 active torsions:
REMARK  status: ('A' for Active; 'I' for Inactive)
REMARK    1  A    between atoms: C_1  and  C_2
REMARK    2  A    between atoms: C_4  and  C_21
REMARK    3  A    between atoms: C_7  and  C_12
REMARK    4  A    between atoms: C_9  and  C_11
REMARK                            x       y       z     vdW  Elec       q    Type
REMARK                         _______ _______ _______ _____ _____    ______ ____
ROOT
ATOM      1  C   LIG A   1      -8.780  -2.000 122.881  0.00  0.00    +0.011 C 
ATOM      2  C   LIG A   1      -7.924  -1.933 124.149  0.00  0.00    +0.025 C 
ATOM      3  C   LIG A   1      -8.690  -1.242 125.283  0.00  0.00    +0.152 C 
ATOM      4  O   LIG A   1      -8.292   0.135 125.282  0.00  0.00    -0.364 OA
ATOM      5  C   LIG A   1      -7.129   0.328 124.463  0.00  0.00    +0.152 C 
ATOM      6  C   LIG A   1      -6.697  -1.049 123.940  0.00  0.00    +0.025 C 
ATOM      7  C   LIG A   1      -5.485  -1.574 124.715  0.00  0.00    +0.011 C 
ENDROOT
BRANCH   5   8
ATOM      8  C   LIG A   1      -7.401   1.351 123.371  0.00  0.00    -0.015 A 
ATOM      9  C   LIG A   1      -6.325   1.879 122.632  0.00  0.00    +0.055 A 
ATOM     10  C   LIG A   1      -6.591   2.823 121.662  0.00  0.00    +0.167 A 
ATOM     11  C   LIG A   1      -7.866   3.267 121.412  0.00  0.00    +0.166 A 
ATOM     12  C   LIG A   1      -8.947   2.794 122.120  0.00  0.00    +0.050 A 
ATOM     13  C   LIG A   1      -8.707   1.833 123.109  0.00  0.00    +0.010 A 
ATOM     14  O   LIG A   1      -7.908   4.198 120.422  0.00  0.00    -0.453 OA
ATOM     15  C   LIG A   1      -6.510   4.294 120.083  0.00  0.00    +0.466 C 
ATOM     16  O   LIG A   1      -5.667   3.419 120.862  0.00  0.00    -0.453 OA
ENDBRANCH   5   8
BRANCH   3  17
ATOM     17  C   LIG A   1      -8.477  -1.871 126.653  0.00  0.00    -0.015 A 
ATOM     18  C   LIG A   1      -7.816  -1.133 127.654  0.00  0.00    +0.055 A 
ATOM     19  C   LIG A   1      -7.621  -1.723 128.886  0.00  0.00    +0.167 A 
ATOM     20  C   LIG A   1      -8.039  -3.004 129.151  0.00  0.00    +0.166 A 
ATOM     21  C   LIG A   1      -8.671  -3.769 128.198  0.00  0.00    +0.050 A 
ATOM     22  C   LIG A   1      -8.884  -3.196 126.939  0.00  0.00    +0.010 A 
ATOM     23  O   LIG A   1      -7.748  -3.393 130.420  0.00  0.00    -0.453 OA
ATOM     24  C   LIG A   1      -7.098  -2.208 130.924  0.00  0.00    +0.466 C 
ATOM     25  O   LIG A   1      -7.011  -1.143 129.954  0.00  0.00    -0.453 OA
ENDBRANCH   3  17
TORSDOF 2
ENDMDL
MODEL 2
REMARK VINA RESULT:      -8.1      4.592      6.267
REMARK  Name = NuBBE_2156
REMARK  4 active torsions:
REMARK  status: ('A' for Active; 'I' for Inactive)
REMARK    1  A    between atoms: C_1  and  C_2
REMARK    2  A    between atoms: C_4  and  C_21
REMARK    3  A    between atoms: C_7  and  C_12
REMARK    4  A    between atoms: C_9  and  C_11
REMARK                            x       y       z     vdW  Elec       q    Type
REMARK                         _______ _______ _______ _____ _____    ______ ____
ROOT
ATOM      1  C   LIG A   1      -7.612   2.562 127.900  0.00  0.00    +0.011 C 
ATOM      2  C   LIG A   1      -7.548   2.133 126.432  0.00  0.00    +0.025 C 
ATOM      3  C   LIG A   1      -6.650   0.902 126.265  0.00  0.00    +0.152 C 
ATOM      4  O   LIG A   1      -5.351   1.377 125.889  0.00  0.00    -0.364 OA
ATOM      5  C   LIG A   1      -5.407   2.759 125.502  0.00  0.00    +0.152 C 
ATOM      6  C   LIG A   1      -6.875   3.201 125.574  0.00  0.00    +0.025 C 
ATOM      7  C   LIG A   1      -7.494   3.274 124.175  0.00  0.00    +0.011 C 
ENDROOT
BRANCH   5   8
ATOM      8  C   LIG A   1      -4.463   3.595 126.354  0.00  0.00    -0.015 A 
ATOM      9  C   LIG A   1      -4.867   4.875 126.782  0.00  0.00    +0.055 A 
ATOM     10  C   LIG A   1      -3.987   5.627 127.533  0.00  0.00    +0.167 A 
ATOM     11  C   LIG A   1      -2.735   5.167 127.859  0.00  0.00    +0.166 A 
ATOM     12  C   LIG A   1      -2.290   3.931 127.448  0.00  0.00    +0.050 A 
ATOM     13  C   LIG A   1      -3.162   3.145 126.687  0.00  0.00    +0.010 A 
ATOM     14  O   LIG A   1      -2.029   6.062 128.599  0.00  0.00    -0.453 OA
ATOM     15  C   LIG A   1      -2.979   7.142 128.695  0.00  0.00    +0.466 C 
ATOM     16  O   LIG A   1      -4.229   6.871 128.026  0.00  0.00    -0.453 OA
ENDBRANCH   5   8
BRANCH   3  17
ATOM     17  C   LIG A   1      -7.170  -0.118 125.263  0.00  0.00    -0.015 A 
ATOM     18  C   LIG A   1      -8.244  -0.953 125.623  0.00  0.00    +0.055 A 
ATOM     19  C   LIG A   1      -8.694  -1.881 124.706  0.00  0.00    +0.167 A 
ATOM     20  C   LIG A   1      -8.116  -2.016 123.468  0.00  0.00    +0.166 A 
ATOM     21  C   LIG A   1      -7.051  -1.236 123.079  0.00  0.00    +0.050 A 
ATOM     22  C   LIG A   1      -6.575  -0.285 123.988  0.00  0.00    +0.010 A 
ATOM     23  O   LIG A   1      -8.707  -2.986 122.721  0.00  0.00    -0.453 OA
ATOM     24  C   LIG A   1      -9.726  -3.445 123.633  0.00  0.00    +0.466 C 
ATOM     25  O   LIG A   1      -9.722  -2.750 124.898  0.00  0.00    -0.453 OA
ENDBRANCH   3  17
TORSDOF 2
ENDMDL
MODEL 3
REMARK VINA RESULT:      -8.0      8.524     10.079
REMARK  Name = NuBBE_2156
REMARK  4 active torsions:
REMARK  status: ('A' for Active; 'I' for Inactive)
REMARK    1  A    between atoms: C_1  and  C_2
REMARK    2  A    between atoms: C_4  and  C_21
REMARK    3  A    between atoms: C_7  and  C_12
REMARK    4  A    between atoms: C_9  and  C_11
REMARK                            x       y       z     vdW  Elec       q    Type
REMARK                         _______ _______ _______ _____ _____    ______ ____
ROOT
ATOM      1  C   LIG A   1      -8.818   3.406 130.646  0.00  0.00    +0.011 C 
ATOM      2  C   LIG A   1      -8.059   4.359 131.572  0.00  0.00    +0.025 C 
ATOM      3  C   LIG A   1      -8.738   4.436 132.944  0.00  0.00    +0.152 C 
ATOM      4  O   LIG A   1      -9.593   5.587 132.927  0.00  0.00    -0.364 OA
ATOM      5  C   LIG A   1      -9.299   6.421 131.796  0.00  0.00    +0.152 C 
ATOM      6  C   LIG A   1      -8.112   5.793 131.052  0.00  0.00    +0.025 C 
ATOM      7  C   LIG A   1      -6.815   6.550 131.352  0.00  0.00    +0.011 C 
ENDROOT
BRANCH   5   8
ATOM      8  C   LIG A   1     -10.538   6.620 130.936  0.00  0.00    -0.015 A 
ATOM      9  C   LIG A   1     -10.414   6.617 129.533  0.00  0.00    +0.055 A 
ATOM     10  C   LIG A   1     -11.546   6.822 128.771  0.00  0.00    +0.167 A 
ATOM     11  C   LIG A   1     -12.775   7.041 129.342  0.00  0.00    +0.166 A 
ATOM     12  C   LIG A   1     -12.942   7.070 130.708  0.00  0.00    +0.050 A 
ATOM     13  C   LIG A   1     -11.811   6.862 131.506  0.00  0.00    +0.010 A 
ATOM     14  O   LIG A   1     -13.753   7.223 128.416  0.00  0.00    -0.453 OA
ATOM     15  C   LIG A   1     -12.996   7.102 127.195  0.00  0.00    +0.466 C 
ATOM     16  O   LIG A   1     -11.594   6.841 127.412  0.00  0.00    -0.453 OA
ENDBRANCH   5   8
BRANCH   3  17
ATOM     17  C   LIG A   1      -7.770   4.493 134.118  0.00  0.00    -0.015 A 
ATOM     18  C   LIG A   1      -7.890   5.532 135.060  0.00  0.00    +0.055 A 
ATOM     19  C   LIG A   1      -6.997   5.575 136.110  0.00  0.00    +0.167 A 
ATOM     20  C   LIG A   1      -5.996   4.646 136.249  0.00  0.00    +0.166 A 
ATOM     21  C   LIG A   1      -5.828   3.624 135.342  0.00  0.00    +0.050 A 
ATOM     22  C   LIG A   1      -6.721   3.554 134.267  0.00  0.00    +0.010 A 
ATOM     23  O   LIG A   1      -5.227   4.870 137.347  0.00  0.00    -0.453 OA
ATOM     24  C   LIG A   1      -5.861   6.049 137.885  0.00  0.00    +0.466 C 
ATOM     25  O   LIG A   1      -6.985   6.504 137.102  0.00  0.00    -0.453 OA
ENDBRANCH   3  17
TORSDOF 2
ENDMDL
MODEL 4
REMARK VINA RESULT:      -8.0      8.637     12.235
REMARK  Name = NuBBE_2156
REMARK  4 active torsions:
REMARK  status: ('A' for Active; 'I' for Inactive)
REMARK    1  A    between atoms: C_1  and  C_2
REMARK    2  A    between atoms: C_4  and  C_21
REMARK    3  A    between atoms: C_7  and  C_12
REMARK    4  A    between atoms: C_9  and  C_11
REMARK                            x       y       z     vdW  Elec       q    Type
REMARK                         _______ _______ _______ _____ _____    ______ ____
ROOT
ATOM      1  C   LIG A   1      -6.678   5.807 131.081  0.00  0.00    +0.011 C 
ATOM      2  C   LIG A   1      -8.147   5.376 131.046  0.00  0.00    +0.025 C 
ATOM      3  C   LIG A   1      -9.049   6.482 131.607  0.00  0.00    +0.152 C 
ATOM      4  O   LIG A   1      -9.286   6.171 132.986  0.00  0.00    -0.364 OA
ATOM      5  C   LIG A   1      -8.880   4.826 133.282  0.00  0.00    +0.152 C 
ATOM      6  C   LIG A   1      -8.397   4.189 131.971  0.00  0.00    +0.025 C 
ATOM      7  C   LIG A   1      -9.456   3.242 131.401  0.00  0.00    +0.011 C 
ENDROOT
BRANCH   5   8
ATOM      8  C   LIG A   1      -7.848   4.809 134.399  0.00  0.00    -0.015 A 
ATOM      9  C   LIG A   1      -7.858   5.831 135.368  0.00  0.00    +0.055 A 
ATOM     10  C   LIG A   1      -6.899   5.810 136.360  0.00  0.00    +0.167 A 
ATOM     11  C   LIG A   1      -5.935   4.833 136.416  0.00  0.00    +0.166 A 
ATOM     12  C   LIG A   1      -5.874   3.825 135.482  0.00  0.00    +0.050 A 
ATOM     13  C   LIG A   1      -6.837   3.819 134.466  0.00  0.00    +0.010 A 
ATOM     14  O   LIG A   1      -5.088   4.998 137.466  0.00  0.00    -0.453 OA
ATOM     15  C   LIG A   1      -5.626   6.197 138.060  0.00  0.00    +0.466 C 
ATOM     16  O   LIG A   1      -6.780   6.716 137.368  0.00  0.00    -0.453 OA
ENDBRANCH   5   8
BRANCH   3  17
ATOM     17  C   LIG A   1     -10.360   6.659 130.854  0.00  0.00    -0.015 A 
ATOM     18  C   LIG A   1     -10.351   6.674 129.447  0.00  0.00    +0.055 A 
ATOM     19  C   LIG A   1     -11.547   6.847 128.782  0.00  0.00    +0.167 A 
ATOM     20  C   LIG A   1     -12.732   7.018 129.454  0.00  0.00    +0.166 A 
ATOM     21  C   LIG A   1     -12.788   7.030 130.828  0.00  0.00    +0.050 A 
ATOM     22  C   LIG A   1     -11.589   6.854 131.530  0.00  0.00    +0.010 A 
ATOM     23  O   LIG A   1     -13.789   7.174 128.612  0.00  0.00    -0.453 OA
ATOM     24  C   LIG A   1     -13.130   7.081 127.332  0.00  0.00    +0.466 C 
ATOM     25  O   LIG A   1     -11.705   6.876 127.432  0.00  0.00    -0.453 OA
ENDBRANCH   3  17
TORSDOF 2
ENDMDL
MODEL 5
REMARK VINA RESULT:      -7.9      4.585      7.008
REMARK  Name = NuBBE_2156
REMARK  4 active torsions:
REMARK  status: ('A' for Active; 'I' for Inactive)
REMARK    1  A    between atoms: C_1  and  C_2
REMARK    2  A    between atoms: C_4  and  C_21
REMARK    3  A    between atoms: C_7  and  C_12
REMARK    4  A    between atoms: C_9  and  C_11
REMARK                            x       y       z     vdW  Elec       q    Type
REMARK                         _______ _______ _______ _____ _____    ______ ____
ROOT
ATOM      1  C   LIG A   1      -7.668   3.432 124.181  0.00  0.00    +0.011 C 
ATOM      2  C   LIG A   1      -6.941   3.336 125.525  0.00  0.00    +0.025 C 
ATOM      3  C   LIG A   1      -5.461   2.996 125.317  0.00  0.00    +0.152 C 
ATOM      4  O   LIG A   1      -5.330   1.577 125.466  0.00  0.00    -0.364 OA
ATOM      5  C   LIG A   1      -6.517   1.015 126.047  0.00  0.00    +0.152 C 
ATOM      6  C   LIG A   1      -7.474   2.174 126.359  0.00  0.00    +0.025 C 
ATOM      7  C   LIG A   1      -7.467   2.502 127.855  0.00  0.00    +0.011 C 
ENDROOT
BRANCH   5   8
ATOM      8  C   LIG A   1      -7.108  -0.053 125.138  0.00  0.00    -0.015 A 
ATOM      9  C   LIG A   1      -8.139  -0.881 125.622  0.00  0.00    +0.055 A 
ATOM     10  C   LIG A   1      -8.645  -1.858 124.790  0.00  0.00    +0.167 A 
ATOM     11  C   LIG A   1      -8.163  -2.050 123.518  0.00  0.00    +0.166 A 
ATOM     12  C   LIG A   1      -7.144  -1.277 123.009  0.00  0.00    +0.050 A 
ATOM     13  C   LIG A   1      -6.613  -0.276 123.830  0.00  0.00    +0.010 A 
ATOM     14  O   LIG A   1      -8.794  -3.064 122.870  0.00  0.00    -0.453 OA
ATOM     15  C   LIG A   1      -9.726  -3.493 123.883  0.00  0.00    +0.466 C 
ATOM     16  O   LIG A   1      -9.642  -2.729 125.104  0.00  0.00    -0.453 OA
ENDBRANCH   5   8
BRANCH   3  17
ATOM     17  C   LIG A   1      -4.515   3.733 126.254  0.00  0.00    -0.015 A 
ATOM     18  C   LIG A   1      -4.871   5.009 126.731  0.00  0.00    +0.055 A 
ATOM     19  C   LIG A   1      -3.995   5.667 127.570  0.00  0.00    +0.167 A 
ATOM     20  C   LIG A   1      -2.791   5.118 127.935  0.00  0.00    +0.166 A 
ATOM     21  C   LIG A   1      -2.392   3.883 127.479  0.00  0.00    +0.050 A 
ATOM     22  C   LIG A   1      -3.261   3.191 126.628  0.00  0.00    +0.010 A 
ATOM     23  O   LIG A   1      -2.080   5.929 128.763  0.00  0.00    -0.453 OA
ATOM     24  C   LIG A   1      -2.978   7.053 128.876  0.00  0.00    +0.466 C 
ATOM     25  O   LIG A   1      -4.196   6.895 128.118  0.00  0.00    -0.453 OA
ENDBRANCH   3  17
TORSDOF 2
ENDMDL
MODEL 6
REMARK VINA RESULT:      -7.7      6.284      7.276
REMARK  Name = NuBBE_2156
REMARK  4 active torsions:
REMARK  status: ('A' for Active; 'I' for Inactive)
REMARK    1  A    between atoms: C_1  and  C_2
REMARK    2  A    between atoms: C_4  and  C_21
REMARK    3  A    between atoms: C_7  and  C_12
REMARK    4  A    between atoms: C_9  and  C_11
REMARK                            x       y       z     vdW  Elec       q    Type
REMARK                         _______ _______ _______ _____ _____    ______ ____
ROOT
ATOM      1  C   LIG A   1      -5.096   1.601 128.180  0.00  0.00    +0.011 C 
ATOM      2  C   LIG A   1      -4.000   2.667 128.090  0.00  0.00    +0.025 C 
ATOM      3  C   LIG A   1      -4.505   4.010 128.629  0.00  0.00    +0.152 C 
ATOM      4  O   LIG A   1      -4.948   4.776 127.501  0.00  0.00    -0.364 OA
ATOM      5  C   LIG A   1      -4.497   4.182 126.274  0.00  0.00    +0.152 C 
ATOM      6  C   LIG A   1      -3.637   2.964 126.638  0.00  0.00    +0.025 C 
ATOM      7  C   LIG A   1      -2.146   3.280 126.482  0.00  0.00    +0.011 C 
ENDROOT
BRANCH   5   8
ATOM      8  C   LIG A   1      -5.675   3.863 125.365  0.00  0.00    -0.015 A 
ATOM      9  C   LIG A   1      -5.520   3.967 123.969  0.00  0.00    +0.055 A 
ATOM     10  C   LIG A   1      -6.607   3.696 123.163  0.00  0.00    +0.167 A 
ATOM     11  C   LIG A   1      -7.827   3.345 123.685  0.00  0.00    +0.166 A 
ATOM     12  C   LIG A   1      -8.031   3.248 125.043  0.00  0.00    +0.050 A 
ATOM     13  C   LIG A   1      -6.945   3.514 125.885  0.00  0.00    +0.010 A 
ATOM     14  O   LIG A   1      -8.761   3.125 122.722  0.00  0.00    -0.453 OA
ATOM     15  C   LIG A   1      -7.988   3.387 121.533  0.00  0.00    +0.466 C 
ATOM     16  O   LIG A   1      -6.617   3.744 121.804  0.00  0.00    -0.453 OA
ENDBRANCH   5   8
BRANCH   3  17
ATOM     17  C   LIG A   1      -3.477   4.782 129.443  0.00  0.00    -0.015 A 
ATOM     18  C   LIG A   1      -3.232   4.407 130.778  0.00  0.00    +0.055 A 
ATOM     19  C   LIG A   1      -2.305   5.126 131.504  0.00  0.00    +0.167 A 
ATOM     20  C   LIG A   1      -1.633   6.196 130.966  0.00  0.00    +0.166 A 
ATOM     21  C   LIG A   1      -1.854   6.611 129.673  0.00  0.00    +0.050 A 
ATOM     22  C   LIG A   1      -2.788   5.899 128.911  0.00  0.00    +0.010 A 
ATOM     23  O   LIG A   1      -0.769   6.764 131.848  0.00  0.00    -0.453 OA
ATOM     24  C   LIG A   1      -0.974   5.927 133.005  0.00  0.00    +0.466 C 
ATOM     25  O   LIG A   1      -1.951   4.886 132.795  0.00  0.00    -0.453 OA
ENDBRANCH   3  17
TORSDOF 2
ENDMDL
MODEL 7
REMARK VINA RESULT:      -7.6      8.061      9.159
REMARK  Name = NuBBE_2156
REMARK  4 active torsions:
REMARK  status: ('A' for Active; 'I' for Inactive)
REMARK    1  A    between atoms: C_1  and  C_2
REMARK    2  A    between atoms: C_4  and  C_21
REMARK    3  A    between atoms: C_7  and  C_12
REMARK    4  A    between atoms: C_9  and  C_11
REMARK                            x       y       z     vdW  Elec       q    Type
REMARK                         _______ _______ _______ _____ _____    ______ ____
ROOT
ATOM      1  C   LIG A   1      -7.247   7.037 130.956  0.00  0.00    +0.011 C 
ATOM      2  C   LIG A   1      -7.329   5.918 131.998  0.00  0.00    +0.025 C 
ATOM      3  C   LIG A   1      -7.439   4.550 131.315  0.00  0.00    +0.152 C 
ATOM      4  O   LIG A   1      -8.833   4.217 131.262  0.00  0.00    -0.364 OA
ATOM      5  C   LIG A   1      -9.595   5.088 132.111  0.00  0.00    +0.152 C 
ATOM      6  C   LIG A   1      -8.608   6.024 132.823  0.00  0.00    +0.025 C 
ATOM      7  C   LIG A   1      -8.384   5.584 134.272  0.00  0.00    +0.011 C 
ENDROOT
BRANCH   5   8
ATOM      8  C   LIG A   1     -10.673   5.809 131.314  0.00  0.00    -0.015 A 
ATOM      9  C   LIG A   1     -10.630   5.779 129.906  0.00  0.00    +0.055 A 
ATOM     10  C   LIG A   1     -11.602   6.459 129.203  0.00  0.00    +0.167 A 
ATOM     11  C   LIG A   1     -12.593   7.169 129.835  0.00  0.00    +0.166 A 
ATOM     12  C   LIG A   1     -12.665   7.242 131.208  0.00  0.00    +0.050 A 
ATOM     13  C   LIG A   1     -11.693   6.559 131.948  0.00  0.00    +0.010 A 
ATOM     14  O   LIG A   1     -13.445   7.766 128.960  0.00  0.00    -0.453 OA
ATOM     15  C   LIG A   1     -12.871   7.355 127.703  0.00  0.00    +0.466 C 
ATOM     16  O   LIG A   1     -11.704   6.519 127.848  0.00  0.00    -0.453 OA
ENDBRANCH   5   8
BRANCH   3  17
ATOM     17  C   LIG A   1      -6.640   3.447 131.995  0.00  0.00    -0.015 A 
ATOM     18  C   LIG A   1      -7.318   2.339 132.537  0.00  0.00    +0.055 A 
ATOM     19  C   LIG A   1      -6.578   1.355 133.160  0.00  0.00    +0.167 A 
ATOM     20  C   LIG A   1      -5.213   1.437 133.274  0.00  0.00    +0.166 A 
ATOM     21  C   LIG A   1      -4.509   2.510 132.777  0.00  0.00    +0.050 A 
ATOM     22  C   LIG A   1      -5.233   3.523 132.138  0.00  0.00    +0.010 A 
ATOM     23  O   LIG A   1      -4.680   0.367 133.923  0.00  0.00    -0.453 OA
ATOM     24  C   LIG A   1      -5.870  -0.399 134.203  0.00  0.00    +0.466 C 
ATOM     25  O   LIG A   1      -7.080   0.224 133.724  0.00  0.00    -0.453 OA
ENDBRANCH   3  17
TORSDOF 2
ENDMDL
MODEL 8
REMARK VINA RESULT:      -7.6      3.116      8.858
REMARK  Name = NuBBE_2156
REMARK  4 active torsions:
REMARK  status: ('A' for Active; 'I' for Inactive)
REMARK    1  A    between atoms: C_1  and  C_2
REMARK    2  A    between atoms: C_4  and  C_21
REMARK    3  A    between atoms: C_7  and  C_12
REMARK    4  A    between atoms: C_9  and  C_11
REMARK                            x       y       z     vdW  Elec       q    Type
REMARK                         _______ _______ _______ _____ _____    ______ ____
ROOT
ATOM      1  C   LIG A   1      -8.031  -1.005 130.346  0.00  0.00    +0.011 C 
ATOM      2  C   LIG A   1      -7.499  -1.167 128.919  0.00  0.00    +0.025 C 
ATOM      3  C   LIG A   1      -8.000  -2.476 128.299  0.00  0.00    +0.152 C 
ATOM      4  O   LIG A   1      -6.970  -3.454 128.491  0.00  0.00    -0.364 OA
ATOM      5  C   LIG A   1      -5.744  -2.828 128.898  0.00  0.00    +0.152 C 
ATOM      6  C   LIG A   1      -5.979  -1.311 128.910  0.00  0.00    +0.025 C 
ATOM      7  C   LIG A   1      -5.357  -0.651 127.677  0.00  0.00    +0.011 C 
ENDROOT
BRANCH   5   8
ATOM      8  C   LIG A   1      -5.265  -3.394 130.227  0.00  0.00    -0.015 A 
ATOM      9  C   LIG A   1      -4.251  -2.726 130.939  0.00  0.00    +0.055 A 
ATOM     10  C   LIG A   1      -3.814  -3.268 132.130  0.00  0.00    +0.167 A 
ATOM     11  C   LIG A   1      -4.330  -4.440 132.626  0.00  0.00    +0.166 A 
ATOM     12  C   LIG A   1      -5.310  -5.138 131.957  0.00  0.00    +0.050 A 
ATOM     13  C   LIG A   1      -5.774  -4.609 130.747  0.00  0.00    +0.010 A 
ATOM     14  O   LIG A   1      -3.761  -4.800 133.806  0.00  0.00    -0.453 OA
ATOM     15  C   LIG A   1      -2.821  -3.723 133.993  0.00  0.00    +0.466 C 
ATOM     16  O   LIG A   1      -2.853  -2.742 132.936  0.00  0.00    -0.453 OA
ENDBRANCH   5   8
BRANCH   3  17
ATOM     17  C   LIG A   1      -8.380  -2.364 126.829  0.00  0.00    -0.015 A 
ATOM     18  C   LIG A   1      -8.708  -1.104 126.296  0.00  0.00    +0.055 A 
ATOM     19  C   LIG A   1      -9.061  -1.023 124.964  0.00  0.00    +0.167 A 
ATOM     20  C   LIG A   1      -9.112  -2.135 124.160  0.00  0.00    +0.166 A 
ATOM     21  C   LIG A   1      -8.819  -3.390 124.642  0.00  0.00    +0.050 A 
ATOM     22  C   LIG A   1      -8.455  -3.501 125.988  0.00  0.00    +0.010 A 
ATOM     23  O   LIG A   1      -9.483  -1.838 122.886  0.00  0.00    -0.453 OA
ATOM     24  C   LIG A   1      -9.659  -0.409 122.983  0.00  0.00    +0.466 C 
ATOM     25  O   LIG A   1      -9.396   0.115 124.301  0.00  0.00    -0.453 OA
ENDBRANCH   3  17
TORSDOF 2
ENDMDL
MODEL 9
REMARK VINA RESULT:      -7.5      3.651      9.959
REMARK  Name = NuBBE_2156
REMARK  4 active torsions:
REMARK  status: ('A' for Active; 'I' for Inactive)
REMARK    1  A    between atoms: C_1  and  C_2
REMARK    2  A    between atoms: C_4  and  C_21
REMARK    3  A    between atoms: C_7  and  C_12
REMARK    4  A    between atoms: C_9  and  C_11
REMARK                            x       y       z     vdW  Elec       q    Type
REMARK                         _______ _______ _______ _____ _____    ______ ____
ROOT
ATOM      1  C   LIG A   1      -5.412  -0.963 131.244  0.00  0.00    +0.011 C 
ATOM      2  C   LIG A   1      -5.616  -1.812 129.986  0.00  0.00    +0.025 C 
ATOM      3  C   LIG A   1      -6.975  -2.520 130.026  0.00  0.00    +0.152 C 
ATOM      4  O   LIG A   1      -6.747  -3.841 130.536  0.00  0.00    -0.364 OA
ATOM      5  C   LIG A   1      -5.345  -4.149 130.540  0.00  0.00    +0.152 C 
ATOM      6  C   LIG A   1      -4.605  -2.954 129.921  0.00  0.00    +0.025 C 
ATOM      7  C   LIG A   1      -4.186  -3.256 128.480  0.00  0.00    +0.011 C 
ENDROOT
BRANCH   5   8
ATOM      8  C   LIG A   1      -4.877  -4.513 131.941  0.00  0.00    -0.015 A 
ATOM      9  C   LIG A   1      -3.544  -4.250 132.316  0.00  0.00    +0.055 A 
ATOM     10  C   LIG A   1      -3.134  -4.609 133.583  0.00  0.00    +0.167 A 
ATOM     11  C   LIG A   1      -3.980  -5.223 134.474  0.00  0.00    +0.166 A 
ATOM     12  C   LIG A   1      -5.284  -5.515 134.146  0.00  0.00    +0.050 A 
ATOM     13  C   LIG A   1      -5.729  -5.160 132.868  0.00  0.00    +0.010 A 
ATOM     14  O   LIG A   1      -3.377  -5.494 135.661  0.00  0.00    -0.453 OA
ATOM     15  C   LIG A   1      -2.050  -4.988 135.413  0.00  0.00    +0.466 C 
ATOM     16  O   LIG A   1      -1.889  -4.418 134.097  0.00  0.00    -0.453 OA
ENDBRANCH   5   8
BRANCH   3  17
ATOM     17  C   LIG A   1      -7.691  -2.571 128.683  0.00  0.00    -0.015 A 
ATOM     18  C   LIG A   1      -7.519  -1.513 127.770  0.00  0.00    +0.055 A 
ATOM     19  C   LIG A   1      -8.185  -1.570 126.563  0.00  0.00    +0.167 A 
ATOM     20  C   LIG A   1      -9.014  -2.616 126.241  0.00  0.00    +0.166 A 
ATOM     21  C   LIG A   1      -9.228  -3.662 127.110  0.00  0.00    +0.050 A 
ATOM     22  C   LIG A   1      -8.564  -3.632 128.341  0.00  0.00    +0.010 A 
ATOM     23  O   LIG A   1      -9.573  -2.477 125.010  0.00  0.00    -0.453 OA
ATOM     24  C   LIG A   1      -8.998  -1.221 124.593  0.00  0.00    +0.466 C 
ATOM     25  O   LIG A   1      -8.117  -0.637 125.577  0.00  0.00    -0.453 OA
ENDBRANCH   3  17
TORSDOF 2
ENDMDL
