MODEL 1
REMARK VINA RESULT:      -7.8      0.000      0.000
REMARK  Name = NuBBE_1572
REMARK  6 active torsions:
REMARK  status: ('A' for Active; 'I' for Inactive)
REMARK    1  A    between atoms: C_1  and  O_3
REMARK    2  A    between atoms: C_1  and  C_5
REMARK    3  A    between atoms: O_3  and  C_4
REMARK    4  A    between atoms: C_8  and  C_33
REMARK    5  A    between atoms: C_25  and  O_27
REMARK    6  A    between atoms: O_27  and  C_28
REMARK                            x       y       z     vdW  Elec       q    Type
REMARK                         _______ _______ _______ _____ _____    ______ ____
ROOT
ATOM      1  C   LIG A   1      -7.673   1.244 132.502  0.00  0.00    +0.074 C 
ATOM      2  C   LIG A   1      -6.379   0.874 132.558  0.00  0.00    +0.198 C 
ATOM      3  O   LIG A   1      -5.419   1.410 133.376  0.00  0.00    -0.496 OA
ATOM      4  C   LIG A   1      -5.912   2.273 134.410  0.00  0.00    +0.174 C 
ATOM      5  C   LIG A   1      -7.008   3.223 133.895  0.00  0.00    +0.051 C 
ATOM      6  C   LIG A   1      -8.195   2.361 133.388  0.00  0.00    +0.039 C 
ATOM      7  C   LIG A   1      -9.245   3.305 132.776  0.00  0.00    +0.034 C 
ATOM      8  C   LIG A   1      -8.644   4.174 131.672  0.00  0.00    +0.104 C 
ATOM      9  C   LIG A   1      -9.662   5.062 131.032  0.00  0.00    +0.038 A 
ATOM     10  C   LIG A   1      -9.456   6.377 130.675  0.00  0.00    -0.016 A 
ATOM     11  C   LIG A   1     -10.639   6.849 130.065  0.00  0.00    +0.007 A 
ATOM     12  C   LIG A   1     -11.548   5.790 130.045  0.00  0.00    +0.047 A 
ATOM     13  N   LIG A   1     -10.923   4.707 130.631  0.00  0.00    -0.356 N 
ATOM     14  H   LIG A   1     -11.344   3.794 130.743  0.00  0.00    +0.166 HD
ATOM     15  C   LIG A   1     -12.830   5.918 129.499  0.00  0.00    +0.030 A 
ATOM     16  C   LIG A   1     -13.180   7.166 128.963  0.00  0.00    +0.048 A 
ATOM     17  C   LIG A   1     -12.295   8.246 128.988  0.00  0.00    +0.121 A 
ATOM     18  C   LIG A   1     -11.015   8.087 129.521  0.00  0.00    +0.056 A 
ATOM     19  C   LIG A   1      -8.170   7.067 130.963  0.00  0.00    +0.053 C 
ATOM     20  C   LIG A   1      -7.077   6.033 131.326  0.00  0.00    +0.090 C 
ATOM     21  N   LIG A   1      -7.577   5.013 132.279  0.00  0.00    -0.293 NA
ATOM     22  C   LIG A   1      -6.489   4.182 132.796  0.00  0.00    +0.092 C 
ATOM     23  C   LIG A   1      -4.714   3.004 135.005  0.00  0.00    +0.052 C 
ENDROOT
BRANCH   1  24
ATOM     24  C   LIG A   1      -8.587   0.512 131.585  0.00  0.00    +0.338 C 
ATOM     25  O   LIG A   1      -9.719   0.154 131.893  0.00  0.00    -0.245 OA
BRANCH  24  26
ATOM     26  O   LIG A   1      -8.018   0.334 130.367  0.00  0.00    -0.465 OA
ATOM     27  C   LIG A   1      -8.303   1.356 129.410  0.00  0.00    +0.280 C 
ENDBRANCH  24  26
ENDBRANCH   1  24
BRANCH  17  28
ATOM     28  O   LIG A   1     -12.755   9.414 128.437  0.00  0.00    -0.495 OA
ATOM     29  C   LIG A   1     -13.368  10.312 129.360  0.00  0.00    +0.277 C 
ENDBRANCH  17  28
TORSDOF 3
ENDMDL
MODEL 2
REMARK VINA RESULT:      -7.8      6.841      8.417
REMARK  Name = NuBBE_1572
REMARK  6 active torsions:
REMARK  status: ('A' for Active; 'I' for Inactive)
REMARK    1  A    between atoms: C_1  and  O_3
REMARK    2  A    between atoms: C_1  and  C_5
REMARK    3  A    between atoms: O_3  and  C_4
REMARK    4  A    between atoms: C_8  and  C_33
REMARK    5  A    between atoms: C_25  and  O_27
REMARK    6  A    between atoms: O_27  and  C_28
REMARK                            x       y       z     vdW  Elec       q    Type
REMARK                         _______ _______ _______ _____ _____    ______ ____
ROOT
ATOM      1  C   LIG A   1      -4.107   3.826 128.620  0.00  0.00    +0.074 C 
ATOM      2  C   LIG A   1      -4.707   3.820 129.825  0.00  0.00    +0.198 C 
ATOM      3  O   LIG A   1      -5.354   2.759 130.402  0.00  0.00    -0.496 OA
ATOM      4  C   LIG A   1      -5.160   1.498 129.746  0.00  0.00    +0.174 C 
ATOM      5  C   LIG A   1      -5.243   1.625 128.215  0.00  0.00    +0.051 C 
ATOM      6  C   LIG A   1      -4.114   2.583 127.748  0.00  0.00    +0.039 C 
ATOM      7  C   LIG A   1      -4.262   2.795 126.231  0.00  0.00    +0.034 C 
ATOM      8  C   LIG A   1      -5.653   3.314 125.869  0.00  0.00    +0.104 C 
ATOM      9  C   LIG A   1      -5.798   3.573 124.404  0.00  0.00    +0.038 A 
ATOM     10  C   LIG A   1      -6.910   3.267 123.651  0.00  0.00    -0.016 A 
ATOM     11  C   LIG A   1      -6.671   3.705 122.329  0.00  0.00    +0.007 A 
ATOM     12  C   LIG A   1      -5.407   4.295 122.310  0.00  0.00    +0.047 A 
ATOM     13  N   LIG A   1      -4.899   4.212 123.591  0.00  0.00    -0.356 N 
ATOM     14  H   LIG A   1      -3.998   4.571 123.876  0.00  0.00    +0.166 HD
ATOM     15  C   LIG A   1      -4.858   4.845 121.146  0.00  0.00    +0.030 A 
ATOM     16  C   LIG A   1      -5.631   4.781 119.977  0.00  0.00    +0.048 A 
ATOM     17  C   LIG A   1      -6.892   4.179 119.967  0.00  0.00    +0.121 A 
ATOM     18  C   LIG A   1      -7.425   3.656 121.146  0.00  0.00    +0.056 A 
ATOM     19  C   LIG A   1      -8.083   2.571 124.246  0.00  0.00    +0.053 C 
ATOM     20  C   LIG A   1      -8.006   2.617 125.791  0.00  0.00    +0.090 C 
ATOM     21  N   LIG A   1      -6.647   2.290 126.285  0.00  0.00    -0.293 NA
ATOM     22  C   LIG A   1      -6.633   2.107 127.737  0.00  0.00    +0.092 C 
ATOM     23  C   LIG A   1      -6.178   0.521 130.324  0.00  0.00    +0.052 C 
ENDROOT
BRANCH   1  24
ATOM     24  C   LIG A   1      -3.406   5.061 128.175  0.00  0.00    +0.338 C 
ATOM     25  O   LIG A   1      -2.240   5.084 127.796  0.00  0.00    -0.245 OA
BRANCH  24  26
ATOM     26  O   LIG A   1      -4.235   6.133 128.211  0.00  0.00    -0.465 OA
ATOM     27  C   LIG A   1      -3.681   7.307 128.808  0.00  0.00    +0.280 C 
ENDBRANCH  24  26
ENDBRANCH   1  24
BRANCH  17  28
ATOM     28  O   LIG A   1      -7.548   4.176 118.763  0.00  0.00    -0.495 OA
ATOM     29  C   LIG A   1      -8.970   4.240 118.855  0.00  0.00    +0.277 C 
ENDBRANCH  17  28
TORSDOF 3
ENDMDL
MODEL 3
REMARK VINA RESULT:      -7.7      6.286      8.474
REMARK  Name = NuBBE_1572
REMARK  6 active torsions:
REMARK  status: ('A' for Active; 'I' for Inactive)
REMARK    1  A    between atoms: C_1  and  O_3
REMARK    2  A    between atoms: C_1  and  C_5
REMARK    3  A    between atoms: O_3  and  C_4
REMARK    4  A    between atoms: C_8  and  C_33
REMARK    5  A    between atoms: C_25  and  O_27
REMARK    6  A    between atoms: O_27  and  C_28
REMARK                            x       y       z     vdW  Elec       q    Type
REMARK                         _______ _______ _______ _____ _____    ______ ____
ROOT
ATOM      1  C   LIG A   1      -7.758  -2.885 127.346  0.00  0.00    +0.074 C 
ATOM      2  C   LIG A   1      -8.989  -3.330 127.031  0.00  0.00    +0.198 C 
ATOM      3  O   LIG A   1      -9.508  -3.452 125.769  0.00  0.00    -0.496 OA
ATOM      4  C   LIG A   1      -8.557  -3.307 124.704  0.00  0.00    +0.174 C 
ATOM      5  C   LIG A   1      -7.583  -2.143 124.955  0.00  0.00    +0.051 C 
ATOM      6  C   LIG A   1      -6.795  -2.445 126.258  0.00  0.00    +0.039 C 
ATOM      7  C   LIG A   1      -5.898  -1.234 126.567  0.00  0.00    +0.034 C 
ATOM      8  C   LIG A   1      -6.710   0.057 126.664  0.00  0.00    +0.104 C 
ATOM      9  C   LIG A   1      -5.861   1.236 127.013  0.00  0.00    +0.038 A 
ATOM     10  C   LIG A   1      -5.977   2.491 126.456  0.00  0.00    -0.016 A 
ATOM     11  C   LIG A   1      -5.028   3.331 127.080  0.00  0.00    +0.007 A 
ATOM     12  C   LIG A   1      -4.356   2.563 128.031  0.00  0.00    +0.047 A 
ATOM     13  N   LIG A   1      -4.890   1.291 127.979  0.00  0.00    -0.356 N 
ATOM     14  H   LIG A   1      -4.600   0.522 128.569  0.00  0.00    +0.166 HD
ATOM     15  C   LIG A   1      -3.344   3.094 128.839  0.00  0.00    +0.030 A 
ATOM     16  C   LIG A   1      -3.020   4.447 128.659  0.00  0.00    +0.048 A 
ATOM     17  C   LIG A   1      -3.665   5.232 127.700  0.00  0.00    +0.121 A 
ATOM     18  C   LIG A   1      -4.685   4.682 126.920  0.00  0.00    +0.056 A 
ATOM     19  C   LIG A   1      -6.960   2.772 125.375  0.00  0.00    +0.053 C 
ATOM     20  C   LIG A   1      -7.998   1.628 125.284  0.00  0.00    +0.090 C 
ATOM     21  N   LIG A   1      -7.355   0.294 125.345  0.00  0.00    -0.293 NA
ATOM     22  C   LIG A   1      -8.303  -0.775 125.028  0.00  0.00    +0.092 C 
ATOM     23  C   LIG A   1      -9.345  -3.163 123.406  0.00  0.00    +0.052 C 
ENDROOT
BRANCH   1  24
ATOM     24  C   LIG A   1      -7.347  -2.868 128.776  0.00  0.00    +0.338 C 
ATOM     25  O   LIG A   1      -6.504  -3.620 129.251  0.00  0.00    -0.245 OA
BRANCH  24  26
ATOM     26  O   LIG A   1      -7.997  -1.893 129.459  0.00  0.00    -0.465 OA
ATOM     27  C   LIG A   1      -7.152  -0.993 130.178  0.00  0.00    +0.280 C 
ENDBRANCH  24  26
ENDBRANCH   1  24
BRANCH  17  28
ATOM     28  O   LIG A   1      -3.258   6.538 127.617  0.00  0.00    -0.495 OA
ATOM     29  C   LIG A   1      -2.178   6.886 128.483  0.00  0.00    +0.277 C 
ENDBRANCH  17  28
TORSDOF 3
ENDMDL
MODEL 4
REMARK VINA RESULT:      -7.6      3.228      7.288
REMARK  Name = NuBBE_1572
REMARK  6 active torsions:
REMARK  status: ('A' for Active; 'I' for Inactive)
REMARK    1  A    between atoms: C_1  and  O_3
REMARK    2  A    between atoms: C_1  and  C_5
REMARK    3  A    between atoms: O_3  and  C_4
REMARK    4  A    between atoms: C_8  and  C_33
REMARK    5  A    between atoms: C_25  and  O_27
REMARK    6  A    between atoms: O_27  and  C_28
REMARK                            x       y       z     vdW  Elec       q    Type
REMARK                         _______ _______ _______ _____ _____    ______ ____
ROOT
ATOM      1  C   LIG A   1      -9.693   6.027 130.544  0.00  0.00    +0.074 C 
ATOM      2  C   LIG A   1     -10.306   6.315 131.707  0.00  0.00    +0.198 C 
ATOM      3  O   LIG A   1      -9.762   6.197 132.960  0.00  0.00    -0.496 OA
ATOM      4  C   LIG A   1      -8.346   5.967 132.990  0.00  0.00    +0.174 C 
ATOM      5  C   LIG A   1      -7.906   4.940 131.932  0.00  0.00    +0.051 C 
ATOM      6  C   LIG A   1      -8.267   5.505 130.531  0.00  0.00    +0.039 C 
ATOM      7  C   LIG A   1      -7.924   4.434 129.480  0.00  0.00    +0.034 C 
ATOM      8  C   LIG A   1      -8.632   3.111 129.775  0.00  0.00    +0.104 C 
ATOM      9  C   LIG A   1      -8.350   2.074 128.736  0.00  0.00    +0.038 A 
ATOM     10  C   LIG A   1      -8.102   0.743 128.990  0.00  0.00    -0.016 A 
ATOM     11  C   LIG A   1      -7.927   0.092 127.749  0.00  0.00    +0.007 A 
ATOM     12  C   LIG A   1      -8.093   1.050 126.749  0.00  0.00    +0.047 A 
ATOM     13  N   LIG A   1      -8.362   2.250 127.377  0.00  0.00    -0.356 N 
ATOM     14  H   LIG A   1      -8.538   3.123 126.896  0.00  0.00    +0.166 HD
ATOM     15  C   LIG A   1      -7.990   0.736 125.390  0.00  0.00    +0.030 A 
ATOM     16  C   LIG A   1      -7.708  -0.598 125.057  0.00  0.00    +0.048 A 
ATOM     17  C   LIG A   1      -7.519  -1.572 126.040  0.00  0.00    +0.121 A 
ATOM     18  C   LIG A   1      -7.646  -1.235 127.389  0.00  0.00    +0.056 A 
ATOM     19  C   LIG A   1      -8.034   0.218 130.381  0.00  0.00    +0.053 C 
ATOM     20  C   LIG A   1      -8.635   1.245 131.371  0.00  0.00    +0.090 C 
ATOM     21  N   LIG A   1      -8.156   2.621 131.095  0.00  0.00    -0.293 NA
ATOM     22  C   LIG A   1      -8.536   3.546 132.164  0.00  0.00    +0.092 C 
ATOM     23  C   LIG A   1      -7.980   5.559 134.412  0.00  0.00    +0.052 C 
ENDROOT
BRANCH   1  24
ATOM     24  C   LIG A   1     -10.424   6.266 129.270  0.00  0.00    +0.338 C 
ATOM     25  O   LIG A   1     -11.487   5.726 128.984  0.00  0.00    -0.245 OA
BRANCH  24  26
ATOM     26  O   LIG A   1      -9.781   7.179 128.501  0.00  0.00    -0.465 OA
ATOM     27  C   LIG A   1     -10.509   8.383 128.254  0.00  0.00    +0.280 C 
ENDBRANCH  24  26
ENDBRANCH   1  24
BRANCH  17  28
ATOM     28  O   LIG A   1      -7.245  -2.837 125.589  0.00  0.00    -0.495 OA
ATOM     29  C   LIG A   1      -8.214  -3.377 124.692  0.00  0.00    +0.277 C 
ENDBRANCH  17  28
TORSDOF 3
ENDMDL
MODEL 5
REMARK VINA RESULT:      -7.5      6.689     10.436
REMARK  Name = NuBBE_1572
REMARK  6 active torsions:
REMARK  status: ('A' for Active; 'I' for Inactive)
REMARK    1  A    between atoms: C_1  and  O_3
REMARK    2  A    between atoms: C_1  and  C_5
REMARK    3  A    between atoms: O_3  and  C_4
REMARK    4  A    between atoms: C_8  and  C_33
REMARK    5  A    between atoms: C_25  and  O_27
REMARK    6  A    between atoms: O_27  and  C_28
REMARK                            x       y       z     vdW  Elec       q    Type
REMARK                         _______ _______ _______ _____ _____    ______ ____
ROOT
ATOM      1  C   LIG A   1      -8.641  -0.884 123.691  0.00  0.00    +0.074 C 
ATOM      2  C   LIG A   1      -9.624  -0.031 123.347  0.00  0.00    +0.198 C 
ATOM      3  O   LIG A   1      -9.466   1.279 122.977  0.00  0.00    -0.496 OA
ATOM      4  C   LIG A   1      -8.113   1.681 122.722  0.00  0.00    +0.174 C 
ATOM      5  C   LIG A   1      -7.138   1.123 123.774  0.00  0.00    +0.051 C 
ATOM      6  C   LIG A   1      -7.194  -0.427 123.711  0.00  0.00    +0.039 C 
ATOM      7  C   LIG A   1      -6.300  -0.984 124.833  0.00  0.00    +0.034 C 
ATOM      8  C   LIG A   1      -6.711  -0.442 126.201  0.00  0.00    +0.104 C 
ATOM      9  C   LIG A   1      -5.885  -1.012 127.309  0.00  0.00    +0.038 A 
ATOM     10  C   LIG A   1      -5.402  -0.301 128.385  0.00  0.00    -0.016 A 
ATOM     11  C   LIG A   1      -4.710  -1.203 129.224  0.00  0.00    +0.007 A 
ATOM     12  C   LIG A   1      -4.804  -2.467 128.641  0.00  0.00    +0.047 A 
ATOM     13  N   LIG A   1      -5.536  -2.326 127.479  0.00  0.00    -0.356 N 
ATOM     14  H   LIG A   1      -5.771  -3.085 126.853  0.00  0.00    +0.166 HD
ATOM     15  C   LIG A   1      -4.226  -3.601 129.223  0.00  0.00    +0.030 A 
ATOM     16  C   LIG A   1      -3.536  -3.424 130.431  0.00  0.00    +0.048 A 
ATOM     17  C   LIG A   1      -3.413  -2.166 131.025  0.00  0.00    +0.121 A 
ATOM     18  C   LIG A   1      -4.015  -1.054 130.434  0.00  0.00    +0.056 A 
ATOM     19  C   LIG A   1      -5.623   1.165 128.509  0.00  0.00    +0.053 C 
ATOM     20  C   LIG A   1      -6.725   1.626 127.525  0.00  0.00    +0.090 C 
ATOM     21  N   LIG A   1      -6.544   1.035 126.178  0.00  0.00    -0.293 NA
ATOM     22  C   LIG A   1      -7.442   1.648 125.197  0.00  0.00    +0.092 C 
ATOM     23  C   LIG A   1      -8.097   3.203 122.634  0.00  0.00    +0.052 C 
ENDROOT
BRANCH   1  24
ATOM     24  C   LIG A   1      -8.997  -2.292 124.016  0.00  0.00    +0.338 C 
ATOM     25  O   LIG A   1      -8.611  -3.259 123.369  0.00  0.00    -0.245 OA
BRANCH  24  26
ATOM     26  O   LIG A   1      -9.763  -2.357 125.134  0.00  0.00    -0.465 OA
ATOM     27  C   LIG A   1      -9.196  -3.102 126.213  0.00  0.00    +0.280 C 
ENDBRANCH  24  26
ENDBRANCH   1  24
BRANCH  17  28
ATOM     28  O   LIG A   1      -2.712  -2.122 132.202  0.00  0.00    -0.495 OA
ATOM     29  C   LIG A   1      -3.392  -2.679 133.326  0.00  0.00    +0.277 C 
ENDBRANCH  17  28
TORSDOF 3
ENDMDL
MODEL 6
REMARK VINA RESULT:      -7.4      5.368      9.330
REMARK  Name = NuBBE_1572
REMARK  6 active torsions:
REMARK  status: ('A' for Active; 'I' for Inactive)
REMARK    1  A    between atoms: C_1  and  O_3
REMARK    2  A    between atoms: C_1  and  C_5
REMARK    3  A    between atoms: O_3  and  C_4
REMARK    4  A    between atoms: C_8  and  C_33
REMARK    5  A    between atoms: C_25  and  O_27
REMARK    6  A    between atoms: O_27  and  C_28
REMARK                            x       y       z     vdW  Elec       q    Type
REMARK                         _______ _______ _______ _____ _____    ______ ____
ROOT
ATOM      1  C   LIG A   1      -8.206  -0.663 124.035  0.00  0.00    +0.074 C 
ATOM      2  C   LIG A   1      -8.893   0.166 123.226  0.00  0.00    +0.198 C 
ATOM      3  O   LIG A   1      -8.589   1.476 122.962  0.00  0.00    -0.496 OA
ATOM      4  C   LIG A   1      -7.297   1.904 123.416  0.00  0.00    +0.174 C 
ATOM      5  C   LIG A   1      -6.977   1.377 124.826  0.00  0.00    +0.051 C 
ATOM      6  C   LIG A   1      -6.972  -0.174 124.773  0.00  0.00    +0.039 C 
ATOM      7  C   LIG A   1      -6.758  -0.702 126.202  0.00  0.00    +0.034 C 
ATOM      8  C   LIG A   1      -7.810  -0.156 127.167  0.00  0.00    +0.104 C 
ATOM      9  C   LIG A   1      -7.647  -0.698 128.550  0.00  0.00    +0.038 A 
ATOM     10  C   LIG A   1      -7.782   0.033 129.710  0.00  0.00    -0.016 A 
ATOM     11  C   LIG A   1      -7.594  -0.846 130.799  0.00  0.00    +0.007 A 
ATOM     12  C   LIG A   1      -7.364  -2.117 130.272  0.00  0.00    +0.047 A 
ATOM     13  N   LIG A   1      -7.412  -2.002 128.897  0.00  0.00    -0.356 N 
ATOM     14  H   LIG A   1      -7.290  -2.772 128.253  0.00  0.00    +0.166 HD
ATOM     15  C   LIG A   1      -7.142  -3.233 131.087  0.00  0.00    +0.030 A 
ATOM     16  C   LIG A   1      -7.157  -3.031 132.475  0.00  0.00    +0.048 A 
ATOM     17  C   LIG A   1      -7.368  -1.765 133.026  0.00  0.00    +0.121 A 
ATOM     18  C   LIG A   1      -7.605  -0.671 132.192  0.00  0.00    +0.056 A 
ATOM     19  C   LIG A   1      -8.055   1.496 129.678  0.00  0.00    +0.053 C 
ATOM     20  C   LIG A   1      -8.519   1.923 128.265  0.00  0.00    +0.090 C 
ATOM     21  N   LIG A   1      -7.674   1.324 127.203  0.00  0.00    -0.293 NA
ATOM     22  C   LIG A   1      -7.964   1.908 125.893  0.00  0.00    +0.092 C 
ATOM     23  C   LIG A   1      -7.261   3.425 123.320  0.00  0.00    +0.052 C 
ENDROOT
BRANCH   1  24
ATOM     24  C   LIG A   1      -8.657  -2.075 124.163  0.00  0.00    +0.338 C 
ATOM     25  O   LIG A   1      -8.109  -3.018 123.605  0.00  0.00    -0.245 OA
BRANCH  24  26
ATOM     26  O   LIG A   1      -9.718  -2.174 125.002  0.00  0.00    -0.465 OA
ATOM     27  C   LIG A   1      -9.585  -3.154 126.033  0.00  0.00    +0.280 C 
ENDBRANCH  24  26
ENDBRANCH   1  24
BRANCH  17  28
ATOM     28  O   LIG A   1      -7.356  -1.695 134.395  0.00  0.00    -0.495 OA
ATOM     29  C   LIG A   1      -6.945  -2.891 135.054  0.00  0.00    +0.277 C 
ENDBRANCH  17  28
TORSDOF 3
ENDMDL
MODEL 7
REMARK VINA RESULT:      -7.3      4.425      7.766
REMARK  Name = NuBBE_1572
REMARK  6 active torsions:
REMARK  status: ('A' for Active; 'I' for Inactive)
REMARK    1  A    between atoms: C_1  and  O_3
REMARK    2  A    between atoms: C_1  and  C_5
REMARK    3  A    between atoms: O_3  and  C_4
REMARK    4  A    between atoms: C_8  and  C_33
REMARK    5  A    between atoms: C_25  and  O_27
REMARK    6  A    between atoms: O_27  and  C_28
REMARK                            x       y       z     vdW  Elec       q    Type
REMARK                         _______ _______ _______ _____ _____    ______ ____
ROOT
ATOM      1  C   LIG A   1      -7.269   0.056 124.462  0.00  0.00    +0.074 C 
ATOM      2  C   LIG A   1      -6.491  -0.920 123.955  0.00  0.00    +0.198 C 
ATOM      3  O   LIG A   1      -6.744  -2.266 124.006  0.00  0.00    -0.496 OA
ATOM      4  C   LIG A   1      -8.066  -2.620 124.436  0.00  0.00    +0.174 C 
ATOM      5  C   LIG A   1      -8.532  -1.770 125.631  0.00  0.00    +0.051 C 
ATOM      6  C   LIG A   1      -8.559  -0.284 125.186  0.00  0.00    +0.039 C 
ATOM      7  C   LIG A   1      -8.922   0.576 126.409  0.00  0.00    +0.034 C 
ATOM      8  C   LIG A   1      -7.959   0.335 127.571  0.00  0.00    +0.104 C 
ATOM      9  C   LIG A   1      -8.267   1.200 128.751  0.00  0.00    +0.038 A 
ATOM     10  C   LIG A   1      -8.232   0.790 130.066  0.00  0.00    -0.016 A 
ATOM     11  C   LIG A   1      -8.541   1.906 130.874  0.00  0.00    +0.007 A 
ATOM     12  C   LIG A   1      -8.742   2.993 130.023  0.00  0.00    +0.047 A 
ATOM     13  N   LIG A   1      -8.558   2.539 128.733  0.00  0.00    -0.356 N 
ATOM     14  H   LIG A   1      -8.630   3.116 127.905  0.00  0.00    +0.166 HD
ATOM     15  C   LIG A   1      -9.062   4.267 130.505  0.00  0.00    +0.030 A 
ATOM     16  C   LIG A   1      -9.179   4.421 131.894  0.00  0.00    +0.048 A 
ATOM     17  C   LIG A   1      -9.000   3.344 132.765  0.00  0.00    +0.121 A 
ATOM     18  C   LIG A   1      -8.662   2.087 132.261  0.00  0.00    +0.056 A 
ATOM     19  C   LIG A   1      -7.930  -0.621 130.431  0.00  0.00    +0.053 C 
ATOM     20  C   LIG A   1      -7.324  -1.370 129.220  0.00  0.00    +0.090 C 
ATOM     21  N   LIG A   1      -8.071  -1.093 127.970  0.00  0.00    -0.293 NA
ATOM     22  C   LIG A   1      -7.644  -1.974 126.882  0.00  0.00    +0.092 C 
ATOM     23  C   LIG A   1      -8.065  -4.117 124.726  0.00  0.00    +0.052 C 
ENDROOT
BRANCH   1  24
ATOM     24  C   LIG A   1      -6.858   1.473 124.267  0.00  0.00    +0.338 C 
ATOM     25  O   LIG A   1      -6.116   2.078 125.032  0.00  0.00    -0.245 OA
BRANCH  24  26
ATOM     26  O   LIG A   1      -7.380   1.980 123.123  0.00  0.00    -0.465 OA
ATOM     27  C   LIG A   1      -8.382   2.982 123.307  0.00  0.00    +0.280 C 
ENDBRANCH  24  26
ENDBRANCH   1  24
BRANCH  17  28
ATOM     28  O   LIG A   1      -9.144   3.619 134.101  0.00  0.00    -0.495 OA
ATOM     29  C   LIG A   1      -8.141   4.473 134.648  0.00  0.00    +0.277 C 
ENDBRANCH  17  28
TORSDOF 3
ENDMDL
MODEL 8
REMARK VINA RESULT:      -7.3      5.312      9.736
REMARK  Name = NuBBE_1572
REMARK  6 active torsions:
REMARK  status: ('A' for Active; 'I' for Inactive)
REMARK    1  A    between atoms: C_1  and  O_3
REMARK    2  A    between atoms: C_1  and  C_5
REMARK    3  A    between atoms: O_3  and  C_4
REMARK    4  A    between atoms: C_8  and  C_33
REMARK    5  A    between atoms: C_25  and  O_27
REMARK    6  A    between atoms: O_27  and  C_28
REMARK                            x       y       z     vdW  Elec       q    Type
REMARK                         _______ _______ _______ _____ _____    ______ ____
ROOT
ATOM      1  C   LIG A   1      -8.555   0.168 124.985  0.00  0.00    +0.074 C 
ATOM      2  C   LIG A   1      -9.458   1.108 124.650  0.00  0.00    +0.198 C 
ATOM      3  O   LIG A   1      -9.330   2.459 124.841  0.00  0.00    -0.496 OA
ATOM      4  C   LIG A   1      -8.017   2.898 125.219  0.00  0.00    +0.174 C 
ATOM      5  C   LIG A   1      -7.380   1.974 126.272  0.00  0.00    +0.051 C 
ATOM      6  C   LIG A   1      -7.248   0.556 125.654  0.00  0.00    +0.039 C 
ATOM      7  C   LIG A   1      -6.710  -0.392 126.740  0.00  0.00    +0.034 C 
ATOM      8  C   LIG A   1      -7.597  -0.379 127.986  0.00  0.00    +0.104 C 
ATOM      9  C   LIG A   1      -7.117  -1.332 129.032  0.00  0.00    +0.038 A 
ATOM     10  C   LIG A   1      -7.086  -1.075 130.385  0.00  0.00    -0.016 A 
ATOM     11  C   LIG A   1      -6.610  -2.236 131.035  0.00  0.00    +0.007 A 
ATOM     12  C   LIG A   1      -6.376  -3.196 130.051  0.00  0.00    +0.047 A 
ATOM     13  N   LIG A   1      -6.704  -2.625 128.838  0.00  0.00    -0.356 N 
ATOM     14  H   LIG A   1      -6.643  -3.097 127.945  0.00  0.00    +0.166 HD
ATOM     15  C   LIG A   1      -5.900  -4.477 130.356  0.00  0.00    +0.030 A 
ATOM     16  C   LIG A   1      -5.660  -4.769 131.707  0.00  0.00    +0.048 A 
ATOM     17  C   LIG A   1      -5.869  -3.819 132.709  0.00  0.00    +0.121 A 
ATOM     18  C   LIG A   1      -6.363  -2.555 132.379  0.00  0.00    +0.056 A 
ATOM     19  C   LIG A   1      -7.489   0.248 130.933  0.00  0.00    +0.053 C 
ATOM     20  C   LIG A   1      -8.257   1.060 129.862  0.00  0.00    +0.090 C 
ATOM     21  N   LIG A   1      -7.589   1.000 128.541  0.00  0.00    -0.293 NA
ATOM     22  C   LIG A   1      -8.181   1.947 127.595  0.00  0.00    +0.092 C 
ATOM     23  C   LIG A   1      -8.135   4.346 125.682  0.00  0.00    +0.052 C 
ENDROOT
BRANCH   1  24
ATOM     24  C   LIG A   1      -8.844  -1.254 124.654  0.00  0.00    +0.338 C 
ATOM     25  O   LIG A   1      -8.305  -1.863 123.737  0.00  0.00    -0.245 OA
BRANCH  24  26
ATOM     26  O   LIG A   1      -9.746  -1.783 125.518  0.00  0.00    -0.465 OA
ATOM     27  C   LIG A   1      -9.363  -3.027 126.106  0.00  0.00    +0.280 C 
ENDBRANCH  24  26
ENDBRANCH   1  24
BRANCH  17  28
ATOM     28  O   LIG A   1      -5.595  -4.223 133.990  0.00  0.00    -0.495 OA
ATOM     29  C   LIG A   1      -5.887  -5.592 134.262  0.00  0.00    +0.277 C 
ENDBRANCH  17  28
TORSDOF 3
ENDMDL
MODEL 9
REMARK VINA RESULT:      -7.2      2.857      8.007
REMARK  Name = NuBBE_1572
REMARK  6 active torsions:
REMARK  status: ('A' for Active; 'I' for Inactive)
REMARK    1  A    between atoms: C_1  and  O_3
REMARK    2  A    between atoms: C_1  and  C_5
REMARK    3  A    between atoms: O_3  and  C_4
REMARK    4  A    between atoms: C_8  and  C_33
REMARK    5  A    between atoms: C_25  and  O_27
REMARK    6  A    between atoms: O_27  and  C_28
REMARK                            x       y       z     vdW  Elec       q    Type
REMARK                         _______ _______ _______ _____ _____    ______ ____
ROOT
ATOM      1  C   LIG A   1      -8.353   6.068 131.706  0.00  0.00    +0.074 C 
ATOM      2  C   LIG A   1      -8.094   7.187 131.003  0.00  0.00    +0.198 C 
ATOM      3  O   LIG A   1      -8.799   7.645 129.921  0.00  0.00    -0.496 OA
ATOM      4  C   LIG A   1     -10.050   6.982 129.685  0.00  0.00    +0.174 C 
ATOM      5  C   LIG A   1      -9.935   5.458 129.856  0.00  0.00    +0.051 C 
ATOM      6  C   LIG A   1      -9.512   5.166 131.321  0.00  0.00    +0.039 C 
ATOM      7  C   LIG A   1      -9.295   3.649 131.464  0.00  0.00    +0.034 C 
ATOM      8  C   LIG A   1      -8.277   3.129 130.449  0.00  0.00    +0.104 C 
ATOM      9  C   LIG A   1      -8.016   1.666 130.607  0.00  0.00    +0.038 A 
ATOM     10  C   LIG A   1      -7.876   0.769 129.571  0.00  0.00    -0.016 A 
ATOM     11  C   LIG A   1      -7.598  -0.498 130.131  0.00  0.00    +0.007 A 
ATOM     12  C   LIG A   1      -7.556  -0.339 131.516  0.00  0.00    +0.047 A 
ATOM     13  N   LIG A   1      -7.803   0.993 131.781  0.00  0.00    -0.356 N 
ATOM     14  H   LIG A   1      -7.823   1.400 132.707  0.00  0.00    +0.166 HD
ATOM     15  C   LIG A   1      -7.296  -1.408 132.381  0.00  0.00    +0.030 A 
ATOM     16  C   LIG A   1      -7.076  -2.667 131.802  0.00  0.00    +0.048 A 
ATOM     17  C   LIG A   1      -7.131  -2.855 130.419  0.00  0.00    +0.121 A 
ATOM     18  C   LIG A   1      -7.374  -1.768 129.577  0.00  0.00    +0.056 A 
ATOM     19  C   LIG A   1      -8.037   1.190 128.153  0.00  0.00    +0.053 C 
ATOM     20  C   LIG A   1      -7.990   2.733 128.043  0.00  0.00    +0.090 C 
ATOM     21  N   LIG A   1      -8.815   3.385 129.087  0.00  0.00    -0.293 NA
ATOM     22  C   LIG A   1      -8.955   4.821 128.842  0.00  0.00    +0.092 C 
ATOM     23  C   LIG A   1     -10.531   7.398 128.299  0.00  0.00    +0.052 C 
ENDROOT
BRANCH   1  24
ATOM     24  C   LIG A   1      -7.506   5.752 132.888  0.00  0.00    +0.338 C 
ATOM     25  O   LIG A   1      -6.303   5.525 132.823  0.00  0.00    -0.245 OA
BRANCH  24  26
ATOM     26  O   LIG A   1      -8.233   5.788 134.033  0.00  0.00    -0.465 OA
ATOM     27  C   LIG A   1      -7.987   4.711 134.939  0.00  0.00    +0.280 C 
ENDBRANCH  24  26
ENDBRANCH   1  24
BRANCH  17  28
ATOM     28  O   LIG A   1      -6.903  -4.131 129.975  0.00  0.00    -0.495 OA
ATOM     29  C   LIG A   1      -5.744  -4.758 130.522  0.00  0.00    +0.277 C 
ENDBRANCH  17  28
TORSDOF 3
ENDMDL
