MODEL 1
REMARK VINA RESULT:      -3.8      0.000      0.000
REMARK  Name = NuBBE_1980
REMARK  6 active torsions:
REMARK  status: ('A' for Active; 'I' for Inactive)
REMARK    1  A    between atoms: S_1  and  S_2
REMARK    2  A    between atoms: S_1  and  S_6
REMARK    3  A    between atoms: S_2  and  C_3
REMARK    4  A    between atoms: C_3  and  C_4
REMARK    5  A    between atoms: S_6  and  C_7
REMARK    6  A    between atoms: C_7  and  C_8
REMARK                            x       y       z     vdW  Elec       q    Type
REMARK                         _______ _______ _______ _____ _____    ______ ____
ROOT
ATOM      1  S   LIG A   1      -8.490  -2.045 123.705  0.00  0.00    -0.024 S 
ENDROOT
BRANCH   1   2
ATOM      2  S   LIG A   1      -8.266  -3.644 124.983  0.00  0.00    -0.078 S 
BRANCH   2   3
ATOM      3  C   LIG A   1      -9.322  -3.118 126.355  0.00  0.00    +0.108 C 
BRANCH   3   4
ATOM      4  C   LIG A   1      -9.002  -3.896 127.593  0.00  0.00    -0.023 C 
ATOM      5  C   LIG A   1      -8.267  -3.415 128.600  0.00  0.00    +0.005 C 
ENDBRANCH   3   4
ENDBRANCH   2   3
ENDBRANCH   1   2
BRANCH   1   6
ATOM      6  S   LIG A   1      -6.598  -1.253 123.545  0.00  0.00    -0.078 S 
BRANCH   6   7
ATOM      7  C   LIG A   1      -5.634  -2.544 122.713  0.00  0.00    +0.108 C 
BRANCH   7   8
ATOM      8  C   LIG A   1      -4.687  -3.257 123.626  0.00  0.00    -0.023 C 
ATOM      9  C   LIG A   1      -4.389  -4.558 123.542  0.00  0.00    +0.005 C 
ENDBRANCH   7   8
ENDBRANCH   6   7
ENDBRANCH   1   6
TORSDOF 6
ENDMDL
MODEL 2
REMARK VINA RESULT:      -3.7      1.606      4.948
REMARK  Name = NuBBE_1980
REMARK  6 active torsions:
REMARK  status: ('A' for Active; 'I' for Inactive)
REMARK    1  A    between atoms: S_1  and  S_2
REMARK    2  A    between atoms: S_1  and  S_6
REMARK    3  A    between atoms: S_2  and  C_3
REMARK    4  A    between atoms: C_3  and  C_4
REMARK    5  A    between atoms: S_6  and  C_7
REMARK    6  A    between atoms: C_7  and  C_8
REMARK                            x       y       z     vdW  Elec       q    Type
REMARK                         _______ _______ _______ _____ _____    ______ ____
ROOT
ATOM      1  S   LIG A   1      -5.965  -1.228 126.110  0.00  0.00    -0.024 S 
ENDROOT
BRANCH   1   2
ATOM      2  S   LIG A   1      -6.370  -1.448 124.103  0.00  0.00    -0.078 S 
BRANCH   2   3
ATOM      3  C   LIG A   1      -6.096  -3.226 123.906  0.00  0.00    +0.108 C 
BRANCH   3   4
ATOM      4  C   LIG A   1      -4.667  -3.502 123.555  0.00  0.00    -0.023 C 
ATOM      5  C   LIG A   1      -4.139  -4.729 123.512  0.00  0.00    +0.005 C 
ENDBRANCH   3   4
ENDBRANCH   2   3
ENDBRANCH   1   2
BRANCH   1   6
ATOM      6  S   LIG A   1      -7.807  -0.907 126.968  0.00  0.00    -0.078 S 
BRANCH   6   7
ATOM      7  C   LIG A   1      -8.897  -2.114 126.169  0.00  0.00    +0.108 C 
BRANCH   7   8
ATOM      8  C   LIG A   1      -8.705  -3.510 126.673  0.00  0.00    -0.023 C 
ATOM      9  C   LIG A   1      -8.938  -3.900 127.931  0.00  0.00    +0.005 C 
ENDBRANCH   7   8
ENDBRANCH   6   7
ENDBRANCH   1   6
TORSDOF 6
ENDMDL
MODEL 3
REMARK VINA RESULT:      -3.6      2.002      2.782
REMARK  Name = NuBBE_1980
REMARK  6 active torsions:
REMARK  status: ('A' for Active; 'I' for Inactive)
REMARK    1  A    between atoms: S_1  and  S_2
REMARK    2  A    between atoms: S_1  and  S_6
REMARK    3  A    between atoms: S_2  and  C_3
REMARK    4  A    between atoms: C_3  and  C_4
REMARK    5  A    between atoms: S_6  and  C_7
REMARK    6  A    between atoms: C_7  and  C_8
REMARK                            x       y       z     vdW  Elec       q    Type
REMARK                         _______ _______ _______ _____ _____    ______ ____
ROOT
ATOM      1  S   LIG A   1      -7.178  -0.360 126.411  0.00  0.00    -0.024 S 
ENDROOT
BRANCH   1   2
ATOM      2  S   LIG A   1      -8.786  -0.728 125.179  0.00  0.00    -0.078 S 
BRANCH   2   3
ATOM      3  C   LIG A   1      -9.285  -2.363 125.770  0.00  0.00    +0.108 C 
BRANCH   3   4
ATOM      4  C   LIG A   1      -9.281  -3.352 124.647  0.00  0.00    -0.023 C 
ATOM      5  C   LIG A   1      -9.208  -3.007 123.358  0.00  0.00    +0.005 C 
ENDBRANCH   3   4
ENDBRANCH   2   3
ENDBRANCH   1   2
BRANCH   1   6
ATOM      6  S   LIG A   1      -5.542  -0.909 125.290  0.00  0.00    -0.078 S 
BRANCH   6   7
ATOM      7  C   LIG A   1      -5.705  -2.704 125.098  0.00  0.00    +0.108 C 
BRANCH   7   8
ATOM      8  C   LIG A   1      -5.233  -3.202 123.768  0.00  0.00    -0.023 C 
ATOM      9  C   LIG A   1      -4.361  -4.202 123.599  0.00  0.00    +0.005 C 
ENDBRANCH   7   8
ENDBRANCH   6   7
ENDBRANCH   1   6
TORSDOF 6
ENDMDL
MODEL 4
REMARK VINA RESULT:      -3.5     11.362     12.801
REMARK  Name = NuBBE_1980
REMARK  6 active torsions:
REMARK  status: ('A' for Active; 'I' for Inactive)
REMARK    1  A    between atoms: S_1  and  S_2
REMARK    2  A    between atoms: S_1  and  S_6
REMARK    3  A    between atoms: S_2  and  C_3
REMARK    4  A    between atoms: C_3  and  C_4
REMARK    5  A    between atoms: S_6  and  C_7
REMARK    6  A    between atoms: C_7  and  C_8
REMARK                            x       y       z     vdW  Elec       q    Type
REMARK                         _______ _______ _______ _____ _____    ______ ____
ROOT
ATOM      1  S   LIG A   1     -11.297   6.055 131.064  0.00  0.00    -0.024 S 
ENDROOT
BRANCH   1   2
ATOM      2  S   LIG A   1      -9.734   7.048 130.166  0.00  0.00    -0.078 S 
BRANCH   2   3
ATOM      3  C   LIG A   1      -8.369   5.920 130.543  0.00  0.00    +0.108 C 
BRANCH   3   4
ATOM      4  C   LIG A   1      -7.366   6.588 131.431  0.00  0.00    -0.023 C 
ATOM      5  C   LIG A   1      -6.149   6.959 131.026  0.00  0.00    +0.005 C 
ENDBRANCH   3   4
ENDBRANCH   2   3
ENDBRANCH   1   2
BRANCH   1   6
ATOM      6  S   LIG A   1     -12.852   7.402 131.016  0.00  0.00    -0.078 S 
BRANCH   6   7
ATOM      7  C   LIG A   1     -12.421   8.543 129.675  0.00  0.00    +0.108 C 
BRANCH   7   8
ATOM      8  C   LIG A   1     -13.170   8.278 128.407  0.00  0.00    -0.023 C 
ATOM      9  C   LIG A   1     -13.710   7.099 128.079  0.00  0.00    +0.005 C 
ENDBRANCH   7   8
ENDBRANCH   6   7
ENDBRANCH   1   6
TORSDOF 6
ENDMDL
MODEL 5
REMARK VINA RESULT:      -3.4      2.243      5.638
REMARK  Name = NuBBE_1980
REMARK  6 active torsions:
REMARK  status: ('A' for Active; 'I' for Inactive)
REMARK    1  A    between atoms: S_1  and  S_2
REMARK    2  A    between atoms: S_1  and  S_6
REMARK    3  A    between atoms: S_2  and  C_3
REMARK    4  A    between atoms: C_3  and  C_4
REMARK    5  A    between atoms: S_6  and  C_7
REMARK    6  A    between atoms: C_7  and  C_8
REMARK                            x       y       z     vdW  Elec       q    Type
REMARK                         _______ _______ _______ _____ _____    ______ ____
ROOT
ATOM      1  S   LIG A   1      -6.717  -2.135 127.101  0.00  0.00    -0.024 S 
ENDROOT
BRANCH   1   2
ATOM      2  S   LIG A   1      -6.978  -2.734 125.148  0.00  0.00    -0.078 S 
BRANCH   2   3
ATOM      3  C   LIG A   1      -5.405  -2.202 124.429  0.00  0.00    +0.108 C 
BRANCH   3   4
ATOM      4  C   LIG A   1      -4.911  -3.211 123.440  0.00  0.00    -0.023 C 
ATOM      5  C   LIG A   1      -4.462  -4.422 123.781  0.00  0.00    +0.005 C 
ENDBRANCH   3   4
ENDBRANCH   2   3
ENDBRANCH   1   2
BRANCH   1   6
ATOM      6  S   LIG A   1      -8.171  -3.150 128.144  0.00  0.00    -0.078 S 
BRANCH   6   7
ATOM      7  C   LIG A   1      -7.539  -3.231 129.841  0.00  0.00    +0.108 C 
BRANCH   7   8
ATOM      8  C   LIG A   1      -6.121  -3.703 129.923  0.00  0.00    -0.023 C 
ATOM      9  C   LIG A   1      -5.719  -4.778 130.609  0.00  0.00    +0.005 C 
ENDBRANCH   7   8
ENDBRANCH   6   7
ENDBRANCH   1   6
TORSDOF 6
ENDMDL
MODEL 6
REMARK VINA RESULT:      -3.4      2.781      4.558
REMARK  Name = NuBBE_1980
REMARK  6 active torsions:
REMARK  status: ('A' for Active; 'I' for Inactive)
REMARK    1  A    between atoms: S_1  and  S_2
REMARK    2  A    between atoms: S_1  and  S_6
REMARK    3  A    between atoms: S_2  and  C_3
REMARK    4  A    between atoms: C_3  and  C_4
REMARK    5  A    between atoms: S_6  and  C_7
REMARK    6  A    between atoms: C_7  and  C_8
REMARK                            x       y       z     vdW  Elec       q    Type
REMARK                         _______ _______ _______ _____ _____    ______ ____
ROOT
ATOM      1  S   LIG A   1      -6.301  -0.071 125.454  0.00  0.00    -0.024 S 
ENDROOT
BRANCH   1   2
ATOM      2  S   LIG A   1      -7.141  -0.101 123.574  0.00  0.00    -0.078 S 
BRANCH   2   3
ATOM      3  C   LIG A   1      -8.680  -0.988 123.917  0.00  0.00    +0.108 C 
BRANCH   3   4
ATOM      4  C   LIG A   1      -8.731  -2.270 123.148  0.00  0.00    -0.023 C 
ATOM      5  C   LIG A   1      -9.514  -3.301 123.478  0.00  0.00    +0.005 C 
ENDBRANCH   3   4
ENDBRANCH   2   3
ENDBRANCH   1   2
BRANCH   1   6
ATOM      6  S   LIG A   1      -6.148  -2.055 125.975  0.00  0.00    -0.078 S 
BRANCH   6   7
ATOM      7  C   LIG A   1      -7.261  -2.238 127.395  0.00  0.00    +0.108 C 
BRANCH   7   8
ATOM      8  C   LIG A   1      -8.465  -3.076 127.099  0.00  0.00    -0.023 C 
ATOM      9  C   LIG A   1      -8.967  -4.000 127.925  0.00  0.00    +0.005 C 
ENDBRANCH   7   8
ENDBRANCH   6   7
ENDBRANCH   1   6
TORSDOF 6
ENDMDL
MODEL 7
REMARK VINA RESULT:      -3.3      2.300      3.026
REMARK  Name = NuBBE_1980
REMARK  6 active torsions:
REMARK  status: ('A' for Active; 'I' for Inactive)
REMARK    1  A    between atoms: S_1  and  S_2
REMARK    2  A    between atoms: S_1  and  S_6
REMARK    3  A    between atoms: S_2  and  C_3
REMARK    4  A    between atoms: C_3  and  C_4
REMARK    5  A    between atoms: S_6  and  C_7
REMARK    6  A    between atoms: C_7  and  C_8
REMARK                            x       y       z     vdW  Elec       q    Type
REMARK                         _______ _______ _______ _____ _____    ______ ____
ROOT
ATOM      1  S   LIG A   1      -7.740  -0.517 125.820  0.00  0.00    -0.024 S 
ENDROOT
BRANCH   1   2
ATOM      2  S   LIG A   1      -6.139  -1.295 126.856  0.00  0.00    -0.078 S 
BRANCH   2   3
ATOM      3  C   LIG A   1      -6.992  -2.448 127.960  0.00  0.00    +0.108 C 
BRANCH   3   4
ATOM      4  C   LIG A   1      -8.251  -2.950 127.325  0.00  0.00    -0.023 C 
ATOM      5  C   LIG A   1      -8.976  -3.959 127.816  0.00  0.00    +0.005 C 
ENDBRANCH   3   4
ENDBRANCH   2   3
ENDBRANCH   1   2
BRANCH   1   6
ATOM      6  S   LIG A   1      -7.090  -0.429 123.870  0.00  0.00    -0.078 S 
BRANCH   6   7
ATOM      7  C   LIG A   1      -7.395  -2.091 123.214  0.00  0.00    +0.108 C 
BRANCH   7   8
ATOM      8  C   LIG A   1      -8.850  -2.419 123.087  0.00  0.00    -0.023 C 
ATOM      9  C   LIG A   1      -9.468  -3.397 123.758  0.00  0.00    +0.005 C 
ENDBRANCH   7   8
ENDBRANCH   6   7
ENDBRANCH   1   6
TORSDOF 6
ENDMDL
MODEL 8
REMARK VINA RESULT:      -3.3     11.161     11.610
REMARK  Name = NuBBE_1980
REMARK  6 active torsions:
REMARK  status: ('A' for Active; 'I' for Inactive)
REMARK    1  A    between atoms: S_1  and  S_2
REMARK    2  A    between atoms: S_1  and  S_6
REMARK    3  A    between atoms: S_2  and  C_3
REMARK    4  A    between atoms: C_3  and  C_4
REMARK    5  A    between atoms: S_6  and  C_7
REMARK    6  A    between atoms: C_7  and  C_8
REMARK                            x       y       z     vdW  Elec       q    Type
REMARK                         _______ _______ _______ _____ _____    ______ ____
ROOT
ATOM      1  S   LIG A   1      -9.449   6.811 130.552  0.00  0.00    -0.024 S 
ENDROOT
BRANCH   1   2
ATOM      2  S   LIG A   1     -10.136   5.953 132.293  0.00  0.00    -0.078 S 
BRANCH   2   3
ATOM      3  C   LIG A   1      -9.364   4.321 132.181  0.00  0.00    +0.108 C 
BRANCH   3   4
ATOM      4  C   LIG A   1      -9.098   3.770 133.547  0.00  0.00    -0.023 C 
ATOM      5  C   LIG A   1      -7.920   3.266 133.926  0.00  0.00    +0.005 C 
ENDBRANCH   3   4
ENDBRANCH   2   3
ENDBRANCH   1   2
BRANCH   1   6
ATOM      6  S   LIG A   1     -11.158   7.332 129.532  0.00  0.00    -0.078 S 
BRANCH   6   7
ATOM      7  C   LIG A   1     -10.576   8.396 128.184  0.00  0.00    +0.108 C 
BRANCH   7   8
ATOM      8  C   LIG A   1     -10.927   7.875 126.826  0.00  0.00    -0.023 C 
ATOM      9  C   LIG A   1     -12.006   7.133 126.554  0.00  0.00    +0.005 C 
ENDBRANCH   7   8
ENDBRANCH   6   7
ENDBRANCH   1   6
TORSDOF 6
ENDMDL
MODEL 9
REMARK VINA RESULT:      -3.3     11.021     12.183
REMARK  Name = NuBBE_1980
REMARK  6 active torsions:
REMARK  status: ('A' for Active; 'I' for Inactive)
REMARK    1  A    between atoms: S_1  and  S_2
REMARK    2  A    between atoms: S_1  and  S_6
REMARK    3  A    between atoms: S_2  and  C_3
REMARK    4  A    between atoms: C_3  and  C_4
REMARK    5  A    between atoms: S_6  and  C_7
REMARK    6  A    between atoms: C_7  and  C_8
REMARK                            x       y       z     vdW  Elec       q    Type
REMARK                         _______ _______ _______ _____ _____    ______ ____
ROOT
ATOM      1  S   LIG A   1     -11.658   6.347 131.137  0.00  0.00    -0.024 S 
ENDROOT
BRANCH   1   2
ATOM      2  S   LIG A   1     -11.481   7.684 129.581  0.00  0.00    -0.078 S 
BRANCH   2   3
ATOM      3  C   LIG A   1     -13.165   7.642 128.920  0.00  0.00    +0.108 C 
BRANCH   3   4
ATOM      4  C   LIG A   1     -13.154   7.235 127.480  0.00  0.00    -0.023 C 
ATOM      5  C   LIG A   1     -12.056   7.237 126.718  0.00  0.00    +0.005 C 
ENDBRANCH   3   4
ENDBRANCH   2   3
ENDBRANCH   1   2
BRANCH   1   6
ATOM      6  S   LIG A   1     -10.253   4.901 130.728  0.00  0.00    -0.078 S 
BRANCH   6   7
ATOM      7  C   LIG A   1      -9.143   4.928 132.161  0.00  0.00    +0.108 C 
BRANCH   7   8
ATOM      8  C   LIG A   1      -8.232   6.116 132.182  0.00  0.00    -0.023 C 
ATOM      9  C   LIG A   1      -7.807   6.764 131.092  0.00  0.00    +0.005 C 
ENDBRANCH   7   8
ENDBRANCH   6   7
ENDBRANCH   1   6
TORSDOF 6
ENDMDL
