MODEL 1
REMARK VINA RESULT:      -9.5      0.000      0.000
REMARK  Name = NuBBE_256
REMARK  7 active torsions:
REMARK  status: ('A' for Active; 'I' for Inactive)
REMARK    1  A    between atoms: C_3  and  O_4
REMARK    2  A    between atoms: C_5  and  C_6
REMARK    3  A    between atoms: C_11  and  C_25
REMARK    4  A    between atoms: C_14  and  C_16
REMARK    5  A    between atoms: C_20  and  C_21
REMARK    6  A    between atoms: C_26  and  C_27
REMARK    7  A    between atoms: C_30  and  C_31
REMARK                            x       y       z     vdW  Elec       q    Type
REMARK                         _______ _______ _______ _____ _____    ______ ____
ROOT
ATOM      1  O   LIG A   1     -10.137  -1.781 122.864  0.00  0.00    -0.284 OA
ATOM      2  C   LIG A   1      -9.208  -1.075 123.154  0.00  0.00    +0.221 C 
ATOM      3  C   LIG A   1      -9.398   0.384 123.392  0.00  0.00    +0.167 C 
ATOM      4  C   LIG A   1      -8.391   1.165 123.843  0.00  0.00    +0.002 C 
ATOM      5  C   LIG A   1      -8.638   2.639 123.958  0.00  0.00    +0.048 C 
ATOM      6  C   LIG A   1      -7.114   0.537 124.338  0.00  0.00    -0.014 C 
ATOM      7  C   LIG A   1      -6.155   1.144 125.089  0.00  0.00    +0.008 C 
ATOM      8  C   LIG A   1      -5.239   0.454 126.084  0.00  0.00    +0.001 C 
ATOM      9  C   LIG A   1      -5.367  -0.875 126.331  0.00  0.00    -0.053 C 
ATOM     10  C   LIG A   1      -5.451  -1.728 127.856  0.00  0.00    -0.004 C 
ATOM     11  C   LIG A   1      -4.910  -1.702 129.432  0.00  0.00    +0.012 C 
ATOM     12  C   LIG A   1      -5.549  -1.022 130.695  0.00  0.00    +0.008 C 
ATOM     13  C   LIG A   1      -7.043  -0.633 130.620  0.00  0.00    -0.022 C 
ATOM     14  C   LIG A   1      -7.322   0.545 131.607  0.00  0.00    +0.081 C 
ATOM     15  C   LIG A   1      -7.997  -1.735 131.148  0.00  0.00    +0.012 C 
ATOM     16  C   LIG A   1      -7.207  -0.307 129.096  0.00  0.00    +0.003 C 
ATOM     17  C   LIG A   1      -8.263   0.753 128.755  0.00  0.00    +0.015 C 
ATOM     18  C   LIG A   1      -8.255   1.945 129.727  0.00  0.00    +0.052 C 
ATOM     19  C   LIG A   1      -9.272   2.998 129.312  0.00  0.00    +0.015 C 
ATOM     20  C   LIG A   1      -8.464   1.398 131.117  0.00  0.00    +0.137 C 
ATOM     21  O   LIG A   1      -9.444   1.651 131.813  0.00  0.00    -0.297 OA
ATOM     22  C   LIG A   1      -4.683  -3.059 127.502  0.00  0.00    +0.016 C 
ATOM     23  C   LIG A   1      -7.064  -1.628 128.135  0.00  0.00    -0.020 C 
ATOM     24  C   LIG A   1      -7.795  -2.912 128.611  0.00  0.00    +0.012 C 
ATOM     25  C   LIG A   1      -7.813  -1.486 126.815  0.00  0.00    +0.009 C 
ATOM     26  C   LIG A   1      -7.128  -2.499 125.849  0.00  0.00    +0.016 C 
ATOM     27  C   LIG A   1      -6.063  -1.686 125.108  0.00  0.00    +0.015 C 
ATOM     28  C   LIG A   1      -5.068  -2.416 124.181  0.00  0.00    +0.021 C 
ATOM     29  C   LIG A   1      -6.983  -0.906 124.152  0.00  0.00    -0.026 C 
ATOM     30  C   LIG A   1      -7.855  -1.609 123.390  0.00  0.00    +0.059 C 
ENDROOT
BRANCH   3  31
ATOM     31  O   LIG A   1     -10.687   0.837 123.158  0.00  0.00    -0.503 OA
ATOM     32  H   LIG A   1     -10.880   0.592 122.223  0.00  0.00    +0.292 HD
ENDBRANCH   3  31
TORSDOF 1
ENDMDL
MODEL 2
REMARK VINA RESULT:      -9.0      2.421      6.121
REMARK  Name = NuBBE_256
REMARK  7 active torsions:
REMARK  status: ('A' for Active; 'I' for Inactive)
REMARK    1  A    between atoms: C_3  and  O_4
REMARK    2  A    between atoms: C_5  and  C_6
REMARK    3  A    between atoms: C_11  and  C_25
REMARK    4  A    between atoms: C_14  and  C_16
REMARK    5  A    between atoms: C_20  and  C_21
REMARK    6  A    between atoms: C_26  and  C_27
REMARK    7  A    between atoms: C_30  and  C_31
REMARK                            x       y       z     vdW  Elec       q    Type
REMARK                         _______ _______ _______ _____ _____    ______ ____
ROOT
ATOM      1  O   LIG A   1      -3.366   3.600 129.435  0.00  0.00    -0.284 OA
ATOM      2  C   LIG A   1      -4.477   3.331 129.808  0.00  0.00    +0.221 C 
ATOM      3  C   LIG A   1      -5.665   4.042 129.255  0.00  0.00    +0.167 C 
ATOM      4  C   LIG A   1      -6.925   3.665 129.567  0.00  0.00    +0.002 C 
ATOM      5  C   LIG A   1      -8.060   4.497 129.050  0.00  0.00    +0.048 C 
ATOM      6  C   LIG A   1      -7.164   2.370 130.298  0.00  0.00    -0.014 C 
ATOM      7  C   LIG A   1      -8.352   1.715 130.411  0.00  0.00    +0.008 C 
ATOM      8  C   LIG A   1      -8.526   0.214 130.562  0.00  0.00    +0.001 C 
ATOM      9  C   LIG A   1      -7.447  -0.610 130.541  0.00  0.00    -0.053 C 
ATOM     10  C   LIG A   1      -7.179  -2.084 129.637  0.00  0.00    -0.004 C 
ATOM     11  C   LIG A   1      -7.948  -3.421 129.006  0.00  0.00    +0.012 C 
ATOM     12  C   LIG A   1      -8.601  -3.622 127.593  0.00  0.00    +0.008 C 
ATOM     13  C   LIG A   1      -8.192  -2.642 126.469  0.00  0.00    -0.022 C 
ATOM     14  C   LIG A   1      -9.340  -2.557 125.413  0.00  0.00    +0.081 C 
ATOM     15  C   LIG A   1      -6.998  -3.140 125.616  0.00  0.00    +0.012 C 
ATOM     16  C   LIG A   1      -7.909  -1.333 127.282  0.00  0.00    +0.003 C 
ATOM     17  C   LIG A   1      -8.178  -0.018 126.538  0.00  0.00    +0.015 C 
ATOM     18  C   LIG A   1      -9.467  -0.054 125.700  0.00  0.00    +0.052 C 
ATOM     19  C   LIG A   1      -9.726   1.288 125.033  0.00  0.00    +0.015 C 
ATOM     20  C   LIG A   1      -9.351  -1.209 124.737  0.00  0.00    +0.137 C 
ATOM     21  O   LIG A   1      -9.314  -1.083 123.517  0.00  0.00    -0.297 OA
ATOM     22  C   LIG A   1      -6.334  -2.924 130.670  0.00  0.00    +0.016 C 
ATOM     23  C   LIG A   1      -6.587  -1.447 128.247  0.00  0.00    -0.020 C 
ATOM     24  C   LIG A   1      -5.332  -2.115 127.624  0.00  0.00    +0.012 C 
ATOM     25  C   LIG A   1      -5.939  -0.096 128.528  0.00  0.00    +0.009 C 
ATOM     26  C   LIG A   1      -5.126  -0.302 129.841  0.00  0.00    +0.016 C 
ATOM     27  C   LIG A   1      -6.068   0.136 130.966  0.00  0.00    +0.015 C 
ATOM     28  C   LIG A   1      -5.646  -0.094 132.433  0.00  0.00    +0.021 C 
ATOM     29  C   LIG A   1      -5.978   1.660 130.772  0.00  0.00    -0.026 C 
ATOM     30  C   LIG A   1      -4.750   2.229 130.747  0.00  0.00    +0.059 C 
ENDROOT
BRANCH   3  31
ATOM     31  O   LIG A   1      -5.357   5.069 128.375  0.00  0.00    -0.503 OA
ATOM     32  H   LIG A   1      -5.650   4.745 127.491  0.00  0.00    +0.292 HD
ENDBRANCH   3  31
TORSDOF 1
ENDMDL
MODEL 3
REMARK VINA RESULT:      -8.8      2.942      6.443
REMARK  Name = NuBBE_256
REMARK  7 active torsions:
REMARK  status: ('A' for Active; 'I' for Inactive)
REMARK    1  A    between atoms: C_3  and  O_4
REMARK    2  A    between atoms: C_5  and  C_6
REMARK    3  A    between atoms: C_11  and  C_25
REMARK    4  A    between atoms: C_14  and  C_16
REMARK    5  A    between atoms: C_20  and  C_21
REMARK    6  A    between atoms: C_26  and  C_27
REMARK    7  A    between atoms: C_30  and  C_31
REMARK                            x       y       z     vdW  Elec       q    Type
REMARK                         _______ _______ _______ _____ _____    ______ ____
ROOT
ATOM      1  O   LIG A   1      -3.123  -3.992 128.812  0.00  0.00    -0.284 OA
ATOM      2  C   LIG A   1      -3.944  -3.224 129.239  0.00  0.00    +0.221 C 
ATOM      3  C   LIG A   1      -3.537  -1.941 129.877  0.00  0.00    +0.167 C 
ATOM      4  C   LIG A   1      -4.447  -1.012 130.245  0.00  0.00    +0.002 C 
ATOM      5  C   LIG A   1      -3.960   0.205 130.973  0.00  0.00    +0.048 C 
ATOM      6  C   LIG A   1      -5.882  -1.149 129.807  0.00  0.00    -0.014 C 
ATOM      7  C   LIG A   1      -6.829  -0.171 129.831  0.00  0.00    +0.008 C 
ATOM      8  C   LIG A   1      -8.012  -0.060 128.884  0.00  0.00    +0.001 C 
ATOM      9  C   LIG A   1      -8.172  -0.953 127.873  0.00  0.00    -0.053 C 
ATOM     10  C   LIG A   1      -8.506  -0.678 126.178  0.00  0.00    -0.004 C 
ATOM     11  C   LIG A   1      -9.294   0.341 125.122  0.00  0.00    +0.012 C 
ATOM     12  C   LIG A   1      -8.768   1.633 124.402  0.00  0.00    +0.008 C 
ATOM     13  C   LIG A   1      -7.237   1.836 124.322  0.00  0.00    -0.022 C 
ATOM     14  C   LIG A   1      -6.923   3.360 124.198  0.00  0.00    +0.081 C 
ATOM     15  C   LIG A   1      -6.604   1.264 123.027  0.00  0.00    +0.012 C 
ATOM     16  C   LIG A   1      -6.759   1.139 125.641  0.00  0.00    +0.003 C 
ATOM     17  C   LIG A   1      -5.486   1.719 126.272  0.00  0.00    +0.015 C 
ATOM     18  C   LIG A   1      -5.443   3.256 126.239  0.00  0.00    +0.052 C 
ATOM     19  C   LIG A   1      -4.197   3.785 126.931  0.00  0.00    +0.015 C 
ATOM     20  C   LIG A   1      -5.577   3.682 124.799  0.00  0.00    +0.137 C 
ATOM     21  O   LIG A   1      -4.702   4.275 124.175  0.00  0.00    -0.297 OA
ATOM     22  C   LIG A   1      -9.430  -1.912 125.847  0.00  0.00    +0.016 C 
ATOM     23  C   LIG A   1      -6.973  -0.486 125.627  0.00  0.00    -0.020 C 
ATOM     24  C   LIG A   1      -6.580  -1.224 124.318  0.00  0.00    +0.012 C 
ATOM     25  C   LIG A   1      -5.996  -1.222 126.536  0.00  0.00    +0.009 C 
ATOM     26  C   LIG A   1      -6.678  -2.589 126.842  0.00  0.00    +0.016 C 
ATOM     27  C   LIG A   1      -7.435  -2.373 128.155  0.00  0.00    +0.015 C 
ATOM     28  C   LIG A   1      -8.373  -3.483 128.677  0.00  0.00    +0.021 C 
ATOM     29  C   LIG A   1      -6.239  -2.390 129.124  0.00  0.00    -0.026 C 
ATOM     30  C   LIG A   1      -5.392  -3.445 129.074  0.00  0.00    +0.059 C 
ENDROOT
BRANCH   3  31
ATOM     31  O   LIG A   1      -2.166  -1.779 130.008  0.00  0.00    -0.503 OA
ATOM     32  H   LIG A   1      -2.039  -1.380 130.901  0.00  0.00    +0.292 HD
ENDBRANCH   3  31
TORSDOF 1
ENDMDL
MODEL 4
REMARK VINA RESULT:      -8.7      2.716      4.633
REMARK  Name = NuBBE_256
REMARK  7 active torsions:
REMARK  status: ('A' for Active; 'I' for Inactive)
REMARK    1  A    between atoms: C_3  and  O_4
REMARK    2  A    between atoms: C_5  and  C_6
REMARK    3  A    between atoms: C_11  and  C_25
REMARK    4  A    between atoms: C_14  and  C_16
REMARK    5  A    between atoms: C_20  and  C_21
REMARK    6  A    between atoms: C_26  and  C_27
REMARK    7  A    between atoms: C_30  and  C_31
REMARK                            x       y       z     vdW  Elec       q    Type
REMARK                         _______ _______ _______ _____ _____    ______ ____
ROOT
ATOM      1  O   LIG A   1      -9.834  -1.503 125.652  0.00  0.00    -0.284 OA
ATOM      2  C   LIG A   1      -8.748  -1.854 126.031  0.00  0.00    +0.221 C 
ATOM      3  C   LIG A   1      -7.536  -1.644 125.190  0.00  0.00    +0.167 C 
ATOM      4  C   LIG A   1      -6.296  -1.914 125.654  0.00  0.00    +0.002 C 
ATOM      5  C   LIG A   1      -5.141  -1.772 124.710  0.00  0.00    +0.048 C 
ATOM      6  C   LIG A   1      -6.088  -2.216 127.116  0.00  0.00    -0.014 C 
ATOM      7  C   LIG A   1      -4.900  -2.205 127.780  0.00  0.00    +0.008 C 
ATOM      8  C   LIG A   1      -4.712  -1.888 129.254  0.00  0.00    +0.001 C 
ATOM      9  C   LIG A   1      -5.772  -1.529 130.022  0.00  0.00    -0.053 C 
ATOM     10  C   LIG A   1      -5.948  -0.189 131.134  0.00  0.00    -0.004 C 
ATOM     11  C   LIG A   1      -5.112   0.771 132.209  0.00  0.00    +0.012 C 
ATOM     12  C   LIG A   1      -4.354   2.123 131.958  0.00  0.00    +0.008 C 
ATOM     13  C   LIG A   1      -4.697   2.908 130.671  0.00  0.00    -0.022 C 
ATOM     14  C   LIG A   1      -3.477   3.795 130.265  0.00  0.00    +0.081 C 
ATOM     15  C   LIG A   1      -5.817   3.962 130.867  0.00  0.00    +0.012 C 
ATOM     16  C   LIG A   1      -5.062   1.748 129.683  0.00  0.00    +0.003 C 
ATOM     17  C   LIG A   1      -4.761   2.018 128.203  0.00  0.00    +0.015 C 
ATOM     18  C   LIG A   1      -3.414   2.726 127.981  0.00  0.00    +0.052 C 
ATOM     19  C   LIG A   1      -3.131   2.915 126.499  0.00  0.00    +0.015 C 
ATOM     20  C   LIG A   1      -3.440   4.009 128.773  0.00  0.00    +0.137 C 
ATOM     21  O   LIG A   1      -3.390   5.127 128.268  0.00  0.00    -0.297 OA
ATOM     22  C   LIG A   1      -6.851  -0.838 132.251  0.00  0.00    +0.016 C 
ATOM     23  C   LIG A   1      -6.447   0.970 130.087  0.00  0.00    -0.020 C 
ATOM     24  C   LIG A   1      -7.643   1.863 130.516  0.00  0.00    +0.012 C 
ATOM     25  C   LIG A   1      -7.138   0.327 128.890  0.00  0.00    +0.009 C 
ATOM     26  C   LIG A   1      -8.041  -0.790 129.493  0.00  0.00    +0.016 C 
ATOM     27  C   LIG A   1      -7.191  -2.063 129.440  0.00  0.00    +0.015 C 
ATOM     28  C   LIG A   1      -7.714  -3.347 130.117  0.00  0.00    +0.021 C 
ATOM     29  C   LIG A   1      -7.293  -2.352 127.931  0.00  0.00    -0.026 C 
ATOM     30  C   LIG A   1      -8.526  -2.417 127.375  0.00  0.00    +0.059 C 
ENDROOT
BRANCH   3  31
ATOM     31  O   LIG A   1      -7.797  -1.112 123.937  0.00  0.00    -0.503 OA
ATOM     32  H   LIG A   1      -8.035  -0.169 124.103  0.00  0.00    +0.292 HD
ENDBRANCH   3  31
TORSDOF 1
ENDMDL
MODEL 5
REMARK VINA RESULT:      -8.7      2.522      4.161
REMARK  Name = NuBBE_256
REMARK  7 active torsions:
REMARK  status: ('A' for Active; 'I' for Inactive)
REMARK    1  A    between atoms: C_3  and  O_4
REMARK    2  A    between atoms: C_5  and  C_6
REMARK    3  A    between atoms: C_11  and  C_25
REMARK    4  A    between atoms: C_14  and  C_16
REMARK    5  A    between atoms: C_20  and  C_21
REMARK    6  A    between atoms: C_26  and  C_27
REMARK    7  A    between atoms: C_30  and  C_31
REMARK                            x       y       z     vdW  Elec       q    Type
REMARK                         _______ _______ _______ _____ _____    ______ ____
ROOT
ATOM      1  O   LIG A   1      -9.881  -0.500 125.665  0.00  0.00    -0.284 OA
ATOM      2  C   LIG A   1      -8.947   0.235 125.848  0.00  0.00    +0.221 C 
ATOM      3  C   LIG A   1      -8.984   1.652 125.387  0.00  0.00    +0.167 C 
ATOM      4  C   LIG A   1      -7.999   2.523 125.697  0.00  0.00    +0.002 C 
ATOM      5  C   LIG A   1      -8.063   3.901 125.110  0.00  0.00    +0.048 C 
ATOM      6  C   LIG A   1      -6.952   2.146 126.713  0.00  0.00    -0.014 C 
ATOM      7  C   LIG A   1      -6.099   2.997 127.346  0.00  0.00    +0.008 C 
ATOM      8  C   LIG A   1      -5.514   2.797 128.733  0.00  0.00    +0.001 C 
ATOM      9  C   LIG A   1      -5.869   1.721 129.482  0.00  0.00    -0.053 C 
ATOM     10  C   LIG A   1      -6.386   1.639 131.151  0.00  0.00    -0.004 C 
ATOM     11  C   LIG A   1      -6.190   2.349 132.645  0.00  0.00    +0.012 C 
ATOM     12  C   LIG A   1      -6.982   3.537 133.297  0.00  0.00    +0.008 C 
ATOM     13  C   LIG A   1      -8.361   3.894 132.695  0.00  0.00    -0.022 C 
ATOM     14  C   LIG A   1      -8.680   5.395 132.984  0.00  0.00    +0.081 C 
ATOM     15  C   LIG A   1      -9.544   3.169 133.387  0.00  0.00    +0.012 C 
ATOM     16  C   LIG A   1      -8.155   3.512 131.190  0.00  0.00    +0.003 C 
ATOM     17  C   LIG A   1      -8.963   4.339 130.180  0.00  0.00    +0.015 C 
ATOM     18  C   LIG A   1      -8.999   5.837 130.521  0.00  0.00    +0.052 C 
ATOM     19  C   LIG A   1      -9.754   6.623 129.460  0.00  0.00    +0.015 C 
ATOM     20  C   LIG A   1      -9.568   5.973 131.911  0.00  0.00    +0.137 C 
ATOM     21  O   LIG A   1     -10.629   6.536 132.166  0.00  0.00    -0.297 OA
ATOM     22  C   LIG A   1      -5.747   0.268 131.599  0.00  0.00    +0.016 C 
ATOM     23  C   LIG A   1      -7.993   1.898 130.951  0.00  0.00    -0.020 C 
ATOM     24  C   LIG A   1      -8.974   0.981 131.730  0.00  0.00    +0.012 C 
ATOM     25  C   LIG A   1      -8.422   1.458 129.556  0.00  0.00    +0.009 C 
ATOM     26  C   LIG A   1      -7.692   0.102 129.316  0.00  0.00    +0.016 C 
ATOM     27  C   LIG A   1      -6.395   0.470 128.589  0.00  0.00    +0.015 C 
ATOM     28  C   LIG A   1      -5.335  -0.624 128.339  0.00  0.00    +0.021 C 
ATOM     29  C   LIG A   1      -6.980   0.768 127.197  0.00  0.00    -0.026 C 
ATOM     30  C   LIG A   1      -7.759  -0.176 126.616  0.00  0.00    +0.059 C 
ENDROOT
BRANCH   3  31
ATOM     31  O   LIG A   1     -10.122   1.989 124.671  0.00  0.00    -0.503 OA
ATOM     32  H   LIG A   1      -9.985   2.927 124.399  0.00  0.00    +0.292 HD
ENDBRANCH   3  31
TORSDOF 1
ENDMDL
MODEL 6
REMARK VINA RESULT:      -8.5      2.489      4.679
REMARK  Name = NuBBE_256
REMARK  7 active torsions:
REMARK  status: ('A' for Active; 'I' for Inactive)
REMARK    1  A    between atoms: C_3  and  O_4
REMARK    2  A    between atoms: C_5  and  C_6
REMARK    3  A    between atoms: C_11  and  C_25
REMARK    4  A    between atoms: C_14  and  C_16
REMARK    5  A    between atoms: C_20  and  C_21
REMARK    6  A    between atoms: C_26  and  C_27
REMARK    7  A    between atoms: C_30  and  C_31
REMARK                            x       y       z     vdW  Elec       q    Type
REMARK                         _______ _______ _______ _____ _____    ______ ____
ROOT
ATOM      1  O   LIG A   1      -5.698  -2.142 122.206  0.00  0.00    -0.284 OA
ATOM      2  C   LIG A   1      -6.626  -1.903 122.933  0.00  0.00    +0.221 C 
ATOM      3  C   LIG A   1      -7.002  -2.838 124.031  0.00  0.00    +0.167 C 
ATOM      4  C   LIG A   1      -7.958  -2.523 124.933  0.00  0.00    +0.002 C 
ATOM      5  C   LIG A   1      -8.346  -3.560 125.943  0.00  0.00    +0.048 C 
ATOM      6  C   LIG A   1      -8.506  -1.121 124.991  0.00  0.00    -0.014 C 
ATOM      7  C   LIG A   1      -9.225  -0.578 126.012  0.00  0.00    +0.008 C 
ATOM      8  C   LIG A   1      -9.250   0.892 126.394  0.00  0.00    +0.001 C 
ATOM      9  C   LIG A   1      -8.474   1.789 125.733  0.00  0.00    -0.053 C 
ATOM     10  C   LIG A   1      -7.407   3.026 126.361  0.00  0.00    -0.004 C 
ATOM     11  C   LIG A   1      -7.198   4.092 127.624  0.00  0.00    +0.012 C 
ATOM     12  C   LIG A   1      -6.454   3.887 128.991  0.00  0.00    +0.008 C 
ATOM     13  C   LIG A   1      -5.453   2.712 129.092  0.00  0.00    -0.022 C 
ATOM     14  C   LIG A   1      -5.326   2.268 130.584  0.00  0.00    +0.081 C 
ATOM     15  C   LIG A   1      -3.996   3.109 128.743  0.00  0.00    +0.012 C 
ATOM     16  C   LIG A   1      -6.094   1.669 128.116  0.00  0.00    +0.003 C 
ATOM     17  C   LIG A   1      -5.845   0.195 128.464  0.00  0.00    +0.015 C 
ATOM     18  C   LIG A   1      -5.959  -0.095 129.970  0.00  0.00    +0.052 C 
ATOM     19  C   LIG A   1      -5.768  -1.577 130.259  0.00  0.00    +0.015 C 
ATOM     20  C   LIG A   1      -4.980   0.803 130.681  0.00  0.00    +0.137 C 
ATOM     21  O   LIG A   1      -4.014   0.396 131.320  0.00  0.00    -0.297 OA
ATOM     22  C   LIG A   1      -7.598   4.165 125.289  0.00  0.00    +0.016 C 
ATOM     23  C   LIG A   1      -6.041   2.137 126.545  0.00  0.00    -0.020 C 
ATOM     24  C   LIG A   1      -4.705   2.758 126.054  0.00  0.00    +0.012 C 
ATOM     25  C   LIG A   1      -6.049   0.962 125.574  0.00  0.00    +0.009 C 
ATOM     26  C   LIG A   1      -6.564   1.552 124.228  0.00  0.00    +0.016 C 
ATOM     27  C   LIG A   1      -8.075   1.305 124.235  0.00  0.00    +0.015 C 
ATOM     28  C   LIG A   1      -8.944   1.916 123.116  0.00  0.00    +0.021 C 
ATOM     29  C   LIG A   1      -8.069  -0.206 123.939  0.00  0.00    -0.026 C 
ATOM     30  C   LIG A   1      -7.384  -0.642 122.855  0.00  0.00    +0.059 C 
ENDROOT
BRANCH   3  31
ATOM     31  O   LIG A   1      -6.260  -4.008 124.063  0.00  0.00    -0.503 OA
ATOM     32  H   LIG A   1      -5.323  -3.716 124.149  0.00  0.00    +0.292 HD
ENDBRANCH   3  31
TORSDOF 1
ENDMDL
MODEL 7
REMARK VINA RESULT:      -8.1      6.294      9.239
REMARK  Name = NuBBE_256
REMARK  7 active torsions:
REMARK  status: ('A' for Active; 'I' for Inactive)
REMARK    1  A    between atoms: C_3  and  O_4
REMARK    2  A    between atoms: C_5  and  C_6
REMARK    3  A    between atoms: C_11  and  C_25
REMARK    4  A    between atoms: C_14  and  C_16
REMARK    5  A    between atoms: C_20  and  C_21
REMARK    6  A    between atoms: C_26  and  C_27
REMARK    7  A    between atoms: C_30  and  C_31
REMARK                            x       y       z     vdW  Elec       q    Type
REMARK                         _______ _______ _______ _____ _____    ______ ____
ROOT
ATOM      1  O   LIG A   1      -5.729   0.236 131.395  0.00  0.00    -0.284 OA
ATOM      2  C   LIG A   1      -6.285   1.301 131.343  0.00  0.00    +0.221 C 
ATOM      3  C   LIG A   1      -7.257   1.710 132.396  0.00  0.00    +0.167 C 
ATOM      4  C   LIG A   1      -7.793   2.951 132.422  0.00  0.00    +0.002 C 
ATOM      5  C   LIG A   1      -8.839   3.247 133.455  0.00  0.00    +0.048 C 
ATOM      6  C   LIG A   1      -7.244   4.027 131.523  0.00  0.00    -0.014 C 
ATOM      7  C   LIG A   1      -7.459   5.366 131.644  0.00  0.00    +0.008 C 
ATOM      8  C   LIG A   1      -6.499   6.460 131.207  0.00  0.00    +0.001 C 
ATOM      9  C   LIG A   1      -5.285   6.145 130.688  0.00  0.00    -0.053 C 
ATOM     10  C   LIG A   1      -3.700   6.769 131.086  0.00  0.00    -0.004 C 
ATOM     11  C   LIG A   1      -2.893   8.135 131.596  0.00  0.00    +0.012 C 
ATOM     12  C   LIG A   1      -2.565   8.614 133.055  0.00  0.00    +0.008 C 
ATOM     13  C   LIG A   1      -2.638   7.564 134.187  0.00  0.00    -0.022 C 
ATOM     14  C   LIG A   1      -2.931   8.283 135.542  0.00  0.00    +0.081 C 
ATOM     15  C   LIG A   1      -1.283   6.867 134.472  0.00  0.00    +0.012 C 
ATOM     16  C   LIG A   1      -3.761   6.609 133.658  0.00  0.00    +0.003 C 
ATOM     17  C   LIG A   1      -4.600   5.911 134.737  0.00  0.00    +0.015 C 
ATOM     18  C   LIG A   1      -4.965   6.837 135.908  0.00  0.00    +0.052 C 
ATOM     19  C   LIG A   1      -5.849   6.122 136.919  0.00  0.00    +0.015 C 
ATOM     20  C   LIG A   1      -3.678   7.372 136.483  0.00  0.00    +0.137 C 
ATOM     21  O   LIG A   1      -3.285   7.135 137.622  0.00  0.00    -0.297 OA
ATOM     22  C   LIG A   1      -3.004   6.756 129.671  0.00  0.00    +0.016 C 
ATOM     23  C   LIG A   1      -3.315   5.765 132.324  0.00  0.00    -0.020 C 
ATOM     24  C   LIG A   1      -1.888   5.152 132.339  0.00  0.00    +0.012 C 
ATOM     25  C   LIG A   1      -4.064   4.446 132.178  0.00  0.00    +0.009 C 
ATOM     26  C   LIG A   1      -3.964   4.088 130.665  0.00  0.00    +0.016 C 
ATOM     27  C   LIG A   1      -5.238   4.659 130.034  0.00  0.00    +0.015 C 
ATOM     28  C   LIG A   1      -5.395   4.634 128.499  0.00  0.00    +0.021 C 
ATOM     29  C   LIG A   1      -6.244   3.610 130.543  0.00  0.00    -0.026 C 
ATOM     30  C   LIG A   1      -5.978   2.303 130.308  0.00  0.00    +0.059 C 
ENDROOT
BRANCH   3  31
ATOM     31  O   LIG A   1      -7.512   0.734 133.348  0.00  0.00    -0.503 OA
ATOM     32  H   LIG A   1      -7.435   1.196 134.216  0.00  0.00    +0.292 HD
ENDBRANCH   3  31
TORSDOF 1
ENDMDL
MODEL 8
REMARK VINA RESULT:      -8.0      4.691      7.463
REMARK  Name = NuBBE_256
REMARK  7 active torsions:
REMARK  status: ('A' for Active; 'I' for Inactive)
REMARK    1  A    between atoms: C_3  and  O_4
REMARK    2  A    between atoms: C_5  and  C_6
REMARK    3  A    between atoms: C_11  and  C_25
REMARK    4  A    between atoms: C_14  and  C_16
REMARK    5  A    between atoms: C_20  and  C_21
REMARK    6  A    between atoms: C_26  and  C_27
REMARK    7  A    between atoms: C_30  and  C_31
REMARK                            x       y       z     vdW  Elec       q    Type
REMARK                         _______ _______ _______ _____ _____    ______ ____
ROOT
ATOM      1  O   LIG A   1      -8.096   3.174 133.700  0.00  0.00    -0.284 OA
ATOM      2  C   LIG A   1      -7.270   2.822 132.900  0.00  0.00    +0.221 C 
ATOM      3  C   LIG A   1      -5.815   2.983 133.177  0.00  0.00    +0.167 C 
ATOM      4  C   LIG A   1      -4.875   2.477 132.347  0.00  0.00    +0.002 C 
ATOM      5  C   LIG A   1      -3.436   2.771 132.646  0.00  0.00    +0.048 C 
ATOM      6  C   LIG A   1      -5.275   1.534 131.242  0.00  0.00    -0.014 C 
ATOM      7  C   LIG A   1      -4.444   0.719 130.537  0.00  0.00    +0.008 C 
ATOM      8  C   LIG A   1      -4.827  -0.612 129.913  0.00  0.00    +0.001 C 
ATOM      9  C   LIG A   1      -6.077  -1.115 130.077  0.00  0.00    -0.053 C 
ATOM     10  C   LIG A   1      -6.586  -2.719 130.557  0.00  0.00    -0.004 C 
ATOM     11  C   LIG A   1      -6.176  -4.331 130.468  0.00  0.00    +0.012 C 
ATOM     12  C   LIG A   1      -5.294  -5.193 131.441  0.00  0.00    +0.008 C 
ATOM     13  C   LIG A   1      -5.054  -4.642 132.866  0.00  0.00    -0.022 C 
ATOM     14  C   LIG A   1      -3.718  -5.224 133.427  0.00  0.00    +0.081 C 
ATOM     15  C   LIG A   1      -6.091  -5.141 133.905  0.00  0.00    +0.012 C 
ATOM     16  C   LIG A   1      -5.079  -3.096 132.613  0.00  0.00    +0.003 C 
ATOM     17  C   LIG A   1      -4.207  -2.257 133.557  0.00  0.00    +0.015 C 
ATOM     18  C   LIG A   1      -2.837  -2.897 133.840  0.00  0.00    +0.052 C 
ATOM     19  C   LIG A   1      -1.985  -2.000 134.725  0.00  0.00    +0.015 C 
ATOM     20  C   LIG A   1      -3.087  -4.270 134.409  0.00  0.00    +0.137 C 
ATOM     21  O   LIG A   1      -2.771  -4.609 135.547  0.00  0.00    -0.297 OA
ATOM     22  C   LIG A   1      -7.894  -2.893 129.695  0.00  0.00    +0.016 C 
ATOM     23  C   LIG A   1      -6.560  -2.536 132.186  0.00  0.00    -0.020 C 
ATOM     24  C   LIG A   1      -7.767  -3.086 132.993  0.00  0.00    +0.012 C 
ATOM     25  C   LIG A   1      -6.768  -1.070 132.549  0.00  0.00    +0.009 C 
ATOM     26  C   LIG A   1      -7.905  -0.576 131.606  0.00  0.00    +0.016 C 
ATOM     27  C   LIG A   1      -7.187   0.027 130.396  0.00  0.00    +0.015 C 
ATOM     28  C   LIG A   1      -8.015   0.469 129.171  0.00  0.00    +0.021 C 
ATOM     29  C   LIG A   1      -6.709   1.343 131.035  0.00  0.00    -0.026 C 
ATOM     30  C   LIG A   1      -7.628   2.124 131.652  0.00  0.00    +0.059 C 
ENDROOT
BRANCH   3  31
ATOM     31  O   LIG A   1      -5.529   3.643 134.362  0.00  0.00    -0.503 OA
ATOM     32  H   LIG A   1      -6.386   3.680 134.848  0.00  0.00    +0.292 HD
ENDBRANCH   3  31
TORSDOF 1
ENDMDL
MODEL 9
REMARK VINA RESULT:      -8.0      3.398      6.164
REMARK  Name = NuBBE_256
REMARK  7 active torsions:
REMARK  status: ('A' for Active; 'I' for Inactive)
REMARK    1  A    between atoms: C_3  and  O_4
REMARK    2  A    between atoms: C_5  and  C_6
REMARK    3  A    between atoms: C_11  and  C_25
REMARK    4  A    between atoms: C_14  and  C_16
REMARK    5  A    between atoms: C_20  and  C_21
REMARK    6  A    between atoms: C_26  and  C_27
REMARK    7  A    between atoms: C_30  and  C_31
REMARK                            x       y       z     vdW  Elec       q    Type
REMARK                         _______ _______ _______ _____ _____    ______ ____
ROOT
ATOM      1  O   LIG A   1     -10.859   3.081 130.732  0.00  0.00    -0.284 OA
ATOM      2  C   LIG A   1      -9.670   3.122 130.906  0.00  0.00    +0.221 C 
ATOM      3  C   LIG A   1      -9.094   3.086 132.280  0.00  0.00    +0.167 C 
ATOM      4  C   LIG A   1      -7.761   3.002 132.487  0.00  0.00    +0.002 C 
ATOM      5  C   LIG A   1      -7.259   3.074 133.897  0.00  0.00    +0.048 C 
ATOM      6  C   LIG A   1      -6.837   2.706 131.334  0.00  0.00    -0.014 C 
ATOM      7  C   LIG A   1      -5.542   2.294 131.423  0.00  0.00    +0.008 C 
ATOM      8  C   LIG A   1      -4.816   1.428 130.409  0.00  0.00    +0.001 C 
ATOM      9  C   LIG A   1      -5.469   0.948 129.320  0.00  0.00    -0.053 C 
ATOM     10  C   LIG A   1      -5.519  -0.675 128.668  0.00  0.00    -0.004 C 
ATOM     11  C   LIG A   1      -4.622  -2.067 128.483  0.00  0.00    +0.012 C 
ATOM     12  C   LIG A   1      -4.505  -3.313 129.431  0.00  0.00    +0.008 C 
ATOM     13  C   LIG A   1      -5.609  -3.509 130.495  0.00  0.00    -0.022 C 
ATOM     14  C   LIG A   1      -5.034  -4.330 131.693  0.00  0.00    +0.081 C 
ATOM     15  C   LIG A   1      -6.779  -4.405 130.016  0.00  0.00    +0.012 C 
ATOM     16  C   LIG A   1      -6.011  -2.027 130.807  0.00  0.00    +0.003 C 
ATOM     17  C   LIG A   1      -6.507  -1.761 132.235  0.00  0.00    +0.015 C 
ATOM     18  C   LIG A   1      -5.688  -2.502 133.304  0.00  0.00    +0.052 C 
ATOM     19  C   LIG A   1      -6.175  -2.158 134.704  0.00  0.00    +0.015 C 
ATOM     20  C   LIG A   1      -5.739  -3.973 132.977  0.00  0.00    +0.137 C 
ATOM     21  O   LIG A   1      -6.262  -4.818 133.698  0.00  0.00    -0.297 OA
ATOM     22  C   LIG A   1      -5.580  -0.380 127.121  0.00  0.00    +0.016 C 
ATOM     23  C   LIG A   1      -6.760  -1.284 129.551  0.00  0.00    -0.020 C 
ATOM     24  C   LIG A   1      -7.840  -2.111 128.802  0.00  0.00    +0.012 C 
ATOM     25  C   LIG A   1      -7.686  -0.157 129.994  0.00  0.00    +0.009 C 
ATOM     26  C   LIG A   1      -7.836   0.759 128.743  0.00  0.00    +0.016 C 
ATOM     27  C   LIG A   1      -6.763   1.839 128.909  0.00  0.00    +0.015 C 
ATOM     28  C   LIG A   1      -6.511   2.834 127.755  0.00  0.00    +0.021 C 
ATOM     29  C   LIG A   1      -7.441   2.682 130.004  0.00  0.00    -0.026 C 
ATOM     30  C   LIG A   1      -8.708   3.108 129.789  0.00  0.00    +0.059 C 
ENDROOT
BRANCH   3  31
ATOM     31  O   LIG A   1     -10.038   3.099 133.295  0.00  0.00    -0.503 OA
ATOM     32  H   LIG A   1     -10.208   2.150 133.499  0.00  0.00    +0.292 HD
ENDBRANCH   3  31
TORSDOF 1
ENDMDL
