MODEL 1
REMARK VINA RESULT:      -9.5      0.000      0.000
REMARK  Name = NuBBE_1029
REMARK  13 active torsions:
REMARK  status: ('A' for Active; 'I' for Inactive)
REMARK    1  A    between atoms: O_1  and  C_2
REMARK    2  A    between atoms: C_5  and  C_6
REMARK    3  A    between atoms: C_8  and  O_20
REMARK    4  A    between atoms: C_12  and  O_19
REMARK    5  A    between atoms: C_14  and  O_18
REMARK    6  A    between atoms: O_20  and  C_21
REMARK    7  A    between atoms: C_23  and  O_45
REMARK    8  A    between atoms: C_25  and  O_34
REMARK    9  A    between atoms: C_27  and  O_33
REMARK   10  A    between atoms: C_29  and  C_32
REMARK   11  A    between atoms: O_34  and  C_35
REMARK   12  A    between atoms: C_35  and  C_36
REMARK   13  A    between atoms: C_37  and  C_38
REMARK                            x       y       z     vdW  Elec       q    Type
REMARK                         _______ _______ _______ _____ _____    ______ ____
ROOT
ATOM      1  O   LIG A   1      -4.059   5.383 129.310  0.00  0.00    -0.341 OA
ENDROOT
BRANCH   1   3
ATOM      2  C   LIG A   1      -5.879   5.860 130.810  0.00  0.00    +0.233 C 
ATOM      3  C   LIG A   1      -4.954   4.740 130.256  0.00  0.00    +0.171 C 
ATOM      4  C   LIG A   1      -4.277   4.152 131.507  0.00  0.00    +0.078 C 
ATOM      5  C   LIG A   1      -3.465   5.247 132.148  0.00  0.00    +0.038 A 
ATOM      6  C   LIG A   1      -2.205   5.001 132.709  0.00  0.00    +0.127 A 
ATOM      7  C   LIG A   1      -1.307   6.039 132.920  0.00  0.00    +0.091 A 
ATOM      8  C   LIG A   1      -1.699   7.340 132.623  0.00  0.00    +0.124 A 
ATOM      9  C   LIG A   1      -3.001   7.624 132.224  0.00  0.00    +0.091 A 
ATOM     10  C   LIG A   1      -3.885   6.574 131.974  0.00  0.00    +0.132 A 
ATOM     11  O   LIG A   1      -5.116   6.913 131.462  0.00  0.00    -0.481 OA
BRANCH   2  15
ATOM     12  C   LIG A   1      -9.108   4.399 133.322  0.00  0.00    +0.117 A 
ATOM     13  C   LIG A   1      -8.253   5.384 133.800  0.00  0.00    +0.046 A 
ATOM     14  C   LIG A   1      -7.208   5.840 132.988  0.00  0.00    +0.011 A 
ATOM     15  C   LIG A   1      -7.017   5.328 131.690  0.00  0.00    -0.005 A 
ATOM     16  C   LIG A   1      -7.910   4.345 131.231  0.00  0.00    +0.011 A 
ATOM     17  C   LIG A   1      -8.944   3.878 132.046  0.00  0.00    +0.046 A 
BRANCH  12  18
ATOM     18  O   LIG A   1     -10.127   3.907 134.083  0.00  0.00    -0.507 OA
ATOM     19  H   LIG A   1     -10.941   4.394 133.873  0.00  0.00    +0.292 HD
ENDBRANCH  12  18
ENDBRANCH   2  15
BRANCH   8  20
ATOM     20  O   LIG A   1      -0.789   8.358 132.642  0.00  0.00    -0.506 OA
ATOM     21  H   LIG A   1      -1.035   8.976 131.929  0.00  0.00    +0.292 HD
ENDBRANCH   8  20
BRANCH   6  22
ATOM     22  O   LIG A   1      -1.754   3.733 132.944  0.00  0.00    -0.506 OA
ATOM     23  H   LIG A   1      -0.802   3.717 132.744  0.00  0.00    +0.292 HD
ENDBRANCH   6  22
ENDBRANCH   1   3
BRANCH   1  24
ATOM     24  C   LIG A   1      -4.236   5.181 127.907  0.00  0.00    +0.283 C 
ATOM     25  C   LIG A   1      -5.405   4.238 127.567  0.00  0.00    +0.213 C 
ATOM     26  C   LIG A   1      -5.077   3.030 126.696  0.00  0.00    +0.241 C 
ATOM     27  C   LIG A   1      -3.824   2.332 127.197  0.00  0.00    +0.186 C 
ATOM     28  C   LIG A   1      -2.693   3.324 127.564  0.00  0.00    +0.151 C 
ATOM     29  O   LIG A   1      -3.012   4.705 127.344  0.00  0.00    -0.343 OA
ATOM     30  C   LIG A   1      -1.450   2.996 126.725  0.00  0.00    +0.040 C 
BRANCH  27  31
ATOM     31  O   LIG A   1      -4.182   1.557 128.356  0.00  0.00    -0.386 OA
ATOM     32  H   LIG A   1      -5.140   1.389 128.328  0.00  0.00    +0.210 HD
ENDBRANCH  27  31
BRANCH  25  33
ATOM     33  O   LIG A   1      -6.538   4.966 127.077  0.00  0.00    -0.383 OA
ATOM     34  H   LIG A   1      -6.923   4.433 126.359  0.00  0.00    +0.210 HD
ENDBRANCH  25  33
BRANCH  26  35
ATOM     35  O   LIG A   1      -5.119   3.247 125.278  0.00  0.00    -0.453 OA
BRANCH  35  36
ATOM     36  C   LIG A   1      -6.236   2.925 124.587  0.00  0.00    +0.332 C 
ATOM     37  O   LIG A   1      -7.073   2.123 124.929  0.00  0.00    -0.246 OA
BRANCH  36  38
ATOM     38  C   LIG A   1      -6.361   3.734 123.381  0.00  0.00    +0.092 C 
ATOM     39  C   LIG A   1      -6.371   3.140 122.187  0.00  0.00    +0.015 C 
BRANCH  39  40
ATOM     40  C   LIG A   1      -6.375   3.889 120.939  0.00  0.00    -0.025 A 
ATOM     41  C   LIG A   1      -7.473   3.840 120.080  0.00  0.00    +0.008 A 
ATOM     42  C   LIG A   1      -7.464   4.572 118.899  0.00  0.00    +0.001 A 
ATOM     43  C   LIG A   1      -6.369   5.374 118.591  0.00  0.00    +0.000 A 
ATOM     44  C   LIG A   1      -5.284   5.456 119.461  0.00  0.00    +0.001 A 
ATOM     45  C   LIG A   1      -5.291   4.714 120.641  0.00  0.00    +0.008 A 
ENDBRANCH  39  40
ENDBRANCH  36  38
ENDBRANCH  35  36
ENDBRANCH  26  35
ENDBRANCH   1  24
TORSDOF 12
ENDMDL
MODEL 2
REMARK VINA RESULT:      -9.3      3.710     10.092
REMARK  Name = NuBBE_1029
REMARK  13 active torsions:
REMARK  status: ('A' for Active; 'I' for Inactive)
REMARK    1  A    between atoms: O_1  and  C_2
REMARK    2  A    between atoms: C_5  and  C_6
REMARK    3  A    between atoms: C_8  and  O_20
REMARK    4  A    between atoms: C_12  and  O_19
REMARK    5  A    between atoms: C_14  and  O_18
REMARK    6  A    between atoms: O_20  and  C_21
REMARK    7  A    between atoms: C_23  and  O_45
REMARK    8  A    between atoms: C_25  and  O_34
REMARK    9  A    between atoms: C_27  and  O_33
REMARK   10  A    between atoms: C_29  and  C_32
REMARK   11  A    between atoms: O_34  and  C_35
REMARK   12  A    between atoms: C_35  and  C_36
REMARK   13  A    between atoms: C_37  and  C_38
REMARK                            x       y       z     vdW  Elec       q    Type
REMARK                         _______ _______ _______ _____ _____    ______ ____
ROOT
ATOM      1  O   LIG A   1      -8.139   1.186 126.016  0.00  0.00    -0.341 OA
ENDROOT
BRANCH   1   3
ATOM      2  C   LIG A   1      -8.041   2.285 123.877  0.00  0.00    +0.233 C 
ATOM      3  C   LIG A   1      -7.194   1.718 125.052  0.00  0.00    +0.171 C 
ATOM      4  C   LIG A   1      -6.273   0.678 124.389  0.00  0.00    +0.078 C 
ATOM      5  C   LIG A   1      -7.146  -0.396 123.794  0.00  0.00    +0.038 A 
ATOM      6  C   LIG A   1      -6.793  -1.750 123.848  0.00  0.00    +0.127 A 
ATOM      7  C   LIG A   1      -7.750  -2.742 123.680  0.00  0.00    +0.091 A 
ATOM      8  C   LIG A   1      -9.060  -2.371 123.395  0.00  0.00    +0.124 A 
ATOM      9  C   LIG A   1      -9.398  -1.040 123.171  0.00  0.00    +0.091 A 
ATOM     10  C   LIG A   1      -8.441  -0.046 123.383  0.00  0.00    +0.132 A 
ATOM     11  O   LIG A   1      -8.869   1.255 123.269  0.00  0.00    -0.481 OA
BRANCH   2  15
ATOM     12  C   LIG A   1      -5.731   4.491 120.934  0.00  0.00    +0.117 A 
ATOM     13  C   LIG A   1      -6.937   3.907 120.568  0.00  0.00    +0.046 A 
ATOM     14  C   LIG A   1      -7.669   3.188 121.521  0.00  0.00    +0.011 A 
ATOM     15  C   LIG A   1      -7.211   3.059 122.846  0.00  0.00    -0.005 A 
ATOM     16  C   LIG A   1      -5.996   3.676 123.188  0.00  0.00    +0.011 A 
ATOM     17  C   LIG A   1      -5.257   4.381 122.234  0.00  0.00    +0.046 A 
BRANCH  12  18
ATOM     18  O   LIG A   1      -4.972   5.184 120.037  0.00  0.00    -0.507 OA
ATOM     19  H   LIG A   1      -5.290   6.101 119.997  0.00  0.00    +0.292 HD
ENDBRANCH  12  18
ENDBRANCH   2  15
BRANCH   8  20
ATOM     20  O   LIG A   1     -10.060  -3.301 123.405  0.00  0.00    -0.506 OA
ATOM     21  H   LIG A   1     -10.876  -2.848 123.125  0.00  0.00    +0.292 HD
ENDBRANCH   8  20
BRANCH   6  22
ATOM     22  O   LIG A   1      -5.536  -2.155 124.200  0.00  0.00    -0.506 OA
ATOM     23  H   LIG A   1      -5.449  -3.093 123.957  0.00  0.00    +0.292 HD
ENDBRANCH   6  22
ENDBRANCH   1   3
BRANCH   1  24
ATOM     24  C   LIG A   1      -8.521   1.967 127.149  0.00  0.00    +0.283 C 
ATOM     25  C   LIG A   1      -7.633   3.206 127.368  0.00  0.00    +0.213 C 
ATOM     26  C   LIG A   1      -6.976   3.342 128.736  0.00  0.00    +0.241 C 
ATOM     27  C   LIG A   1      -6.347   2.028 129.164  0.00  0.00    +0.186 C 
ATOM     28  C   LIG A   1      -7.262   0.809 128.887  0.00  0.00    +0.151 C 
ATOM     29  O   LIG A   1      -8.534   1.134 128.310  0.00  0.00    -0.343 OA
ATOM     30  C   LIG A   1      -7.526   0.073 130.208  0.00  0.00    +0.040 C 
BRANCH  27  31
ATOM     31  O   LIG A   1      -5.109   1.875 128.446  0.00  0.00    -0.386 OA
ATOM     32  H   LIG A   1      -5.316   1.644 127.524  0.00  0.00    +0.210 HD
ENDBRANCH  27  31
BRANCH  25  33
ATOM     33  O   LIG A   1      -8.304   4.407 126.967  0.00  0.00    -0.383 OA
ATOM     34  H   LIG A   1      -7.613   5.076 126.816  0.00  0.00    +0.210 HD
ENDBRANCH  25  33
BRANCH  26  35
ATOM     35  O   LIG A   1      -7.760   3.992 129.749  0.00  0.00    -0.453 OA
BRANCH  35  36
ATOM     36  C   LIG A   1      -7.324   5.152 130.287  0.00  0.00    +0.332 C 
ATOM     37  O   LIG A   1      -6.177   5.420 130.560  0.00  0.00    -0.246 OA
BRANCH  36  38
ATOM     38  C   LIG A   1      -8.417   6.106 130.438  0.00  0.00    +0.092 C 
ATOM     39  C   LIG A   1      -9.620   5.812 129.943  0.00  0.00    +0.015 C 
BRANCH  39  40
ATOM     40  C   LIG A   1     -10.724   6.761 129.953  0.00  0.00    -0.025 A 
ATOM     41  C   LIG A   1     -11.692   6.721 130.957  0.00  0.00    +0.008 A 
ATOM     42  C   LIG A   1     -12.731   7.643 130.957  0.00  0.00    +0.001 A 
ATOM     43  C   LIG A   1     -12.787   8.621 129.969  0.00  0.00    +0.000 A 
ATOM     44  C   LIG A   1     -11.805   8.690 128.983  0.00  0.00    +0.001 A 
ATOM     45  C   LIG A   1     -10.768   7.758 128.979  0.00  0.00    +0.008 A 
ENDBRANCH  39  40
ENDBRANCH  36  38
ENDBRANCH  35  36
ENDBRANCH  26  35
ENDBRANCH   1  24
TORSDOF 12
ENDMDL
MODEL 3
REMARK VINA RESULT:      -9.3      4.021      9.477
REMARK  Name = NuBBE_1029
REMARK  13 active torsions:
REMARK  status: ('A' for Active; 'I' for Inactive)
REMARK    1  A    between atoms: O_1  and  C_2
REMARK    2  A    between atoms: C_5  and  C_6
REMARK    3  A    between atoms: C_8  and  O_20
REMARK    4  A    between atoms: C_12  and  O_19
REMARK    5  A    between atoms: C_14  and  O_18
REMARK    6  A    between atoms: O_20  and  C_21
REMARK    7  A    between atoms: C_23  and  O_45
REMARK    8  A    between atoms: C_25  and  O_34
REMARK    9  A    between atoms: C_27  and  O_33
REMARK   10  A    between atoms: C_29  and  C_32
REMARK   11  A    between atoms: O_34  and  C_35
REMARK   12  A    between atoms: C_35  and  C_36
REMARK   13  A    between atoms: C_37  and  C_38
REMARK                            x       y       z     vdW  Elec       q    Type
REMARK                         _______ _______ _______ _____ _____    ______ ____
ROOT
ATOM      1  O   LIG A   1      -7.721   1.555 127.862  0.00  0.00    -0.341 OA
ENDROOT
BRANCH   1   3
ATOM      2  C   LIG A   1      -7.722   2.435 125.622  0.00  0.00    +0.233 C 
ATOM      3  C   LIG A   1      -6.823   1.925 126.784  0.00  0.00    +0.171 C 
ATOM      4  C   LIG A   1      -6.024   0.764 126.164  0.00  0.00    +0.078 C 
ATOM      5  C   LIG A   1      -7.008  -0.297 125.745  0.00  0.00    +0.038 A 
ATOM      6  C   LIG A   1      -6.737  -1.662 125.909  0.00  0.00    +0.127 A 
ATOM      7  C   LIG A   1      -7.765  -2.595 125.911  0.00  0.00    +0.091 A 
ATOM      8  C   LIG A   1      -9.067  -2.163 125.685  0.00  0.00    +0.124 A 
ATOM      9  C   LIG A   1      -9.337  -0.838 125.354  0.00  0.00    +0.091 A 
ATOM     10  C   LIG A   1      -8.307   0.101 125.395  0.00  0.00    +0.132 A 
ATOM     11  O   LIG A   1      -8.659   1.413 125.181  0.00  0.00    -0.481 OA
BRANCH   2  15
ATOM     12  C   LIG A   1      -5.514   4.162 122.304  0.00  0.00    +0.117 A 
ATOM     13  C   LIG A   1      -6.496   3.210 122.059  0.00  0.00    +0.046 A 
ATOM     14  C   LIG A   1      -7.194   2.651 123.135  0.00  0.00    +0.011 A 
ATOM     15  C   LIG A   1      -6.928   3.046 124.461  0.00  0.00    -0.005 A 
ATOM     16  C   LIG A   1      -5.942   4.023 124.673  0.00  0.00    +0.011 A 
ATOM     17  C   LIG A   1      -5.234   4.572 123.601  0.00  0.00    +0.046 A 
BRANCH  12  18
ATOM     18  O   LIG A   1      -4.792   4.721 121.291  0.00  0.00    -0.507 OA
ATOM     19  H   LIG A   1      -3.950   4.246 121.204  0.00  0.00    +0.292 HD
ENDBRANCH  12  18
ENDBRANCH   2  15
BRANCH   8  20
ATOM     20  O   LIG A   1     -10.121  -3.014 125.861  0.00  0.00    -0.506 OA
ATOM     21  H   LIG A   1     -10.829  -2.723 125.259  0.00  0.00    +0.292 HD
ENDBRANCH   8  20
BRANCH   6  22
ATOM     22  O   LIG A   1      -5.484  -2.119 126.209  0.00  0.00    -0.506 OA
ATOM     23  H   LIG A   1      -5.554  -3.071 126.396  0.00  0.00    +0.292 HD
ENDBRANCH   6  22
ENDBRANCH   1   3
BRANCH   1  24
ATOM     24  C   LIG A   1      -8.492   2.558 128.527  0.00  0.00    +0.283 C 
ATOM     25  C   LIG A   1      -7.661   3.777 128.967  0.00  0.00    +0.213 C 
ATOM     26  C   LIG A   1      -7.727   4.151 130.444  0.00  0.00    +0.241 C 
ATOM     27  C   LIG A   1      -7.559   2.920 131.318  0.00  0.00    +0.186 C 
ATOM     28  C   LIG A   1      -8.383   1.710 130.810  0.00  0.00    +0.151 C 
ATOM     29  O   LIG A   1      -9.168   1.969 129.639  0.00  0.00    -0.343 OA
ATOM     30  C   LIG A   1      -9.341   1.258 131.921  0.00  0.00    +0.040 C 
BRANCH  27  31
ATOM     31  O   LIG A   1      -6.161   2.578 131.339  0.00  0.00    -0.386 OA
ATOM     32  H   LIG A   1      -6.043   1.807 131.921  0.00  0.00    +0.210 HD
ENDBRANCH  27  31
BRANCH  25  33
ATOM     33  O   LIG A   1      -7.892   4.904 128.113  0.00  0.00    -0.383 OA
ATOM     34  H   LIG A   1      -7.782   5.699 128.664  0.00  0.00    +0.210 HD
ENDBRANCH  25  33
BRANCH  26  35
ATOM     35  O   LIG A   1      -8.806   5.018 130.826  0.00  0.00    -0.453 OA
BRANCH  35  36
ATOM     36  C   LIG A   1      -8.587   6.347 130.931  0.00  0.00    +0.332 C 
ATOM     37  O   LIG A   1      -7.653   6.870 131.493  0.00  0.00    -0.246 OA
BRANCH  36  38
ATOM     38  C   LIG A   1      -9.596   7.106 130.202  0.00  0.00    +0.092 C 
ATOM     39  C   LIG A   1     -10.857   6.672 130.179  0.00  0.00    +0.015 C 
BRANCH  39  40
ATOM     40  C   LIG A   1     -11.892   7.311 129.378  0.00  0.00    -0.025 A 
ATOM     41  C   LIG A   1     -12.743   6.554 128.574  0.00  0.00    +0.008 A 
ATOM     42  C   LIG A   1     -13.733   7.181 127.826  0.00  0.00    +0.001 A 
ATOM     43  C   LIG A   1     -13.887   8.561 127.905  0.00  0.00    +0.000 A 
ATOM     44  C   LIG A   1     -13.064   9.321 128.733  0.00  0.00    +0.001 A 
ATOM     45  C   LIG A   1     -12.066   8.692 129.475  0.00  0.00    +0.008 A 
ENDBRANCH  39  40
ENDBRANCH  36  38
ENDBRANCH  35  36
ENDBRANCH  26  35
ENDBRANCH   1  24
TORSDOF 12
ENDMDL
MODEL 4
REMARK VINA RESULT:      -9.2      1.405      4.293
REMARK  Name = NuBBE_1029
REMARK  13 active torsions:
REMARK  status: ('A' for Active; 'I' for Inactive)
REMARK    1  A    between atoms: O_1  and  C_2
REMARK    2  A    between atoms: C_5  and  C_6
REMARK    3  A    between atoms: C_8  and  O_20
REMARK    4  A    between atoms: C_12  and  O_19
REMARK    5  A    between atoms: C_14  and  O_18
REMARK    6  A    between atoms: O_20  and  C_21
REMARK    7  A    between atoms: C_23  and  O_45
REMARK    8  A    between atoms: C_25  and  O_34
REMARK    9  A    between atoms: C_27  and  O_33
REMARK   10  A    between atoms: C_29  and  C_32
REMARK   11  A    between atoms: O_34  and  C_35
REMARK   12  A    between atoms: C_35  and  C_36
REMARK   13  A    between atoms: C_37  and  C_38
REMARK                            x       y       z     vdW  Elec       q    Type
REMARK                         _______ _______ _______ _____ _____    ______ ____
ROOT
ATOM      1  O   LIG A   1      -4.307   4.908 129.942  0.00  0.00    -0.341 OA
ENDROOT
BRANCH   1   3
ATOM      2  C   LIG A   1      -3.745   5.633 132.167  0.00  0.00    +0.233 C 
ATOM      3  C   LIG A   1      -4.050   6.108 130.718  0.00  0.00    +0.171 C 
ATOM      4  C   LIG A   1      -5.251   7.059 130.875  0.00  0.00    +0.078 C 
ATOM      5  C   LIG A   1      -6.401   6.260 131.429  0.00  0.00    +0.038 A 
ATOM      6  C   LIG A   1      -7.717   6.458 130.992  0.00  0.00    +0.127 A 
ATOM      7  C   LIG A   1      -8.685   5.481 131.184  0.00  0.00    +0.091 A 
ATOM      8  C   LIG A   1      -8.344   4.323 131.874  0.00  0.00    +0.124 A 
ATOM      9  C   LIG A   1      -7.090   4.179 132.462  0.00  0.00    +0.091 A 
ATOM     10  C   LIG A   1      -6.111   5.145 132.230  0.00  0.00    +0.132 A 
ATOM     11  O   LIG A   1      -4.857   4.885 132.732  0.00  0.00    -0.481 OA
BRANCH   2  15
ATOM     12  C   LIG A   1      -2.389   8.798 134.816  0.00  0.00    +0.117 A 
ATOM     13  C   LIG A   1      -3.242   7.811 135.298  0.00  0.00    +0.046 A 
ATOM     14  C   LIG A   1      -3.682   6.803 134.434  0.00  0.00    +0.011 A 
ATOM     15  C   LIG A   1      -3.266   6.762 133.089  0.00  0.00    -0.005 A 
ATOM     16  C   LIG A   1      -2.390   7.763 132.638  0.00  0.00    +0.011 A 
ATOM     17  C   LIG A   1      -1.962   8.779 133.496  0.00  0.00    +0.046 A 
BRANCH  12  18
ATOM     18  O   LIG A   1      -1.949   9.813 135.613  0.00  0.00    -0.507 OA
ATOM     19  H   LIG A   1      -1.360   9.447 136.294  0.00  0.00    +0.292 HD
ENDBRANCH  12  18
ENDBRANCH   2  15
BRANCH   8  20
ATOM     20  O   LIG A   1      -9.208   3.266 131.924  0.00  0.00    -0.506 OA
ATOM     21  H   LIG A   1      -9.159   2.815 131.061  0.00  0.00    +0.292 HD
ENDBRANCH   8  20
BRANCH   6  22
ATOM     22  O   LIG A   1      -8.074   7.545 130.245  0.00  0.00    -0.506 OA
ATOM     23  H   LIG A   1      -8.900   7.900 130.616  0.00  0.00    +0.292 HD
ENDBRANCH   6  22
ENDBRANCH   1   3
BRANCH   1  24
ATOM     24  C   LIG A   1      -4.550   5.004 128.538  0.00  0.00    +0.283 C 
ATOM     25  C   LIG A   1      -5.707   4.112 128.053  0.00  0.00    +0.213 C 
ATOM     26  C   LIG A   1      -5.389   3.132 126.929  0.00  0.00    +0.241 C 
ATOM     27  C   LIG A   1      -4.093   2.391 127.213  0.00  0.00    +0.186 C 
ATOM     28  C   LIG A   1      -2.974   3.325 127.735  0.00  0.00    +0.151 C 
ATOM     29  O   LIG A   1      -3.343   4.707 127.833  0.00  0.00    -0.343 OA
ATOM     30  C   LIG A   1      -1.766   3.232 126.793  0.00  0.00    +0.040 C 
BRANCH  27  31
ATOM     31  O   LIG A   1      -4.370   1.373 128.192  0.00  0.00    -0.386 OA
ATOM     32  H   LIG A   1      -4.763   1.798 128.974  0.00  0.00    +0.210 HD
ENDBRANCH  27  31
BRANCH  25  33
ATOM     33  O   LIG A   1      -6.883   4.883 127.782  0.00  0.00    -0.383 OA
ATOM     34  H   LIG A   1      -7.613   4.249 127.670  0.00  0.00    +0.210 HD
ENDBRANCH  25  33
BRANCH  26  35
ATOM     35  O   LIG A   1      -5.510   3.645 125.594  0.00  0.00    -0.453 OA
BRANCH  35  36
ATOM     36  C   LIG A   1      -6.234   2.961 124.680  0.00  0.00    +0.332 C 
ATOM     37  O   LIG A   1      -6.738   1.875 124.845  0.00  0.00    -0.246 OA
BRANCH  36  38
ATOM     38  C   LIG A   1      -6.408   3.738 123.459  0.00  0.00    +0.092 C 
ATOM     39  C   LIG A   1      -6.299   3.134 122.274  0.00  0.00    +0.015 C 
BRANCH  39  40
ATOM     40  C   LIG A   1      -6.344   3.865 121.015  0.00  0.00    -0.025 A 
ATOM     41  C   LIG A   1      -7.476   3.818 120.202  0.00  0.00    +0.008 A 
ATOM     42  C   LIG A   1      -7.506   4.532 119.010  0.00  0.00    +0.001 A 
ATOM     43  C   LIG A   1      -6.415   5.316 118.647  0.00  0.00    +0.000 A 
ATOM     44  C   LIG A   1      -5.295   5.397 119.472  0.00  0.00    +0.001 A 
ATOM     45  C   LIG A   1      -5.263   4.672 120.662  0.00  0.00    +0.008 A 
ENDBRANCH  39  40
ENDBRANCH  36  38
ENDBRANCH  35  36
ENDBRANCH  26  35
ENDBRANCH   1  24
TORSDOF 12
ENDMDL
MODEL 5
REMARK VINA RESULT:      -9.1      4.715      6.553
REMARK  Name = NuBBE_1029
REMARK  13 active torsions:
REMARK  status: ('A' for Active; 'I' for Inactive)
REMARK    1  A    between atoms: O_1  and  C_2
REMARK    2  A    between atoms: C_5  and  C_6
REMARK    3  A    between atoms: C_8  and  O_20
REMARK    4  A    between atoms: C_12  and  O_19
REMARK    5  A    between atoms: C_14  and  O_18
REMARK    6  A    between atoms: O_20  and  C_21
REMARK    7  A    between atoms: C_23  and  O_45
REMARK    8  A    between atoms: C_25  and  O_34
REMARK    9  A    between atoms: C_27  and  O_33
REMARK   10  A    between atoms: C_29  and  C_32
REMARK   11  A    between atoms: O_34  and  C_35
REMARK   12  A    between atoms: C_35  and  C_36
REMARK   13  A    between atoms: C_37  and  C_38
REMARK                            x       y       z     vdW  Elec       q    Type
REMARK                         _______ _______ _______ _____ _____    ______ ____
ROOT
ATOM      1  O   LIG A   1      -8.593   3.302 130.587  0.00  0.00    -0.341 OA
ENDROOT
BRANCH   1   3
ATOM      2  C   LIG A   1      -9.311   5.365 129.576  0.00  0.00    +0.233 C 
ATOM      3  C   LIG A   1      -9.660   4.285 130.639  0.00  0.00    +0.171 C 
ATOM      4  C   LIG A   1      -9.766   5.071 131.959  0.00  0.00    +0.078 C 
ATOM      5  C   LIG A   1      -8.418   5.681 132.240  0.00  0.00    +0.038 A 
ATOM      6  C   LIG A   1      -7.889   5.740 133.535  0.00  0.00    +0.127 A 
ATOM      7  C   LIG A   1      -6.526   5.914 133.739  0.00  0.00    +0.091 A 
ATOM      8  C   LIG A   1      -5.698   6.092 132.637  0.00  0.00    +0.124 A 
ATOM      9  C   LIG A   1      -6.224   6.205 131.353  0.00  0.00    +0.091 A 
ATOM     10  C   LIG A   1      -7.587   5.987 131.151  0.00  0.00    +0.132 A 
ATOM     11  O   LIG A   1      -8.025   5.988 129.848  0.00  0.00    -0.481 OA
BRANCH   2  15
ATOM     12  C   LIG A   1     -12.453   8.294 128.932  0.00  0.00    +0.117 A 
ATOM     13  C   LIG A   1     -11.126   8.646 128.718  0.00  0.00    +0.046 A 
ATOM     14  C   LIG A   1     -10.120   7.699 128.940  0.00  0.00    +0.011 A 
ATOM     15  C   LIG A   1     -10.429   6.392 129.362  0.00  0.00    -0.005 A 
ATOM     16  C   LIG A   1     -11.782   6.063 129.552  0.00  0.00    +0.011 A 
ATOM     17  C   LIG A   1     -12.786   7.012 129.345  0.00  0.00    +0.046 A 
BRANCH  12  18
ATOM     18  O   LIG A   1     -13.467   9.187 128.750  0.00  0.00    -0.507 OA
ATOM     19  H   LIG A   1     -13.617   9.668 129.580  0.00  0.00    +0.292 HD
ENDBRANCH  12  18
ENDBRANCH   2  15
BRANCH   8  20
ATOM     20  O   LIG A   1      -4.340   6.082 132.782  0.00  0.00    -0.506 OA
ATOM     21  H   LIG A   1      -3.983   6.768 132.188  0.00  0.00    +0.292 HD
ENDBRANCH   8  20
BRANCH   6  22
ATOM     22  O   LIG A   1      -8.654   5.494 134.640  0.00  0.00    -0.506 OA
ATOM     23  H   LIG A   1      -8.184   5.854 135.411  0.00  0.00    +0.292 HD
ENDBRANCH   6  22
ENDBRANCH   1   3
BRANCH   1  24
ATOM     24  C   LIG A   1      -8.880   1.956 130.203  0.00  0.00    +0.283 C 
ATOM     25  C   LIG A   1      -8.637   0.933 131.327  0.00  0.00    +0.213 C 
ATOM     26  C   LIG A   1      -7.695  -0.222 131.007  0.00  0.00    +0.241 C 
ATOM     27  C   LIG A   1      -6.435   0.285 130.327  0.00  0.00    +0.186 C 
ATOM     28  C   LIG A   1      -6.730   1.340 129.233  0.00  0.00    +0.151 C 
ATOM     29  O   LIG A   1      -8.120   1.629 129.038  0.00  0.00    -0.343 OA
ATOM     30  C   LIG A   1      -6.167   0.842 127.895  0.00  0.00    +0.040 C 
BRANCH  27  31
ATOM     31  O   LIG A   1      -5.587   0.860 131.338  0.00  0.00    -0.386 OA
ATOM     32  H   LIG A   1      -6.119   1.479 131.868  0.00  0.00    +0.210 HD
ENDBRANCH  27  31
BRANCH  25  33
ATOM     33  O   LIG A   1      -9.871   0.482 131.900  0.00  0.00    -0.383 OA
ATOM     34  H   LIG A   1     -10.505   0.398 131.166  0.00  0.00    +0.210 HD
ENDBRANCH  25  33
BRANCH  26  35
ATOM     35  O   LIG A   1      -8.294  -1.369 130.385  0.00  0.00    -0.453 OA
BRANCH  35  36
ATOM     36  C   LIG A   1      -7.575  -2.506 130.249  0.00  0.00    +0.332 C 
ATOM     37  O   LIG A   1      -7.136  -3.178 131.152  0.00  0.00    -0.246 OA
BRANCH  36  38
ATOM     38  C   LIG A   1      -7.448  -2.884 128.847  0.00  0.00    +0.092 C 
ATOM     39  C   LIG A   1      -8.111  -2.195 127.917  0.00  0.00    +0.015 C 
BRANCH  39  40
ATOM     40  C   LIG A   1      -8.125  -2.585 126.514  0.00  0.00    -0.025 A 
ATOM     41  C   LIG A   1      -9.321  -2.915 125.876  0.00  0.00    +0.008 A 
ATOM     42  C   LIG A   1      -9.316  -3.272 124.533  0.00  0.00    +0.001 A 
ATOM     43  C   LIG A   1      -8.119  -3.273 123.823  0.00  0.00    +0.000 A 
ATOM     44  C   LIG A   1      -6.926  -2.911 124.444  0.00  0.00    +0.001 A 
ATOM     45  C   LIG A   1      -6.932  -2.561 125.794  0.00  0.00    +0.008 A 
ENDBRANCH  39  40
ENDBRANCH  36  38
ENDBRANCH  35  36
ENDBRANCH  26  35
ENDBRANCH   1  24
TORSDOF 12
ENDMDL
MODEL 6
REMARK VINA RESULT:      -9.0      3.106     10.301
REMARK  Name = NuBBE_1029
REMARK  13 active torsions:
REMARK  status: ('A' for Active; 'I' for Inactive)
REMARK    1  A    between atoms: O_1  and  C_2
REMARK    2  A    between atoms: C_5  and  C_6
REMARK    3  A    between atoms: C_8  and  O_20
REMARK    4  A    between atoms: C_12  and  O_19
REMARK    5  A    between atoms: C_14  and  O_18
REMARK    6  A    between atoms: O_20  and  C_21
REMARK    7  A    between atoms: C_23  and  O_45
REMARK    8  A    between atoms: C_25  and  O_34
REMARK    9  A    between atoms: C_27  and  O_33
REMARK   10  A    between atoms: C_29  and  C_32
REMARK   11  A    between atoms: O_34  and  C_35
REMARK   12  A    between atoms: C_35  and  C_36
REMARK   13  A    between atoms: C_37  and  C_38
REMARK                            x       y       z     vdW  Elec       q    Type
REMARK                         _______ _______ _______ _____ _____    ______ ____
ROOT
ATOM      1  O   LIG A   1      -8.311   1.252 125.830  0.00  0.00    -0.341 OA
ENDROOT
BRANCH   1   3
ATOM      2  C   LIG A   1      -8.245   2.270 123.651  0.00  0.00    +0.233 C 
ATOM      3  C   LIG A   1      -7.382   1.777 124.847  0.00  0.00    +0.171 C 
ATOM      4  C   LIG A   1      -6.427   0.742 124.225  0.00  0.00    +0.078 C 
ATOM      5  C   LIG A   1      -7.264  -0.382 123.672  0.00  0.00    +0.038 A 
ATOM      6  C   LIG A   1      -6.867  -1.721 123.778  0.00  0.00    +0.127 A 
ATOM      7  C   LIG A   1      -7.791  -2.749 123.648  0.00  0.00    +0.091 A 
ATOM      8  C   LIG A   1      -9.112  -2.432 123.349  0.00  0.00    +0.124 A 
ATOM      9  C   LIG A   1      -9.493  -1.122 123.074  0.00  0.00    +0.091 A 
ATOM     10  C   LIG A   1      -8.569  -0.091 123.247  0.00  0.00    +0.132 A 
ATOM     11  O   LIG A   1      -9.039   1.191 123.082  0.00  0.00    -0.481 OA
BRANCH   2  15
ATOM     12  C   LIG A   1      -6.003   4.442 120.631  0.00  0.00    +0.117 A 
ATOM     13  C   LIG A   1      -7.290   4.000 120.350  0.00  0.00    +0.046 A 
ATOM     14  C   LIG A   1      -8.001   3.291 121.326  0.00  0.00    +0.011 A 
ATOM     15  C   LIG A   1      -7.439   3.029 122.590  0.00  0.00    -0.005 A 
ATOM     16  C   LIG A   1      -6.142   3.505 122.848  0.00  0.00    +0.011 A 
ATOM     17  C   LIG A   1      -5.427   4.200 121.870  0.00  0.00    +0.046 A 
BRANCH  12  18
ATOM     18  O   LIG A   1      -5.263   5.119 119.706  0.00  0.00    -0.507 OA
ATOM     19  H   LIG A   1      -4.613   4.512 119.316  0.00  0.00    +0.292 HD
ENDBRANCH  12  18
ENDBRANCH   2  15
BRANCH   8  20
ATOM     20  O   LIG A   1     -10.082  -3.393 123.394  0.00  0.00    -0.506 OA
ATOM     21  H   LIG A   1      -9.706  -4.157 123.869  0.00  0.00    +0.292 HD
ENDBRANCH   8  20
BRANCH   6  22
ATOM     22  O   LIG A   1      -5.598  -2.071 124.146  0.00  0.00    -0.506 OA
ATOM     23  H   LIG A   1      -5.667  -2.799 124.787  0.00  0.00    +0.292 HD
ENDBRANCH   6  22
ENDBRANCH   1   3
BRANCH   1  24
ATOM     24  C   LIG A   1      -8.402   1.856 127.122  0.00  0.00    +0.283 C 
ATOM     25  C   LIG A   1      -7.569   3.144 127.256  0.00  0.00    +0.213 C 
ATOM     26  C   LIG A   1      -6.558   3.188 128.396  0.00  0.00    +0.241 C 
ATOM     27  C   LIG A   1      -5.751   1.902 128.448  0.00  0.00    +0.186 C 
ATOM     28  C   LIG A   1      -6.628   0.638 128.268  0.00  0.00    +0.151 C 
ATOM     29  O   LIG A   1      -8.029   0.898 128.114  0.00  0.00    -0.343 OA
ATOM     30  C   LIG A   1      -6.455  -0.267 129.495  0.00  0.00    +0.040 C 
BRANCH  27  31
ATOM     31  O   LIG A   1      -4.762   1.957 127.403  0.00  0.00    -0.386 OA
ATOM     32  H   LIG A   1      -4.279   1.113 127.395  0.00  0.00    +0.210 HD
ENDBRANCH  27  31
BRANCH  25  33
ATOM     33  O   LIG A   1      -8.401   4.310 127.226  0.00  0.00    -0.383 OA
ATOM     34  H   LIG A   1      -7.805   5.079 127.219  0.00  0.00    +0.210 HD
ENDBRANCH  25  33
BRANCH  26  35
ATOM     35  O   LIG A   1      -7.060   3.635 129.665  0.00  0.00    -0.453 OA
BRANCH  35  36
ATOM     36  C   LIG A   1      -6.837   4.908 130.059  0.00  0.00    +0.332 C 
ATOM     37  O   LIG A   1      -7.557   5.854 129.838  0.00  0.00    -0.246 OA
BRANCH  36  38
ATOM     38  C   LIG A   1      -5.630   5.005 130.871  0.00  0.00    +0.092 C 
ATOM     39  C   LIG A   1      -4.516   5.508 130.336  0.00  0.00    +0.015 C 
BRANCH  39  40
ATOM     40  C   LIG A   1      -3.246   5.528 131.048  0.00  0.00    -0.025 A 
ATOM     41  C   LIG A   1      -2.374   6.610 130.924  0.00  0.00    +0.008 A 
ATOM     42  C   LIG A   1      -1.172   6.617 131.621  0.00  0.00    +0.001 A 
ATOM     43  C   LIG A   1      -0.855   5.555 132.462  0.00  0.00    +0.000 A 
ATOM     44  C   LIG A   1      -1.737   4.487 132.620  0.00  0.00    +0.001 A 
ATOM     45  C   LIG A   1      -2.938   4.478 131.912  0.00  0.00    +0.008 A 
ENDBRANCH  39  40
ENDBRANCH  36  38
ENDBRANCH  35  36
ENDBRANCH  26  35
ENDBRANCH   1  24
TORSDOF 12
ENDMDL
MODEL 7
REMARK VINA RESULT:      -9.0      3.951      8.711
REMARK  Name = NuBBE_1029
REMARK  13 active torsions:
REMARK  status: ('A' for Active; 'I' for Inactive)
REMARK    1  A    between atoms: O_1  and  C_2
REMARK    2  A    between atoms: C_5  and  C_6
REMARK    3  A    between atoms: C_8  and  O_20
REMARK    4  A    between atoms: C_12  and  O_19
REMARK    5  A    between atoms: C_14  and  O_18
REMARK    6  A    between atoms: O_20  and  C_21
REMARK    7  A    between atoms: C_23  and  O_45
REMARK    8  A    between atoms: C_25  and  O_34
REMARK    9  A    between atoms: C_27  and  O_33
REMARK   10  A    between atoms: C_29  and  C_32
REMARK   11  A    between atoms: O_34  and  C_35
REMARK   12  A    between atoms: C_35  and  C_36
REMARK   13  A    between atoms: C_37  and  C_38
REMARK                            x       y       z     vdW  Elec       q    Type
REMARK                         _______ _______ _______ _____ _____    ______ ____
ROOT
ATOM      1  O   LIG A   1      -7.081   0.862 128.944  0.00  0.00    -0.341 OA
ENDROOT
BRANCH   1   3
ATOM      2  C   LIG A   1      -7.069  -0.666 127.085  0.00  0.00    +0.233 C 
ATOM      3  C   LIG A   1      -7.946   0.314 127.915  0.00  0.00    +0.171 C 
ATOM      4  C   LIG A   1      -8.463   1.331 126.880  0.00  0.00    +0.078 C 
ATOM      5  C   LIG A   1      -7.270   2.043 126.300  0.00  0.00    +0.038 A 
ATOM      6  C   LIG A   1      -7.293   3.414 126.016  0.00  0.00    +0.127 A 
ATOM      7  C   LIG A   1      -6.112   4.132 125.878  0.00  0.00    +0.091 A 
ATOM      8  C   LIG A   1      -4.900   3.456 125.964  0.00  0.00    +0.124 A 
ATOM      9  C   LIG A   1      -4.857   2.070 126.077  0.00  0.00    +0.091 A 
ATOM     10  C   LIG A   1      -6.044   1.360 126.258  0.00  0.00    +0.132 A 
ATOM     11  O   LIG A   1      -5.927   0.010 126.489  0.00  0.00    -0.481 OA
BRANCH   2  15
ATOM     12  C   LIG A   1      -9.376  -2.973 124.217  0.00  0.00    +0.117 A 
ATOM     13  C   LIG A   1      -9.605  -3.134 125.578  0.00  0.00    +0.046 A 
ATOM     14  C   LIG A   1      -8.849  -2.396 126.495  0.00  0.00    +0.011 A 
ATOM     15  C   LIG A   1      -7.870  -1.481 126.062  0.00  0.00    -0.005 A 
ATOM     16  C   LIG A   1      -7.674  -1.328 124.679  0.00  0.00    +0.011 A 
ATOM     17  C   LIG A   1      -8.418  -2.076 123.763  0.00  0.00    +0.046 A 
BRANCH  12  18
ATOM     18  O   LIG A   1     -10.072  -3.685 123.285  0.00  0.00    -0.507 OA
ATOM     19  H   LIG A   1     -10.765  -3.118 122.908  0.00  0.00    +0.292 HD
ENDBRANCH  12  18
ENDBRANCH   2  15
BRANCH   8  20
ATOM     20  O   LIG A   1      -3.724   4.148 126.017  0.00  0.00    -0.506 OA
ATOM     21  H   LIG A   1      -3.853   4.885 126.642  0.00  0.00    +0.292 HD
ENDBRANCH   8  20
BRANCH   6  22
ATOM     22  O   LIG A   1      -8.458   4.129 125.999  0.00  0.00    -0.506 OA
ATOM     23  H   LIG A   1      -8.661   4.384 126.915  0.00  0.00    +0.292 HD
ENDBRANCH   6  22
ENDBRANCH   1   3
BRANCH   1  24
ATOM     24  C   LIG A   1      -7.645   1.582 130.042  0.00  0.00    +0.283 C 
ATOM     25  C   LIG A   1      -7.976   3.048 129.709  0.00  0.00    +0.213 C 
ATOM     26  C   LIG A   1      -7.358   4.110 130.613  0.00  0.00    +0.241 C 
ATOM     27  C   LIG A   1      -5.883   3.828 130.841  0.00  0.00    +0.186 C 
ATOM     28  C   LIG A   1      -5.598   2.334 131.132  0.00  0.00    +0.151 C 
ATOM     29  O   LIG A   1      -6.761   1.496 131.161  0.00  0.00    -0.343 OA
ATOM     30  C   LIG A   1      -4.906   2.215 132.497  0.00  0.00    +0.040 C 
BRANCH  27  31
ATOM     31  O   LIG A   1      -5.166   4.236 129.662  0.00  0.00    -0.386 OA
ATOM     32  H   LIG A   1      -5.142   3.485 129.043  0.00  0.00    +0.210 HD
ENDBRANCH  27  31
BRANCH  25  33
ATOM     33  O   LIG A   1      -9.385   3.240 129.535  0.00  0.00    -0.383 OA
ATOM     34  H   LIG A   1      -9.520   4.191 129.377  0.00  0.00    +0.210 HD
ENDBRANCH  25  33
BRANCH  26  35
ATOM     35  O   LIG A   1      -8.099   4.436 131.798  0.00  0.00    -0.453 OA
BRANCH  35  36
ATOM     36  C   LIG A   1      -8.042   5.692 132.295  0.00  0.00    +0.332 C 
ATOM     37  O   LIG A   1      -7.419   6.041 133.270  0.00  0.00    -0.246 OA
BRANCH  36  38
ATOM     38  C   LIG A   1      -8.781   6.625 131.453  0.00  0.00    +0.092 C 
ATOM     39  C   LIG A   1     -10.054   6.369 131.146  0.00  0.00    +0.015 C 
BRANCH  39  40
ATOM     40  C   LIG A   1     -10.817   7.192 130.218  0.00  0.00    -0.025 A 
ATOM     41  C   LIG A   1     -12.152   7.504 130.471  0.00  0.00    +0.008 A 
ATOM     42  C   LIG A   1     -12.861   8.302 129.581  0.00  0.00    +0.001 A 
ATOM     43  C   LIG A   1     -12.224   8.809 128.452  0.00  0.00    +0.000 A 
ATOM     44  C   LIG A   1     -10.881   8.532 128.211  0.00  0.00    +0.001 A 
ATOM     45  C   LIG A   1     -10.174   7.724 129.101  0.00  0.00    +0.008 A 
ENDBRANCH  39  40
ENDBRANCH  36  38
ENDBRANCH  35  36
ENDBRANCH  26  35
ENDBRANCH   1  24
TORSDOF 12
ENDMDL
MODEL 8
REMARK VINA RESULT:      -8.9      5.471     11.351
REMARK  Name = NuBBE_1029
REMARK  13 active torsions:
REMARK  status: ('A' for Active; 'I' for Inactive)
REMARK    1  A    between atoms: O_1  and  C_2
REMARK    2  A    between atoms: C_5  and  C_6
REMARK    3  A    between atoms: C_8  and  O_20
REMARK    4  A    between atoms: C_12  and  O_19
REMARK    5  A    between atoms: C_14  and  O_18
REMARK    6  A    between atoms: O_20  and  C_21
REMARK    7  A    between atoms: C_23  and  O_45
REMARK    8  A    between atoms: C_25  and  O_34
REMARK    9  A    between atoms: C_27  and  O_33
REMARK   10  A    between atoms: C_29  and  C_32
REMARK   11  A    between atoms: O_34  and  C_35
REMARK   12  A    between atoms: C_35  and  C_36
REMARK   13  A    between atoms: C_37  and  C_38
REMARK                            x       y       z     vdW  Elec       q    Type
REMARK                         _______ _______ _______ _____ _____    ______ ____
ROOT
ATOM      1  O   LIG A   1      -7.644   0.287 126.913  0.00  0.00    -0.341 OA
ENDROOT
BRANCH   1   3
ATOM      2  C   LIG A   1      -7.615   1.769 125.017  0.00  0.00    +0.233 C 
ATOM      3  C   LIG A   1      -6.731   0.941 125.993  0.00  0.00    +0.171 C 
ATOM      4  C   LIG A   1      -5.933  -0.003 125.075  0.00  0.00    +0.078 C 
ATOM      5  C   LIG A   1      -6.918  -0.892 124.362  0.00  0.00    +0.038 A 
ATOM      6  C   LIG A   1      -6.658  -2.249 124.133  0.00  0.00    +0.127 A 
ATOM      7  C   LIG A   1      -7.692  -3.134 123.859  0.00  0.00    +0.091 A 
ATOM      8  C   LIG A   1      -8.989  -2.643 123.755  0.00  0.00    +0.124 A 
ATOM      9  C   LIG A   1      -9.247  -1.277 123.812  0.00  0.00    +0.091 A 
ATOM     10  C   LIG A   1      -8.211  -0.398 124.129  0.00  0.00    +0.132 A 
ATOM     11  O   LIG A   1      -8.553   0.924 124.295  0.00  0.00    -0.481 OA
BRANCH   2  15
ATOM     12  C   LIG A   1      -5.357   4.345 122.346  0.00  0.00    +0.117 A 
ATOM     13  C   LIG A   1      -6.223   3.394 121.820  0.00  0.00    +0.046 A 
ATOM     14  C   LIG A   1      -6.937   2.561 122.688  0.00  0.00    +0.011 A 
ATOM     15  C   LIG A   1      -6.804   2.678 124.085  0.00  0.00    -0.005 A 
ATOM     16  C   LIG A   1      -5.933   3.661 124.585  0.00  0.00    +0.011 A 
ATOM     17  C   LIG A   1      -5.208   4.484 123.719  0.00  0.00    +0.046 A 
BRANCH  12  18
ATOM     18  O   LIG A   1      -4.623   5.166 121.541  0.00  0.00    -0.507 OA
ATOM     19  H   LIG A   1      -3.814   4.702 121.270  0.00  0.00    +0.292 HD
ENDBRANCH  12  18
ENDBRANCH   2  15
BRANCH   8  20
ATOM     20  O   LIG A   1     -10.049  -3.500 123.671  0.00  0.00    -0.506 OA
ATOM     21  H   LIG A   1     -10.815  -2.980 123.366  0.00  0.00    +0.292 HD
ENDBRANCH   8  20
BRANCH   6  22
ATOM     22  O   LIG A   1      -5.411  -2.784 124.300  0.00  0.00    -0.506 OA
ATOM     23  H   LIG A   1      -5.008  -2.874 123.420  0.00  0.00    +0.292 HD
ENDBRANCH   6  22
ENDBRANCH   1   3
BRANCH   1  24
ATOM     24  C   LIG A   1      -7.234   0.017 128.255  0.00  0.00    +0.283 C 
ATOM     25  C   LIG A   1      -5.705  -0.023 128.433  0.00  0.00    +0.213 C 
ATOM     26  C   LIG A   1      -5.122  -1.290 129.048  0.00  0.00    +0.241 C 
ATOM     27  C   LIG A   1      -5.718  -2.527 128.397  0.00  0.00    +0.186 C 
ATOM     28  C   LIG A   1      -7.251  -2.421 128.204  0.00  0.00    +0.151 C 
ATOM     29  O   LIG A   1      -7.833  -1.205 128.690  0.00  0.00    -0.343 OA
ATOM     30  C   LIG A   1      -7.928  -3.587 128.937  0.00  0.00    +0.040 C 
BRANCH  27  31
ATOM     31  O   LIG A   1      -5.080  -2.705 127.119  0.00  0.00    -0.386 OA
ATOM     32  H   LIG A   1      -5.618  -3.322 126.592  0.00  0.00    +0.210 HD
ENDBRANCH  27  31
BRANCH  25  33
ATOM     33  O   LIG A   1      -5.223   1.162 129.076  0.00  0.00    -0.383 OA
ATOM     34  H   LIG A   1      -4.251   1.114 129.058  0.00  0.00    +0.210 HD
ENDBRANCH  25  33
BRANCH  26  35
ATOM     35  O   LIG A   1      -5.075  -1.329 130.483  0.00  0.00    -0.453 OA
BRANCH  35  36
ATOM     36  C   LIG A   1      -4.116  -2.055 131.099  0.00  0.00    +0.332 C 
ATOM     37  O   LIG A   1      -2.924  -1.930 130.943  0.00  0.00    -0.246 OA
BRANCH  36  38
ATOM     38  C   LIG A   1      -4.695  -2.985 132.061  0.00  0.00    +0.092 C 
ATOM     39  C   LIG A   1      -5.988  -2.886 132.375  0.00  0.00    +0.015 C 
BRANCH  39  40
ATOM     40  C   LIG A   1      -6.606  -3.702 133.411  0.00  0.00    -0.025 A 
ATOM     41  C   LIG A   1      -7.864  -3.379 133.919  0.00  0.00    +0.008 A 
ATOM     42  C   LIG A   1      -8.444  -4.177 134.897  0.00  0.00    +0.001 A 
ATOM     43  C   LIG A   1      -7.777  -5.312 135.347  0.00  0.00    +0.000 A 
ATOM     44  C   LIG A   1      -6.536  -5.662 134.820  0.00  0.00    +0.001 A 
ATOM     45  C   LIG A   1      -5.952  -4.855 133.844  0.00  0.00    +0.008 A 
ENDBRANCH  39  40
ENDBRANCH  36  38
ENDBRANCH  35  36
ENDBRANCH  26  35
ENDBRANCH   1  24
TORSDOF 12
ENDMDL
MODEL 9
REMARK VINA RESULT:      -8.8      5.024      9.480
REMARK  Name = NuBBE_1029
REMARK  13 active torsions:
REMARK  status: ('A' for Active; 'I' for Inactive)
REMARK    1  A    between atoms: O_1  and  C_2
REMARK    2  A    between atoms: C_5  and  C_6
REMARK    3  A    between atoms: C_8  and  O_20
REMARK    4  A    between atoms: C_12  and  O_19
REMARK    5  A    between atoms: C_14  and  O_18
REMARK    6  A    between atoms: O_20  and  C_21
REMARK    7  A    between atoms: C_23  and  O_45
REMARK    8  A    between atoms: C_25  and  O_34
REMARK    9  A    between atoms: C_27  and  O_33
REMARK   10  A    between atoms: C_29  and  C_32
REMARK   11  A    between atoms: O_34  and  C_35
REMARK   12  A    between atoms: C_35  and  C_36
REMARK   13  A    between atoms: C_37  and  C_38
REMARK                            x       y       z     vdW  Elec       q    Type
REMARK                         _______ _______ _______ _____ _____    ______ ____
ROOT
ATOM      1  O   LIG A   1      -6.434   0.215 129.885  0.00  0.00    -0.341 OA
ENDROOT
BRANCH   1   3
ATOM      2  C   LIG A   1      -7.800  -1.225 128.526  0.00  0.00    +0.233 C 
ATOM      3  C   LIG A   1      -6.500  -0.374 128.560  0.00  0.00    +0.171 C 
ATOM      4  C   LIG A   1      -5.379  -1.377 128.230  0.00  0.00    +0.078 C 
ATOM      5  C   LIG A   1      -5.363  -2.421 129.315  0.00  0.00    +0.038 A 
ATOM      6  C   LIG A   1      -4.165  -2.944 129.819  0.00  0.00    +0.127 A 
ATOM      7  C   LIG A   1      -4.130  -3.573 131.057  0.00  0.00    +0.091 A 
ATOM      8  C   LIG A   1      -5.316  -3.733 131.765  0.00  0.00    +0.124 A 
ATOM      9  C   LIG A   1      -6.539  -3.372 131.209  0.00  0.00    +0.091 A 
ATOM     10  C   LIG A   1      -6.564  -2.703 129.985  0.00  0.00    +0.132 A 
ATOM     11  O   LIG A   1      -7.790  -2.261 129.548  0.00  0.00    -0.481 OA
BRANCH   2  15
ATOM     12  C   LIG A   1      -8.707  -2.750 124.561  0.00  0.00    +0.117 A 
ATOM     13  C   LIG A   1      -8.550  -1.383 124.756  0.00  0.00    +0.046 A 
ATOM     14  C   LIG A   1      -8.269  -0.900 126.039  0.00  0.00    +0.011 A 
ATOM     15  C   LIG A   1      -8.130  -1.776 127.133  0.00  0.00    -0.005 A 
ATOM     16  C   LIG A   1      -8.278  -3.154 126.899  0.00  0.00    +0.011 A 
ATOM     17  C   LIG A   1      -8.572  -3.636 125.621  0.00  0.00    +0.046 A 
BRANCH  12  18
ATOM     18  O   LIG A   1      -9.001  -3.267 123.334  0.00  0.00    -0.507 OA
ATOM     19  H   LIG A   1      -8.215  -3.203 122.768  0.00  0.00    +0.292 HD
ENDBRANCH  12  18
ENDBRANCH   2  15
BRANCH   8  20
ATOM     20  O   LIG A   1      -5.297  -4.177 133.057  0.00  0.00    -0.506 OA
ATOM     21  H   LIG A   1      -4.694  -4.943 133.088  0.00  0.00    +0.292 HD
ENDBRANCH   8  20
BRANCH   6  22
ATOM     22  O   LIG A   1      -2.968  -2.743 129.192  0.00  0.00    -0.506 OA
ATOM     23  H   LIG A   1      -2.280  -2.694 129.878  0.00  0.00    +0.292 HD
ENDBRANCH   6  22
ENDBRANCH   1   3
BRANCH   1  24
ATOM     24  C   LIG A   1      -6.765   1.592 130.073  0.00  0.00    +0.283 C 
ATOM     25  C   LIG A   1      -5.898   2.293 131.134  0.00  0.00    +0.213 C 
ATOM     26  C   LIG A   1      -6.638   2.982 132.275  0.00  0.00    +0.241 C 
ATOM     27  C   LIG A   1      -7.720   2.076 132.837  0.00  0.00    +0.186 C 
ATOM     28  C   LIG A   1      -8.538   1.364 131.731  0.00  0.00    +0.151 C 
ATOM     29  O   LIG A   1      -8.154   1.701 130.392  0.00  0.00    -0.343 OA
ATOM     30  C   LIG A   1     -10.020   1.727 131.895  0.00  0.00    +0.040 C 
BRANCH  27  31
ATOM     31  O   LIG A   1      -7.084   1.094 133.676  0.00  0.00    -0.386 OA
ATOM     32  H   LIG A   1      -7.175   0.223 133.252  0.00  0.00    +0.210 HD
ENDBRANCH  27  31
BRANCH  25  33
ATOM     33  O   LIG A   1      -4.921   3.149 130.529  0.00  0.00    -0.383 OA
ATOM     34  H   LIG A   1      -4.527   3.674 131.247  0.00  0.00    +0.210 HD
ENDBRANCH  25  33
BRANCH  26  35
ATOM     35  O   LIG A   1      -7.053   4.335 132.030  0.00  0.00    -0.453 OA
BRANCH  35  36
ATOM     36  C   LIG A   1      -7.461   5.103 133.064  0.00  0.00    +0.332 C 
ATOM     37  O   LIG A   1      -6.908   5.205 134.134  0.00  0.00    -0.246 OA
BRANCH  36  38
ATOM     38  C   LIG A   1      -8.642   5.881 132.707  0.00  0.00    +0.092 C 
ATOM     39  C   LIG A   1      -9.209   5.706 131.512  0.00  0.00    +0.015 C 
BRANCH  39  40
ATOM     40  C   LIG A   1     -10.316   6.527 131.043  0.00  0.00    -0.025 A 
ATOM     41  C   LIG A   1     -10.200   7.285 129.878  0.00  0.00    +0.008 A 
ATOM     42  C   LIG A   1     -11.272   8.052 129.439  0.00  0.00    +0.001 A 
ATOM     43  C   LIG A   1     -12.468   8.039 130.150  0.00  0.00    +0.000 A 
ATOM     44  C   LIG A   1     -12.604   7.257 131.295  0.00  0.00    +0.001 A 
ATOM     45  C   LIG A   1     -11.524   6.495 131.739  0.00  0.00    +0.008 A 
ENDBRANCH  39  40
ENDBRANCH  36  38
ENDBRANCH  35  36
ENDBRANCH  26  35
ENDBRANCH   1  24
TORSDOF 12
ENDMDL
