MODEL 1
REMARK VINA RESULT:      -9.1      0.000      0.000
REMARK  Name = NuBBE_364
REMARK  10 active torsions:
REMARK  status: ('A' for Active; 'I' for Inactive)
REMARK    1  A    between atoms: C_1  and  C_2
REMARK    2  A    between atoms: C_2  and  C_37
REMARK    3  A    between atoms: C_5  and  C_36
REMARK    4  A    between atoms: C_6  and  O_35
REMARK    5  A    between atoms: C_9  and  C_34
REMARK    6  A    between atoms: C_10  and  C_33
REMARK    7  A    between atoms: C_15  and  C_16
REMARK    8  A    between atoms: C_15  and  C_32
REMARK    9  A    between atoms: C_17  and  O_31
REMARK   10  A    between atoms: C_21  and  C_30
REMARK                            x       y       z     vdW  Elec       q    Type
REMARK                         _______ _______ _______ _____ _____    ______ ____
ROOT
ATOM      1  C   LIG A   1      -3.171   0.401 132.940  0.00  0.00    +0.011 C 
ATOM      2  C   LIG A   1      -4.586   0.509 132.347  0.00  0.00    -0.034 C 
ATOM      3  C   LIG A   1      -5.123  -0.935 132.398  0.00  0.00    +0.007 C 
ATOM      4  C   LIG A   1      -6.420  -1.064 131.667  0.00  0.00    +0.010 C 
ATOM      5  C   LIG A   1      -6.318  -0.533 130.232  0.00  0.00    +0.001 C 
ATOM      6  C   LIG A   1      -7.713  -0.714 129.698  0.00  0.00    +0.122 C 
ATOM      7  C   LIG A   1      -7.656  -0.491 128.232  0.00  0.00    +0.043 C 
ATOM      8  C   LIG A   1      -7.064   0.843 127.801  0.00  0.00    -0.003 C 
ATOM      9  C   LIG A   1      -5.958   0.861 126.376  0.00  0.00    -0.019 C 
ATOM     10  C   LIG A   1      -5.158  -0.363 125.961  0.00  0.00    +0.008 C 
ATOM     11  C   LIG A   1      -5.894  -1.583 125.631  0.00  0.00    +0.005 C 
ATOM     12  C   LIG A   1      -7.064  -1.313 124.699  0.00  0.00    +0.003 C 
ATOM     13  C   LIG A   1      -7.865  -2.654 124.538  0.00  0.00    -0.006 C 
ATOM     14  C   LIG A   1      -6.905  -3.809 124.060  0.00  0.00    +0.014 C 
ATOM     15  C   LIG A   1      -8.915  -2.491 123.409  0.00  0.00    +0.120 C 
ATOM     16  C   LIG A   1      -9.430  -1.079 123.045  0.00  0.00    +0.032 C 
ATOM     17  C   LIG A   1      -8.511   0.171 123.362  0.00  0.00    +0.010 C 
ATOM     18  C   LIG A   1      -7.900   0.109 124.814  0.00  0.00    -0.025 C 
ATOM     19  C   LIG A   1      -6.878   1.413 125.323  0.00  0.00    +0.006 C 
ATOM     20  C   LIG A   1      -7.044   2.850 126.247  0.00  0.00    +0.031 C 
ATOM     21  C   LIG A   1      -6.301   2.875 127.936  0.00  0.00    -0.026 C 
ATOM     22  C   LIG A   1      -6.246   1.693 128.675  0.00  0.00    -0.063 C 
ATOM     23  C   LIG A   1      -5.933   1.045 130.123  0.00  0.00    +0.024 C 
ATOM     24  C   LIG A   1      -4.569   1.162 130.882  0.00  0.00    +0.014 C 
ATOM     25  C   LIG A   1      -9.194   0.091 125.606  0.00  0.00    +0.012 C 
ATOM     26  C   LIG A   1      -8.405  -3.214 125.889  0.00  0.00    +0.014 C 
ATOM     27  C   LIG A   1      -4.585   1.845 126.310  0.00  0.00    +0.012 C 
ATOM     28  C   LIG A   1      -8.510   1.735 128.121  0.00  0.00    +0.016 C 
ATOM     29  C   LIG A   1      -5.318  -1.430 129.449  0.00  0.00    +0.014 C 
ATOM     30  C   LIG A   1      -5.457   1.358 133.297  0.00  0.00    +0.011 C 
ENDROOT
BRANCH  15  31
ATOM     31  O   LIG A   1     -10.021  -3.376 123.614  0.00  0.00    -0.391 OA
ATOM     32  H   LIG A   1     -10.455  -3.531 122.758  0.00  0.00    +0.210 HD
ENDBRANCH  15  31
BRANCH   6  33
ATOM     33  O   LIG A   1      -8.276  -2.024 129.885  0.00  0.00    -0.391 OA
ATOM     34  H   LIG A   1      -8.933  -2.146 129.210  0.00  0.00    +0.210 HD
ENDBRANCH   6  33
TORSDOF 2
ENDMDL
MODEL 2
REMARK VINA RESULT:      -8.9      2.937      5.320
REMARK  Name = NuBBE_364
REMARK  10 active torsions:
REMARK  status: ('A' for Active; 'I' for Inactive)
REMARK    1  A    between atoms: C_1  and  C_2
REMARK    2  A    between atoms: C_2  and  C_37
REMARK    3  A    between atoms: C_5  and  C_36
REMARK    4  A    between atoms: C_6  and  O_35
REMARK    5  A    between atoms: C_9  and  C_34
REMARK    6  A    between atoms: C_10  and  C_33
REMARK    7  A    between atoms: C_15  and  C_16
REMARK    8  A    between atoms: C_15  and  C_32
REMARK    9  A    between atoms: C_17  and  O_31
REMARK   10  A    between atoms: C_21  and  C_30
REMARK                            x       y       z     vdW  Elec       q    Type
REMARK                         _______ _______ _______ _____ _____    ______ ____
ROOT
ATOM      1  C   LIG A   1      -3.792   8.055 129.562  0.00  0.00    +0.011 C 
ATOM      2  C   LIG A   1      -3.374   6.574 129.551  0.00  0.00    -0.034 C 
ATOM      3  C   LIG A   1      -3.173   6.254 128.056  0.00  0.00    +0.007 C 
ATOM      4  C   LIG A   1      -2.963   4.792 127.832  0.00  0.00    +0.010 C 
ATOM      5  C   LIG A   1      -4.084   3.954 128.460  0.00  0.00    +0.001 C 
ATOM      6  C   LIG A   1      -3.666   2.540 128.160  0.00  0.00    +0.122 C 
ATOM      7  C   LIG A   1      -4.820   1.664 128.479  0.00  0.00    +0.043 C 
ATOM      8  C   LIG A   1      -5.363   1.795 129.895  0.00  0.00    -0.003 C 
ATOM      9  C   LIG A   1      -7.153   1.773 130.122  0.00  0.00    -0.019 C 
ATOM     10  C   LIG A   1      -8.111   2.198 129.022  0.00  0.00    +0.008 C 
ATOM     11  C   LIG A   1      -8.060   1.475 127.752  0.00  0.00    +0.005 C 
ATOM     12  C   LIG A   1      -8.038  -0.032 127.949  0.00  0.00    +0.003 C 
ATOM     13  C   LIG A   1      -7.828  -0.694 126.542  0.00  0.00    -0.006 C 
ATOM     14  C   LIG A   1      -8.926  -0.187 125.530  0.00  0.00    +0.014 C 
ATOM     15  C   LIG A   1      -8.047  -2.225 126.658  0.00  0.00    +0.120 C 
ATOM     16  C   LIG A   1      -7.849  -2.921 128.026  0.00  0.00    +0.032 C 
ATOM     17  C   LIG A   1      -8.020  -2.064 129.346  0.00  0.00    +0.010 C 
ATOM     18  C   LIG A   1      -7.269  -0.681 129.261  0.00  0.00    -0.025 C 
ATOM     19  C   LIG A   1      -7.346   0.374 130.635  0.00  0.00    +0.006 C 
ATOM     20  C   LIG A   1      -6.355   0.750 131.985  0.00  0.00    +0.031 C 
ATOM     21  C   LIG A   1      -5.489   2.380 131.986  0.00  0.00    -0.026 C 
ATOM     22  C   LIG A   1      -5.084   2.938 130.773  0.00  0.00    -0.063 C 
ATOM     23  C   LIG A   1      -4.221   4.113 130.074  0.00  0.00    +0.024 C 
ATOM     24  C   LIG A   1      -4.452   5.646 130.292  0.00  0.00    +0.014 C 
ATOM     25  C   LIG A   1      -5.859  -1.199 129.052  0.00  0.00    +0.012 C 
ATOM     26  C   LIG A   1      -6.507  -0.250 125.843  0.00  0.00    +0.014 C 
ATOM     27  C   LIG A   1      -7.932   2.759 131.253  0.00  0.00    +0.012 C 
ATOM     28  C   LIG A   1      -4.122   0.821 130.601  0.00  0.00    +0.016 C 
ATOM     29  C   LIG A   1      -5.414   4.292 127.728  0.00  0.00    +0.014 C 
ATOM     30  C   LIG A   1      -1.999   6.444 130.239  0.00  0.00    +0.011 C 
ENDROOT
BRANCH  15  31
ATOM     31  O   LIG A   1      -7.311  -2.920 125.646  0.00  0.00    -0.391 OA
ATOM     32  H   LIG A   1      -6.362  -2.807 125.822  0.00  0.00    +0.210 HD
ENDBRANCH  15  31
BRANCH   6  33
ATOM     33  O   LIG A   1      -3.328   2.278 126.788  0.00  0.00    -0.391 OA
ATOM     34  H   LIG A   1      -3.014   3.093 126.415  0.00  0.00    +0.210 HD
ENDBRANCH   6  33
TORSDOF 2
ENDMDL
MODEL 3
REMARK VINA RESULT:      -8.9      3.510      7.300
REMARK  Name = NuBBE_364
REMARK  10 active torsions:
REMARK  status: ('A' for Active; 'I' for Inactive)
REMARK    1  A    between atoms: C_1  and  C_2
REMARK    2  A    between atoms: C_2  and  C_37
REMARK    3  A    between atoms: C_5  and  C_36
REMARK    4  A    between atoms: C_6  and  O_35
REMARK    5  A    between atoms: C_9  and  C_34
REMARK    6  A    between atoms: C_10  and  C_33
REMARK    7  A    between atoms: C_15  and  C_16
REMARK    8  A    between atoms: C_15  and  C_32
REMARK    9  A    between atoms: C_17  and  O_31
REMARK   10  A    between atoms: C_21  and  C_30
REMARK                            x       y       z     vdW  Elec       q    Type
REMARK                         _______ _______ _______ _____ _____    ______ ____
ROOT
ATOM      1  C   LIG A   1      -6.015  -4.430 130.312  0.00  0.00    +0.011 C 
ATOM      2  C   LIG A   1      -6.662  -3.170 129.711  0.00  0.00    -0.034 C 
ATOM      3  C   LIG A   1      -5.657  -2.711 128.636  0.00  0.00    +0.007 C 
ATOM      4  C   LIG A   1      -6.020  -1.372 128.081  0.00  0.00    +0.010 C 
ATOM      5  C   LIG A   1      -6.200  -0.328 129.191  0.00  0.00    +0.001 C 
ATOM      6  C   LIG A   1      -6.594   0.912 128.436  0.00  0.00    +0.122 C 
ATOM      7  C   LIG A   1      -6.521   2.048 129.387  0.00  0.00    +0.043 C 
ATOM      8  C   LIG A   1      -7.342   1.885 130.658  0.00  0.00    -0.003 C 
ATOM      9  C   LIG A   1      -6.614   2.432 132.216  0.00  0.00    -0.019 C 
ATOM     10  C   LIG A   1      -5.110   2.496 132.424  0.00  0.00    +0.008 C 
ATOM     11  C   LIG A   1      -4.329   3.346 131.526  0.00  0.00    +0.005 C 
ATOM     12  C   LIG A   1      -4.948   4.724 131.357  0.00  0.00    +0.003 C 
ATOM     13  C   LIG A   1      -4.120   5.488 130.265  0.00  0.00    -0.006 C 
ATOM     14  C   LIG A   1      -2.592   5.505 130.651  0.00  0.00    +0.014 C 
ATOM     15  C   LIG A   1      -4.558   6.975 130.237  0.00  0.00    +0.120 C 
ATOM     16  C   LIG A   1      -5.967   7.364 130.742  0.00  0.00    +0.032 C 
ATOM     17  C   LIG A   1      -6.688   6.418 131.788  0.00  0.00    +0.010 C 
ATOM     18  C   LIG A   1      -6.593   4.898 131.382  0.00  0.00    -0.025 C 
ATOM     19  C   LIG A   1      -7.345   3.730 132.418  0.00  0.00    +0.006 C 
ATOM     20  C   LIG A   1      -8.828   2.867 132.467  0.00  0.00    +0.031 C 
ATOM     21  C   LIG A   1      -8.787   1.067 132.063  0.00  0.00    -0.026 C 
ATOM     22  C   LIG A   1      -7.852   0.596 131.140  0.00  0.00    -0.063 C 
ATOM     23  C   LIG A   1      -7.382  -0.673 130.255  0.00  0.00    +0.024 C 
ATOM     24  C   LIG A   1      -6.982  -2.072 130.835  0.00  0.00    +0.014 C 
ATOM     25  C   LIG A   1      -7.302   4.975 130.043  0.00  0.00    +0.012 C 
ATOM     26  C   LIG A   1      -4.103   4.762 128.885  0.00  0.00    +0.014 C 
ATOM     27  C   LIG A   1      -6.831   1.583 133.661  0.00  0.00    +0.012 C 
ATOM     28  C   LIG A   1      -8.838   2.307 129.900  0.00  0.00    +0.016 C 
ATOM     29  C   LIG A   1      -4.828  -0.121 129.893  0.00  0.00    +0.014 C 
ATOM     30  C   LIG A   1      -7.960  -3.580 128.983  0.00  0.00    +0.011 C 
ENDROOT
BRANCH  15  31
ATOM     31  O   LIG A   1      -4.328   7.548 128.945  0.00  0.00    -0.391 OA
ATOM     32  H   LIG A   1      -5.184   7.649 128.496  0.00  0.00    +0.210 HD
ENDBRANCH  15  31
BRANCH   6  33
ATOM     33  O   LIG A   1      -5.741   1.255 127.331  0.00  0.00    -0.391 OA
ATOM     34  H   LIG A   1      -5.122   1.903 127.645  0.00  0.00    +0.210 HD
ENDBRANCH   6  33
TORSDOF 2
ENDMDL
MODEL 4
REMARK VINA RESULT:      -8.7      3.148      7.399
REMARK  Name = NuBBE_364
REMARK  10 active torsions:
REMARK  status: ('A' for Active; 'I' for Inactive)
REMARK    1  A    between atoms: C_1  and  C_2
REMARK    2  A    between atoms: C_2  and  C_37
REMARK    3  A    between atoms: C_5  and  C_36
REMARK    4  A    between atoms: C_6  and  O_35
REMARK    5  A    between atoms: C_9  and  C_34
REMARK    6  A    between atoms: C_10  and  C_33
REMARK    7  A    between atoms: C_15  and  C_16
REMARK    8  A    between atoms: C_15  and  C_32
REMARK    9  A    between atoms: C_17  and  O_31
REMARK   10  A    between atoms: C_21  and  C_30
REMARK                            x       y       z     vdW  Elec       q    Type
REMARK                         _______ _______ _______ _____ _____    ______ ____
ROOT
ATOM      1  C   LIG A   1      -6.611  -3.358 124.443  0.00  0.00    +0.011 C 
ATOM      2  C   LIG A   1      -7.313  -2.069 124.906  0.00  0.00    -0.034 C 
ATOM      3  C   LIG A   1      -6.794  -0.992 123.932  0.00  0.00    +0.007 C 
ATOM      4  C   LIG A   1      -7.211   0.378 124.358  0.00  0.00    +0.010 C 
ATOM      5  C   LIG A   1      -6.812   0.667 125.811  0.00  0.00    +0.001 C 
ATOM      6  C   LIG A   1      -7.350   2.053 126.046  0.00  0.00    +0.122 C 
ATOM      7  C   LIG A   1      -6.776   2.535 127.327  0.00  0.00    +0.043 C 
ATOM      8  C   LIG A   1      -7.019   1.633 128.528  0.00  0.00    -0.003 C 
ATOM      9  C   LIG A   1      -5.665   1.393 129.697  0.00  0.00    -0.019 C 
ATOM     10  C   LIG A   1      -4.209   1.543 129.286  0.00  0.00    +0.008 C 
ATOM     11  C   LIG A   1      -3.780   2.830 128.741  0.00  0.00    +0.005 C 
ATOM     12  C   LIG A   1      -4.268   4.000 129.579  0.00  0.00    +0.003 C 
ATOM     13  C   LIG A   1      -3.884   5.322 128.823  0.00  0.00    -0.006 C 
ATOM     14  C   LIG A   1      -2.339   5.344 128.512  0.00  0.00    +0.014 C 
ATOM     15  C   LIG A   1      -4.139   6.536 129.754  0.00  0.00    +0.120 C 
ATOM     16  C   LIG A   1      -5.169   6.415 130.900  0.00  0.00    +0.032 C 
ATOM     17  C   LIG A   1      -5.493   4.979 131.483  0.00  0.00    +0.010 C 
ATOM     18  C   LIG A   1      -5.730   3.913 130.346  0.00  0.00    -0.025 C 
ATOM     19  C   LIG A   1      -6.110   2.289 130.818  0.00  0.00    +0.006 C 
ATOM     20  C   LIG A   1      -7.523   1.332 130.998  0.00  0.00    +0.031 C 
ATOM     21  C   LIG A   1      -7.839   0.022 129.737  0.00  0.00    -0.026 C 
ATOM     22  C   LIG A   1      -7.417   0.224 128.423  0.00  0.00    -0.063 C 
ATOM     23  C   LIG A   1      -7.484  -0.332 126.906  0.00  0.00    +0.024 C 
ATOM     24  C   LIG A   1      -7.030  -1.761 126.454  0.00  0.00    +0.014 C 
ATOM     25  C   LIG A   1      -6.913   4.571 129.660  0.00  0.00    +0.012 C 
ATOM     26  C   LIG A   1      -4.508   5.419 127.398  0.00  0.00    +0.014 C 
ATOM     27  C   LIG A   1      -5.358  -0.098 130.430  0.00  0.00    +0.012 C 
ATOM     28  C   LIG A   1      -8.641   2.177 128.774  0.00  0.00    +0.016 C 
ATOM     29  C   LIG A   1      -5.260   0.667 125.901  0.00  0.00    +0.014 C 
ATOM     30  C   LIG A   1      -8.830  -2.217 124.662  0.00  0.00    +0.011 C 
ENDROOT
BRANCH  15  31
ATOM     31  O   LIG A   1      -4.399   7.716 128.986  0.00  0.00    -0.391 OA
ATOM     32  H   LIG A   1      -4.542   8.457 129.600  0.00  0.00    +0.210 HD
ENDBRANCH  15  31
BRANCH   6  33
ATOM     33  O   LIG A   1      -6.993   3.027 125.052  0.00  0.00    -0.391 OA
ATOM     34  H   LIG A   1      -6.240   2.687 124.583  0.00  0.00    +0.210 HD
ENDBRANCH   6  33
TORSDOF 2
ENDMDL
MODEL 5
REMARK VINA RESULT:      -8.6      5.323      9.503
REMARK  Name = NuBBE_364
REMARK  10 active torsions:
REMARK  status: ('A' for Active; 'I' for Inactive)
REMARK    1  A    between atoms: C_1  and  C_2
REMARK    2  A    between atoms: C_2  and  C_37
REMARK    3  A    between atoms: C_5  and  C_36
REMARK    4  A    between atoms: C_6  and  O_35
REMARK    5  A    between atoms: C_9  and  C_34
REMARK    6  A    between atoms: C_10  and  C_33
REMARK    7  A    between atoms: C_15  and  C_16
REMARK    8  A    between atoms: C_15  and  C_32
REMARK    9  A    between atoms: C_17  and  O_31
REMARK   10  A    between atoms: C_21  and  C_30
REMARK                            x       y       z     vdW  Elec       q    Type
REMARK                         _______ _______ _______ _____ _____    ______ ____
ROOT
ATOM      1  C   LIG A   1     -11.236   8.179 127.201  0.00  0.00    +0.011 C 
ATOM      2  C   LIG A   1     -11.354   7.204 128.385  0.00  0.00    -0.034 C 
ATOM      3  C   LIG A   1     -11.293   8.117 129.626  0.00  0.00    +0.007 C 
ATOM      4  C   LIG A   1     -11.185   7.322 130.887  0.00  0.00    +0.010 C 
ATOM      5  C   LIG A   1     -10.013   6.333 130.835  0.00  0.00    +0.001 C 
ATOM      6  C   LIG A   1     -10.107   5.620 132.157  0.00  0.00    +0.122 C 
ATOM      7  C   LIG A   1      -8.856   4.839 132.325  0.00  0.00    +0.043 C 
ATOM      8  C   LIG A   1      -8.537   3.873 131.193  0.00  0.00    -0.003 C 
ATOM      9  C   LIG A   1      -6.822   3.741 130.648  0.00  0.00    -0.019 C 
ATOM     10  C   LIG A   1      -5.830   4.879 130.824  0.00  0.00    +0.008 C 
ATOM     11  C   LIG A   1      -5.575   5.363 132.180  0.00  0.00    +0.005 C 
ATOM     12  C   LIG A   1      -5.329   4.225 133.158  0.00  0.00    +0.003 C 
ATOM     13  C   LIG A   1      -5.222   4.847 134.596  0.00  0.00    -0.006 C 
ATOM     14  C   LIG A   1      -4.121   5.976 134.621  0.00  0.00    +0.014 C 
ATOM     15  C   LIG A   1      -4.727   3.763 135.587  0.00  0.00    +0.120 C 
ATOM     16  C   LIG A   1      -4.961   2.269 135.262  0.00  0.00    +0.032 C 
ATOM     17  C   LIG A   1      -5.133   1.839 133.748  0.00  0.00    +0.010 C 
ATOM     18  C   LIG A   1      -6.121   2.787 132.966  0.00  0.00    -0.025 C 
ATOM     19  C   LIG A   1      -6.429   2.443 131.295  0.00  0.00    +0.006 C 
ATOM     20  C   LIG A   1      -7.641   1.641 130.382  0.00  0.00    +0.031 C 
ATOM     21  C   LIG A   1      -8.799   2.682 129.392  0.00  0.00    -0.026 C 
ATOM     22  C   LIG A   1      -9.144   3.951 129.858  0.00  0.00    -0.063 C 
ATOM     23  C   LIG A   1     -10.121   5.223 129.650  0.00  0.00    +0.024 C 
ATOM     24  C   LIG A   1     -10.222   6.069 128.337  0.00  0.00    +0.014 C 
ATOM     25  C   LIG A   1      -7.364   2.562 133.806  0.00  0.00    +0.012 C 
ATOM     26  C   LIG A   1      -6.502   5.626 135.027  0.00  0.00    +0.014 C 
ATOM     27  C   LIG A   1      -6.402   3.557 129.021  0.00  0.00    +0.012 C 
ATOM     28  C   LIG A   1      -9.646   2.664 131.737  0.00  0.00    +0.016 C 
ATOM     29  C   LIG A   1      -8.691   7.146 130.751  0.00  0.00    +0.014 C 
ATOM     30  C   LIG A   1     -12.755   6.559 128.357  0.00  0.00    +0.011 C 
ENDROOT
BRANCH  15  31
ATOM     31  O   LIG A   1      -5.176   4.049 136.916  0.00  0.00    -0.391 OA
ATOM     32  H   LIG A   1      -5.669   3.280 137.247  0.00  0.00    +0.210 HD
ENDBRANCH  15  31
BRANCH   6  33
ATOM     33  O   LIG A   1     -10.207   6.474 133.309  0.00  0.00    -0.391 OA
ATOM     34  H   LIG A   1      -9.640   7.220 133.156  0.00  0.00    +0.210 HD
ENDBRANCH   6  33
TORSDOF 2
ENDMDL
MODEL 6
REMARK VINA RESULT:      -8.4      4.603      7.373
REMARK  Name = NuBBE_364
REMARK  10 active torsions:
REMARK  status: ('A' for Active; 'I' for Inactive)
REMARK    1  A    between atoms: C_1  and  C_2
REMARK    2  A    between atoms: C_2  and  C_37
REMARK    3  A    between atoms: C_5  and  C_36
REMARK    4  A    between atoms: C_6  and  O_35
REMARK    5  A    between atoms: C_9  and  C_34
REMARK    6  A    between atoms: C_10  and  C_33
REMARK    7  A    between atoms: C_15  and  C_16
REMARK    8  A    between atoms: C_15  and  C_32
REMARK    9  A    between atoms: C_17  and  O_31
REMARK   10  A    between atoms: C_21  and  C_30
REMARK                            x       y       z     vdW  Elec       q    Type
REMARK                         _______ _______ _______ _____ _____    ______ ____
ROOT
ATOM      1  C   LIG A   1      -6.036   5.335 138.010  0.00  0.00    +0.011 C 
ATOM      2  C   LIG A   1      -6.174   6.007 136.633  0.00  0.00    -0.034 C 
ATOM      3  C   LIG A   1      -7.428   5.352 136.022  0.00  0.00    +0.007 C 
ATOM      4  C   LIG A   1      -7.603   5.733 134.588  0.00  0.00    +0.010 C 
ATOM      5  C   LIG A   1      -6.339   5.447 133.766  0.00  0.00    +0.001 C 
ATOM      6  C   LIG A   1      -6.707   5.932 132.390  0.00  0.00    +0.122 C 
ATOM      7  C   LIG A   1      -5.658   5.447 131.458  0.00  0.00    +0.043 C 
ATOM      8  C   LIG A   1      -4.234   5.838 131.824  0.00  0.00    -0.003 C 
ATOM      9  C   LIG A   1      -2.934   4.604 131.613  0.00  0.00    -0.019 C 
ATOM     10  C   LIG A   1      -3.224   3.112 131.654  0.00  0.00    +0.008 C 
ATOM     11  C   LIG A   1      -4.175   2.572 130.683  0.00  0.00    +0.005 C 
ATOM     12  C   LIG A   1      -3.901   3.070 129.273  0.00  0.00    +0.003 C 
ATOM     13  C   LIG A   1      -5.063   2.556 128.351  0.00  0.00    -0.006 C 
ATOM     14  C   LIG A   1      -5.203   0.990 128.472  0.00  0.00    +0.014 C 
ATOM     15  C   LIG A   1      -4.699   2.827 126.869  0.00  0.00    +0.120 C 
ATOM     16  C   LIG A   1      -3.701   3.958 126.524  0.00  0.00    +0.032 C 
ATOM     17  C   LIG A   1      -2.649   4.404 127.619  0.00  0.00    +0.010 C 
ATOM     18  C   LIG A   1      -3.309   4.596 129.038  0.00  0.00    -0.025 C 
ATOM     19  C   LIG A   1      -2.291   5.097 130.348  0.00  0.00    +0.006 C 
ATOM     20  C   LIG A   1      -1.901   6.569 131.141  0.00  0.00    +0.031 C 
ATOM     21  C   LIG A   1      -2.588   6.841 132.832  0.00  0.00    -0.026 C 
ATOM     22  C   LIG A   1      -3.831   6.297 133.159  0.00  0.00    -0.063 C 
ATOM     23  C   LIG A   1      -5.018   6.261 134.256  0.00  0.00    +0.024 C 
ATOM     24  C   LIG A   1      -4.841   5.843 135.755  0.00  0.00    +0.014 C 
ATOM     25  C   LIG A   1      -4.308   5.680 128.679  0.00  0.00    +0.012 C 
ATOM     26  C   LIG A   1      -6.472   3.048 128.803  0.00  0.00    +0.014 C 
ATOM     27  C   LIG A   1      -1.659   4.438 132.710  0.00  0.00    +0.012 C 
ATOM     28  C   LIG A   1      -4.377   7.445 131.204  0.00  0.00    +0.016 C 
ATOM     29  C   LIG A   1      -6.103   3.910 133.753  0.00  0.00    +0.014 C 
ATOM     30  C   LIG A   1      -6.491   7.503 136.842  0.00  0.00    +0.011 C 
ENDROOT
BRANCH  15  31
ATOM     31  O   LIG A   1      -5.881   2.959 126.072  0.00  0.00    -0.391 OA
ATOM     32  H   LIG A   1      -6.602   2.475 126.509  0.00  0.00    +0.210 HD
ENDBRANCH  15  31
BRANCH   6  33
ATOM     33  O   LIG A   1      -7.958   5.440 131.880  0.00  0.00    -0.391 OA
ATOM     34  H   LIG A   1      -7.935   4.493 131.945  0.00  0.00    +0.210 HD
ENDBRANCH   6  33
TORSDOF 2
ENDMDL
MODEL 7
REMARK VINA RESULT:      -8.2      1.976      2.640
REMARK  Name = NuBBE_364
REMARK  10 active torsions:
REMARK  status: ('A' for Active; 'I' for Inactive)
REMARK    1  A    between atoms: C_1  and  C_2
REMARK    2  A    between atoms: C_2  and  C_37
REMARK    3  A    between atoms: C_5  and  C_36
REMARK    4  A    between atoms: C_6  and  O_35
REMARK    5  A    between atoms: C_9  and  C_34
REMARK    6  A    between atoms: C_10  and  C_33
REMARK    7  A    between atoms: C_15  and  C_16
REMARK    8  A    between atoms: C_15  and  C_32
REMARK    9  A    between atoms: C_17  and  O_31
REMARK   10  A    between atoms: C_21  and  C_30
REMARK                            x       y       z     vdW  Elec       q    Type
REMARK                         _______ _______ _______ _____ _____    ______ ____
ROOT
ATOM      1  C   LIG A   1      -2.188   4.024 132.597  0.00  0.00    +0.011 C 
ATOM      2  C   LIG A   1      -3.606   4.057 132.002  0.00  0.00    -0.034 C 
ATOM      3  C   LIG A   1      -4.254   2.754 132.509  0.00  0.00    +0.007 C 
ATOM      4  C   LIG A   1      -5.577   2.510 131.859  0.00  0.00    +0.010 C 
ATOM      5  C   LIG A   1      -5.473   2.551 130.329  0.00  0.00    +0.001 C 
ATOM      6  C   LIG A   1      -6.893   2.328 129.882  0.00  0.00    +0.122 C 
ATOM      7  C   LIG A   1      -6.859   2.072 128.421  0.00  0.00    +0.043 C 
ATOM      8  C   LIG A   1      -6.176   3.147 127.589  0.00  0.00    -0.003 C 
ATOM      9  C   LIG A   1      -5.112   2.621 126.229  0.00  0.00    -0.019 C 
ATOM     10  C   LIG A   1      -4.424   1.267 126.222  0.00  0.00    +0.008 C 
ATOM     11  C   LIG A   1      -5.263   0.071 126.297  0.00  0.00    +0.005 C 
ATOM     12  C   LIG A   1      -6.433   0.130 125.329  0.00  0.00    +0.003 C 
ATOM     13  C   LIG A   1      -7.342  -1.120 125.602  0.00  0.00    -0.006 C 
ATOM     14  C   LIG A   1      -6.490  -2.444 125.513  0.00  0.00    +0.014 C 
ATOM     15  C   LIG A   1      -8.407  -1.235 124.481  0.00  0.00    +0.120 C 
ATOM     16  C   LIG A   1      -8.818   0.028 123.690  0.00  0.00    +0.032 C 
ATOM     17  C   LIG A   1      -7.795   1.232 123.593  0.00  0.00    +0.010 C 
ATOM     18  C   LIG A   1      -7.150   1.581 124.989  0.00  0.00    -0.025 C 
ATOM     19  C   LIG A   1      -6.014   2.888 125.058  0.00  0.00    +0.006 C 
ATOM     20  C   LIG A   1      -6.040   4.552 125.479  0.00  0.00    +0.031 C 
ATOM     21  C   LIG A   1      -5.251   5.047 127.072  0.00  0.00    -0.026 C 
ATOM     22  C   LIG A   1      -5.269   4.158 128.147  0.00  0.00    -0.063 C 
ATOM     23  C   LIG A   1      -4.968   3.976 129.726  0.00  0.00    +0.024 C 
ATOM     24  C   LIG A   1      -3.578   4.211 130.406  0.00  0.00    +0.014 C 
ATOM     25  C   LIG A   1      -8.419   1.922 125.747  0.00  0.00    +0.012 C 
ATOM     26  C   LIG A   1      -7.887  -1.178 127.062  0.00  0.00    +0.014 C 
ATOM     27  C   LIG A   1      -3.668   3.415 125.854  0.00  0.00    +0.012 C 
ATOM     28  C   LIG A   1      -7.538   4.212 127.611  0.00  0.00    +0.016 C 
ATOM     29  C   LIG A   1      -4.570   1.372 129.869  0.00  0.00    +0.014 C 
ATOM     30  C   LIG A   1      -4.380   5.233 132.636  0.00  0.00    +0.011 C 
ENDROOT
BRANCH  15  31
ATOM     31  O   LIG A   1      -9.573  -1.914 124.957  0.00  0.00    -0.391 OA
ATOM     32  H   LIG A   1     -10.110  -1.284 125.467  0.00  0.00    +0.210 HD
ENDBRANCH  15  31
BRANCH   6  33
ATOM     33  O   LIG A   1      -7.553   1.196 130.475  0.00  0.00    -0.391 OA
ATOM     34  H   LIG A   1      -7.799   0.613 129.767  0.00  0.00    +0.210 HD
ENDBRANCH   6  33
TORSDOF 2
ENDMDL
MODEL 8
REMARK VINA RESULT:      -8.0      3.028      5.127
REMARK  Name = NuBBE_364
REMARK  10 active torsions:
REMARK  status: ('A' for Active; 'I' for Inactive)
REMARK    1  A    between atoms: C_1  and  C_2
REMARK    2  A    between atoms: C_2  and  C_37
REMARK    3  A    between atoms: C_5  and  C_36
REMARK    4  A    between atoms: C_6  and  O_35
REMARK    5  A    between atoms: C_9  and  C_34
REMARK    6  A    between atoms: C_10  and  C_33
REMARK    7  A    between atoms: C_15  and  C_16
REMARK    8  A    between atoms: C_15  and  C_32
REMARK    9  A    between atoms: C_17  and  O_31
REMARK   10  A    between atoms: C_21  and  C_30
REMARK                            x       y       z     vdW  Elec       q    Type
REMARK                         _______ _______ _______ _____ _____    ______ ____
ROOT
ATOM      1  C   LIG A   1      -2.633   7.001 128.120  0.00  0.00    +0.011 C 
ATOM      2  C   LIG A   1      -3.550   6.224 129.080  0.00  0.00    -0.034 C 
ATOM      3  C   LIG A   1      -2.573   5.420 129.960  0.00  0.00    +0.007 C 
ATOM      4  C   LIG A   1      -3.295   4.438 130.825  0.00  0.00    +0.010 C 
ATOM      5  C   LIG A   1      -4.218   3.529 130.003  0.00  0.00    +0.001 C 
ATOM      6  C   LIG A   1      -4.866   2.662 131.048  0.00  0.00    +0.122 C 
ATOM      7  C   LIG A   1      -5.566   1.564 130.336  0.00  0.00    +0.043 C 
ATOM      8  C   LIG A   1      -6.569   2.010 129.282  0.00  0.00    -0.003 C 
ATOM      9  C   LIG A   1      -6.633   1.092 127.729  0.00  0.00    -0.019 C 
ATOM     10  C   LIG A   1      -5.434   0.327 127.195  0.00  0.00    +0.008 C 
ATOM     11  C   LIG A   1      -4.868  -0.730 128.031  0.00  0.00    +0.005 C 
ATOM     12  C   LIG A   1      -5.937  -1.651 128.594  0.00  0.00    +0.003 C 
ATOM     13  C   LIG A   1      -5.237  -2.643 129.590  0.00  0.00    -0.006 C 
ATOM     14  C   LIG A   1      -4.049  -3.389 128.871  0.00  0.00    +0.014 C 
ATOM     15  C   LIG A   1      -6.240  -3.754 129.996  0.00  0.00    +0.120 C 
ATOM     16  C   LIG A   1      -7.759  -3.477 129.912  0.00  0.00    +0.032 C 
ATOM     17  C   LIG A   1      -8.276  -2.372 128.903  0.00  0.00    +0.010 C 
ATOM     18  C   LIG A   1      -7.426  -1.046 128.983  0.00  0.00    -0.025 C 
ATOM     19  C   LIG A   1      -7.872   0.271 127.948  0.00  0.00    +0.006 C 
ATOM     20  C   LIG A   1      -8.787   1.717 128.082  0.00  0.00    +0.031 C 
ATOM     21  C   LIG A   1      -7.865   3.315 128.121  0.00  0.00    -0.026 C 
ATOM     22  C   LIG A   1      -6.594   3.356 128.697  0.00  0.00    -0.063 C 
ATOM     23  C   LIG A   1      -5.392   4.316 129.195  0.00  0.00    +0.024 C 
ATOM     24  C   LIG A   1      -4.621   5.331 128.286  0.00  0.00    +0.014 C 
ATOM     25  C   LIG A   1      -7.676  -0.703 130.439  0.00  0.00    +0.012 C 
ATOM     26  C   LIG A   1      -4.510  -1.923 130.766  0.00  0.00    +0.014 C 
ATOM     27  C   LIG A   1      -6.876   1.854 126.240  0.00  0.00    +0.012 C 
ATOM     28  C   LIG A   1      -7.809   2.376 130.430  0.00  0.00    +0.016 C 
ATOM     29  C   LIG A   1      -3.337   2.667 129.055  0.00  0.00    +0.014 C 
ATOM     30  C   LIG A   1      -4.274   7.232 129.997  0.00  0.00    +0.011 C 
ENDROOT
BRANCH  15  31
ATOM     31  O   LIG A   1      -5.911  -4.287 131.283  0.00  0.00    -0.391 OA
ATOM     32  H   LIG A   1      -6.700  -4.723 131.647  0.00  0.00    +0.210 HD
ENDBRANCH  15  31
BRANCH   6  33
ATOM     33  O   LIG A   1      -3.961   2.032 131.970  0.00  0.00    -0.391 OA
ATOM     34  H   LIG A   1      -4.140   1.100 131.947  0.00  0.00    +0.210 HD
ENDBRANCH   6  33
TORSDOF 2
ENDMDL
MODEL 9
REMARK VINA RESULT:      -8.0      6.003      9.987
REMARK  Name = NuBBE_364
REMARK  10 active torsions:
REMARK  status: ('A' for Active; 'I' for Inactive)
REMARK    1  A    between atoms: C_1  and  C_2
REMARK    2  A    between atoms: C_2  and  C_37
REMARK    3  A    between atoms: C_5  and  C_36
REMARK    4  A    between atoms: C_6  and  O_35
REMARK    5  A    between atoms: C_9  and  C_34
REMARK    6  A    between atoms: C_10  and  C_33
REMARK    7  A    between atoms: C_15  and  C_16
REMARK    8  A    between atoms: C_15  and  C_32
REMARK    9  A    between atoms: C_17  and  O_31
REMARK   10  A    between atoms: C_21  and  C_30
REMARK                            x       y       z     vdW  Elec       q    Type
REMARK                         _______ _______ _______ _____ _____    ______ ____
ROOT
ATOM      1  C   LIG A   1     -11.402   6.075 129.083  0.00  0.00    +0.011 C 
ATOM      2  C   LIG A   1     -10.457   5.363 130.066  0.00  0.00    -0.034 C 
ATOM      3  C   LIG A   1     -10.483   6.256 131.323  0.00  0.00    +0.007 C 
ATOM      4  C   LIG A   1      -9.456   5.830 132.320  0.00  0.00    +0.010 C 
ATOM      5  C   LIG A   1      -8.057   5.748 131.694  0.00  0.00    +0.001 C 
ATOM      6  C   LIG A   1      -7.198   5.272 132.835  0.00  0.00    +0.122 C 
ATOM      7  C   LIG A   1      -5.784   5.428 132.414  0.00  0.00    +0.043 C 
ATOM      8  C   LIG A   1      -5.414   4.733 131.111  0.00  0.00    -0.003 C 
ATOM      9  C   LIG A   1      -4.326   5.603 129.964  0.00  0.00    -0.019 C 
ATOM     10  C   LIG A   1      -4.231   7.120 129.936  0.00  0.00    +0.008 C 
ATOM     11  C   LIG A   1      -3.821   7.803 131.162  0.00  0.00    +0.005 C 
ATOM     12  C   LIG A   1      -2.600   7.159 131.799  0.00  0.00    +0.003 C 
ATOM     13  C   LIG A   1      -2.347   7.872 133.174  0.00  0.00    -0.006 C 
ATOM     14  C   LIG A   1      -2.226   9.430 132.967  0.00  0.00    +0.014 C 
ATOM     15  C   LIG A   1      -0.975   7.421 133.740  0.00  0.00    +0.120 C 
ATOM     16  C   LIG A   1      -0.379   6.063 133.299  0.00  0.00    +0.032 C 
ATOM     17  C   LIG A   1      -0.821   5.455 131.906  0.00  0.00    +0.010 C 
ATOM     18  C   LIG A   1      -2.381   5.523 131.693  0.00  0.00    -0.025 C 
ATOM     19  C   LIG A   1      -3.031   4.884 130.218  0.00  0.00    +0.006 C 
ATOM     20  C   LIG A   1      -3.762   3.420 129.700  0.00  0.00    +0.031 C 
ATOM     21  C   LIG A   1      -5.578   3.437 129.372  0.00  0.00    -0.026 C 
ATOM     22  C   LIG A   1      -6.398   4.283 130.118  0.00  0.00    -0.063 C 
ATOM     23  C   LIG A   1      -7.925   4.677 130.477  0.00  0.00    +0.024 C 
ATOM     24  C   LIG A   1      -8.998   5.142 129.436  0.00  0.00    +0.014 C 
ATOM     25  C   LIG A   1      -2.811   4.688 132.884  0.00  0.00    +0.012 C 
ATOM     26  C   LIG A   1      -3.553   7.763 134.156  0.00  0.00    +0.014 C 
ATOM     27  C   LIG A   1      -4.538   5.534 128.289  0.00  0.00    +0.012 C 
ATOM     28  C   LIG A   1      -5.277   3.168 131.832  0.00  0.00    +0.016 C 
ATOM     29  C   LIG A   1      -7.633   7.180 131.259  0.00  0.00    +0.014 C 
ATOM     30  C   LIG A   1     -11.079   4.004 130.453  0.00  0.00    +0.011 C 
ENDROOT
BRANCH  15  31
ATOM     31  O   LIG A   1      -0.958   7.521 135.167  0.00  0.00    -0.391 OA
ATOM     32  H   LIG A   1      -0.563   8.375 135.412  0.00  0.00    +0.210 HD
ENDBRANCH  15  31
BRANCH   6  33
ATOM     33  O   LIG A   1      -7.338   6.013 134.059  0.00  0.00    -0.391 OA
ATOM     34  H   LIG A   1      -7.380   6.933 133.828  0.00  0.00    +0.210 HD
ENDBRANCH   6  33
TORSDOF 2
ENDMDL
