MODEL 1
REMARK VINA RESULT:      -6.9      0.000      0.000
REMARK  Name = NuBBE_2346
REMARK  11 active torsions:
REMARK  status: ('A' for Active; 'I' for Inactive)
REMARK    1  A    between atoms: C_1  and  O_2
REMARK    2  A    between atoms: O_2  and  C_3
REMARK    3  A    between atoms: C_4  and  O_5
REMARK    4  A    between atoms: O_5  and  C_6
REMARK    5  A    between atoms: C_7  and  O_8
REMARK    6  A    between atoms: O_8  and  C_9
REMARK    7  A    between atoms: C_11  and  C_12
REMARK    8  A    between atoms: C_17  and  O_18
REMARK    9  A    between atoms: C_19  and  C_20
REMARK   10  A    between atoms: C_20  and  C_21
REMARK   11  A    between atoms: C_25  and  C_27
REMARK                            x       y       z     vdW  Elec       q    Type
REMARK                         _______ _______ _______ _____ _____    ______ ____
ROOT
ATOM      1  C   LIG A   1      -7.898   1.783 123.553  0.00  0.00    +0.211 C 
ATOM      2  O   LIG A   1      -6.877   0.922 122.953  0.00  0.00    -0.483 OA
ATOM      3  C   LIG A   1      -7.195  -0.334 123.420  0.00  0.00    +0.128 A 
ATOM      4  C   LIG A   1      -6.335  -1.407 123.434  0.00  0.00    +0.091 A 
ATOM      5  C   LIG A   1      -6.760  -2.573 124.077  0.00  0.00    +0.124 A 
ATOM      6  C   LIG A   1      -8.018  -2.654 124.715  0.00  0.00    -0.002 A 
ATOM      7  C   LIG A   1      -8.900  -1.561 124.604  0.00  0.00    +0.015 A 
ATOM      8  C   LIG A   1      -8.477  -0.414 123.941  0.00  0.00    +0.002 A 
ATOM      9  C   LIG A   1      -9.166   0.887 123.720  0.00  0.00    +0.065 C 
ATOM     10  C   LIG A   1     -10.060   0.859 122.485  0.00  0.00    +0.016 C 
ENDROOT
BRANCH   1  15
ATOM     11  C   LIG A   1      -7.627   3.341 127.096  0.00  0.00    +0.166 A 
ATOM     12  C   LIG A   1      -6.293   3.841 127.105  0.00  0.00    +0.203 A 
ATOM     13  C   LIG A   1      -5.474   3.564 126.003  0.00  0.00    +0.166 A 
ATOM     14  C   LIG A   1      -6.015   2.864 124.913  0.00  0.00    +0.057 A 
ATOM     15  C   LIG A   1      -7.335   2.408 124.842  0.00  0.00    +0.000 A 
ATOM     16  C   LIG A   1      -8.125   2.623 125.976  0.00  0.00    +0.057 A 
BRANCH  11  18
ATOM     17  C   LIG A   1      -8.538   2.554 129.170  0.00  0.00    +0.277 C 
ATOM     18  O   LIG A   1      -8.578   3.473 128.086  0.00  0.00    -0.491 OA
ENDBRANCH  11  18
BRANCH  12  19
ATOM     19  O   LIG A   1      -5.957   4.812 128.014  0.00  0.00    -0.488 OA
ATOM     20  C   LIG A   1      -5.244   4.376 129.168  0.00  0.00    +0.277 C 
ENDBRANCH  12  19
BRANCH  13  21
ATOM     21  O   LIG A   1      -4.228   3.999 125.655  0.00  0.00    -0.491 OA
ATOM     22  C   LIG A   1      -3.046   3.588 126.300  0.00  0.00    +0.277 C 
ENDBRANCH  13  21
ENDBRANCH   1  15
BRANCH   5  23
ATOM     23  O   LIG A   1      -5.874  -3.616 124.061  0.00  0.00    -0.506 OA
ATOM     24  H   LIG A   1      -4.977  -3.247 124.077  0.00  0.00    +0.292 HD
ENDBRANCH   5  23
BRANCH   6  25
ATOM     25  C   LIG A   1      -8.422  -3.844 125.572  0.00  0.00    +0.065 C 
BRANCH  25  26
ATOM     26  C   LIG A   1      -9.121  -3.468 126.838  0.00  0.00    -0.030 C 
ATOM     27  C   LIG A   1      -8.834  -4.005 128.069  0.00  0.00    +0.004 C 
ENDBRANCH  25  26
ENDBRANCH   6  25
TORSDOF 7
ENDMDL
MODEL 2
REMARK VINA RESULT:      -6.9      2.865      6.512
REMARK  Name = NuBBE_2346
REMARK  11 active torsions:
REMARK  status: ('A' for Active; 'I' for Inactive)
REMARK    1  A    between atoms: C_1  and  O_2
REMARK    2  A    between atoms: O_2  and  C_3
REMARK    3  A    between atoms: C_4  and  O_5
REMARK    4  A    between atoms: O_5  and  C_6
REMARK    5  A    between atoms: C_7  and  O_8
REMARK    6  A    between atoms: O_8  and  C_9
REMARK    7  A    between atoms: C_11  and  C_12
REMARK    8  A    between atoms: C_17  and  O_18
REMARK    9  A    between atoms: C_19  and  C_20
REMARK   10  A    between atoms: C_20  and  C_21
REMARK   11  A    between atoms: C_25  and  C_27
REMARK                            x       y       z     vdW  Elec       q    Type
REMARK                         _______ _______ _______ _____ _____    ______ ____
ROOT
ATOM      1  C   LIG A   1      -8.997   0.576 125.192  0.00  0.00    +0.211 C 
ATOM      2  O   LIG A   1      -9.103   1.934 125.732  0.00  0.00    -0.483 OA
ATOM      3  C   LIG A   1      -8.273   2.673 124.920  0.00  0.00    +0.128 A 
ATOM      4  C   LIG A   1      -7.759   3.909 125.239  0.00  0.00    +0.091 A 
ATOM      5  C   LIG A   1      -6.813   4.463 124.372  0.00  0.00    +0.124 A 
ATOM      6  C   LIG A   1      -6.373   3.780 123.217  0.00  0.00    -0.002 A 
ATOM      7  C   LIG A   1      -6.986   2.556 122.884  0.00  0.00    +0.015 A 
ATOM      8  C   LIG A   1      -7.944   2.025 123.740  0.00  0.00    +0.002 A 
ATOM      9  C   LIG A   1      -8.705   0.747 123.667  0.00  0.00    +0.065 C 
ATOM     10  C   LIG A   1      -9.965   0.878 122.817  0.00  0.00    +0.016 C 
ENDROOT
BRANCH   1  15
ATOM     11  C   LIG A   1      -6.237  -1.961 126.192  0.00  0.00    +0.166 A 
ATOM     12  C   LIG A   1      -6.211  -1.836 127.610  0.00  0.00    +0.203 A 
ATOM     13  C   LIG A   1      -7.012  -0.852 128.203  0.00  0.00    +0.166 A 
ATOM     14  C   LIG A   1      -7.849  -0.074 127.388  0.00  0.00    +0.057 A 
ATOM     15  C   LIG A   1      -7.946  -0.206 125.999  0.00  0.00    +0.000 A 
ATOM     16  C   LIG A   1      -7.090  -1.139 125.406  0.00  0.00    +0.057 A 
BRANCH  11  18
ATOM     17  C   LIG A   1      -5.876  -2.974 124.048  0.00  0.00    +0.277 C 
ATOM     18  O   LIG A   1      -5.508  -2.836 125.414  0.00  0.00    -0.491 OA
ENDBRANCH  11  18
BRANCH  12  19
ATOM     19  O   LIG A   1      -5.667  -2.852 128.354  0.00  0.00    -0.488 OA
ATOM     20  C   LIG A   1      -4.394  -2.593 128.940  0.00  0.00    +0.277 C 
ENDBRANCH  12  19
BRANCH  13  21
ATOM     21  O   LIG A   1      -7.306  -0.572 129.507  0.00  0.00    -0.491 OA
ATOM     22  C   LIG A   1      -7.946  -1.476 130.377  0.00  0.00    +0.277 C 
ENDBRANCH  13  21
ENDBRANCH   1  15
BRANCH   5  23
ATOM     23  O   LIG A   1      -6.335   5.694 124.727  0.00  0.00    -0.506 OA
ATOM     24  H   LIG A   1      -6.249   6.227 123.921  0.00  0.00    +0.292 HD
ENDBRANCH   5  23
BRANCH   6  25
ATOM     25  C   LIG A   1      -5.217   4.283 122.364  0.00  0.00    +0.065 C 
BRANCH  25  26
ATOM     26  C   LIG A   1      -5.400   4.049 120.900  0.00  0.00    -0.030 C 
ATOM     27  C   LIG A   1      -5.407   5.044 119.953  0.00  0.00    +0.004 C 
ENDBRANCH  25  26
ENDBRANCH   6  25
TORSDOF 7
ENDMDL
MODEL 3
REMARK VINA RESULT:      -6.8      2.561      4.299
REMARK  Name = NuBBE_2346
REMARK  11 active torsions:
REMARK  status: ('A' for Active; 'I' for Inactive)
REMARK    1  A    between atoms: C_1  and  O_2
REMARK    2  A    between atoms: O_2  and  C_3
REMARK    3  A    between atoms: C_4  and  O_5
REMARK    4  A    between atoms: O_5  and  C_6
REMARK    5  A    between atoms: C_7  and  O_8
REMARK    6  A    between atoms: O_8  and  C_9
REMARK    7  A    between atoms: C_11  and  C_12
REMARK    8  A    between atoms: C_17  and  O_18
REMARK    9  A    between atoms: C_19  and  C_20
REMARK   10  A    between atoms: C_20  and  C_21
REMARK   11  A    between atoms: C_25  and  C_27
REMARK                            x       y       z     vdW  Elec       q    Type
REMARK                         _______ _______ _______ _____ _____    ______ ____
ROOT
ATOM      1  C   LIG A   1      -6.647  -1.100 129.281  0.00  0.00    +0.211 C 
ATOM      2  O   LIG A   1      -7.827  -1.794 128.758  0.00  0.00    -0.483 OA
ATOM      3  C   LIG A   1      -7.444  -2.180 127.493  0.00  0.00    +0.128 A 
ATOM      4  C   LIG A   1      -8.310  -2.536 126.485  0.00  0.00    +0.091 A 
ATOM      5  C   LIG A   1      -7.772  -2.759 125.214  0.00  0.00    +0.124 A 
ATOM      6  C   LIG A   1      -6.392  -2.605 124.954  0.00  0.00    -0.002 A 
ATOM      7  C   LIG A   1      -5.532  -2.321 126.032  0.00  0.00    +0.015 A 
ATOM      8  C   LIG A   1      -6.073  -2.125 127.297  0.00  0.00    +0.002 A 
ATOM      9  C   LIG A   1      -5.418  -1.769 128.586  0.00  0.00    +0.065 C 
ATOM     10  C   LIG A   1      -4.897  -2.998 129.323  0.00  0.00    +0.016 C 
ENDROOT
BRANCH   1  15
ATOM     11  C   LIG A   1      -8.205   2.427 128.851  0.00  0.00    +0.166 A 
ATOM     12  C   LIG A   1      -7.112   3.180 128.336  0.00  0.00    +0.203 A 
ATOM     13  C   LIG A   1      -5.862   2.555 128.242  0.00  0.00    +0.166 A 
ATOM     14  C   LIG A   1      -5.751   1.202 128.600  0.00  0.00    +0.057 A 
ATOM     15  C   LIG A   1      -6.813   0.413 129.055  0.00  0.00    +0.000 A 
ATOM     16  C   LIG A   1      -8.040   1.064 129.216  0.00  0.00    +0.057 A 
BRANCH  11  18
ATOM     17  C   LIG A   1      -9.790   3.535 130.271  0.00  0.00    +0.277 C 
ATOM     18  O   LIG A   1      -9.499   2.860 129.054  0.00  0.00    -0.491 OA
ENDBRANCH  11  18
BRANCH  12  19
ATOM     19  O   LIG A   1      -7.370   4.353 127.673  0.00  0.00    -0.488 OA
ATOM     20  C   LIG A   1      -7.713   4.235 126.295  0.00  0.00    +0.277 C 
ENDBRANCH  12  19
BRANCH  13  21
ATOM     21  O   LIG A   1      -4.680   2.946 127.683  0.00  0.00    -0.491 OA
ATOM     22  C   LIG A   1      -4.292   2.627 126.368  0.00  0.00    +0.277 C 
ENDBRANCH  13  21
ENDBRANCH   1  15
BRANCH   5  23
ATOM     23  O   LIG A   1      -8.670  -3.116 124.246  0.00  0.00    -0.506 OA
ATOM     24  H   LIG A   1      -8.476  -4.029 123.979  0.00  0.00    +0.292 HD
ENDBRANCH   5  23
BRANCH   6  25
ATOM     25  C   LIG A   1      -5.818  -2.664 123.546  0.00  0.00    +0.065 C 
BRANCH  25  26
ATOM     26  C   LIG A   1      -4.508  -3.376 123.457  0.00  0.00    -0.030 C 
ATOM     27  C   LIG A   1      -4.365  -4.741 123.508  0.00  0.00    +0.004 C 
ENDBRANCH  25  26
ENDBRANCH   6  25
TORSDOF 7
ENDMDL
MODEL 4
REMARK VINA RESULT:      -6.8      2.285      4.133
REMARK  Name = NuBBE_2346
REMARK  11 active torsions:
REMARK  status: ('A' for Active; 'I' for Inactive)
REMARK    1  A    between atoms: C_1  and  O_2
REMARK    2  A    between atoms: O_2  and  C_3
REMARK    3  A    between atoms: C_4  and  O_5
REMARK    4  A    between atoms: O_5  and  C_6
REMARK    5  A    between atoms: C_7  and  O_8
REMARK    6  A    between atoms: O_8  and  C_9
REMARK    7  A    between atoms: C_11  and  C_12
REMARK    8  A    between atoms: C_17  and  O_18
REMARK    9  A    between atoms: C_19  and  C_20
REMARK   10  A    between atoms: C_20  and  C_21
REMARK   11  A    between atoms: C_25  and  C_27
REMARK                            x       y       z     vdW  Elec       q    Type
REMARK                         _______ _______ _______ _____ _____    ______ ____
ROOT
ATOM      1  C   LIG A   1      -8.152  -1.241 123.927  0.00  0.00    +0.211 C 
ATOM      2  O   LIG A   1      -6.748  -1.495 124.261  0.00  0.00    -0.483 OA
ATOM      3  C   LIG A   1      -6.805  -2.001 125.541  0.00  0.00    +0.128 A 
ATOM      4  C   LIG A   1      -5.742  -2.050 126.413  0.00  0.00    +0.091 A 
ATOM      5  C   LIG A   1      -5.997  -2.455 127.726  0.00  0.00    +0.124 A 
ATOM      6  C   LIG A   1      -7.300  -2.784 128.163  0.00  0.00    -0.002 A 
ATOM      7  C   LIG A   1      -8.343  -2.800 127.217  0.00  0.00    +0.015 A 
ATOM      8  C   LIG A   1      -8.074  -2.419 125.907  0.00  0.00    +0.002 A 
ATOM      9  C   LIG A   1      -8.979  -2.295 124.730  0.00  0.00    +0.065 C 
ATOM     10  C   LIG A   1      -9.150  -3.622 123.997  0.00  0.00    +0.016 C 
ENDROOT
BRANCH   1  15
ATOM     11  C   LIG A   1      -8.626   2.589 123.522  0.00  0.00    +0.166 A 
ATOM     12  C   LIG A   1      -8.809   3.015 124.868  0.00  0.00    +0.203 A 
ATOM     13  C   LIG A   1      -8.884   2.037 125.868  0.00  0.00    +0.166 A 
ATOM     14  C   LIG A   1      -8.717   0.689 125.515  0.00  0.00    +0.057 A 
ATOM     15  C   LIG A   1      -8.478   0.236 124.214  0.00  0.00    +0.000 A 
ATOM     16  C   LIG A   1      -8.477   1.210 123.211  0.00  0.00    +0.057 A 
BRANCH  11  18
ATOM     17  C   LIG A   1      -7.319   3.438 121.699  0.00  0.00    +0.277 C 
ATOM     18  O   LIG A   1      -8.557   3.380 122.394  0.00  0.00    -0.491 OA
ENDBRANCH  11  18
BRANCH  12  19
ATOM     19  O   LIG A   1      -8.595   4.334 125.180  0.00  0.00    -0.488 OA
ATOM     20  C   LIG A   1      -7.247   4.709 125.444  0.00  0.00    +0.277 C 
ENDBRANCH  12  19
BRANCH  13  21
ATOM     21  O   LIG A   1      -8.920   2.120 127.231  0.00  0.00    -0.491 OA
ATOM     22  C   LIG A   1      -8.148   1.309 128.085  0.00  0.00    +0.277 C 
ENDBRANCH  13  21
ENDBRANCH   1  15
BRANCH   5  23
ATOM     23  O   LIG A   1      -4.910  -2.494 128.555  0.00  0.00    -0.506 OA
ATOM     24  H   LIG A   1      -5.160  -2.983 129.355  0.00  0.00    +0.292 HD
ENDBRANCH   5  23
BRANCH   6  25
ATOM     25  C   LIG A   1      -7.625  -3.049 129.626  0.00  0.00    +0.065 C 
BRANCH  25  26
ATOM     26  C   LIG A   1      -7.980  -1.820 130.398  0.00  0.00    -0.030 C 
ATOM     27  C   LIG A   1      -7.065  -1.011 131.027  0.00  0.00    +0.004 C 
ENDBRANCH  25  26
ENDBRANCH   6  25
TORSDOF 7
ENDMDL
MODEL 5
REMARK VINA RESULT:      -6.7      2.810      5.095
REMARK  Name = NuBBE_2346
REMARK  11 active torsions:
REMARK  status: ('A' for Active; 'I' for Inactive)
REMARK    1  A    between atoms: C_1  and  O_2
REMARK    2  A    between atoms: O_2  and  C_3
REMARK    3  A    between atoms: C_4  and  O_5
REMARK    4  A    between atoms: O_5  and  C_6
REMARK    5  A    between atoms: C_7  and  O_8
REMARK    6  A    between atoms: O_8  and  C_9
REMARK    7  A    between atoms: C_11  and  C_12
REMARK    8  A    between atoms: C_17  and  O_18
REMARK    9  A    between atoms: C_19  and  C_20
REMARK   10  A    between atoms: C_20  and  C_21
REMARK   11  A    between atoms: C_25  and  C_27
REMARK                            x       y       z     vdW  Elec       q    Type
REMARK                         _______ _______ _______ _____ _____    ______ ____
ROOT
ATOM      1  C   LIG A   1      -7.300  -1.906 129.763  0.00  0.00    +0.211 C 
ATOM      2  O   LIG A   1      -8.264  -2.718 129.016  0.00  0.00    -0.483 OA
ATOM      3  C   LIG A   1      -7.727  -2.774 127.748  0.00  0.00    +0.128 A 
ATOM      4  C   LIG A   1      -8.430  -3.106 126.613  0.00  0.00    +0.091 A 
ATOM      5  C   LIG A   1      -7.779  -2.972 125.384  0.00  0.00    +0.124 A 
ATOM      6  C   LIG A   1      -6.453  -2.492 125.293  0.00  0.00    -0.002 A 
ATOM      7  C   LIG A   1      -5.745  -2.243 126.484  0.00  0.00    +0.015 A 
ATOM      8  C   LIG A   1      -6.393  -2.403 127.703  0.00  0.00    +0.002 A 
ATOM      9  C   LIG A   1      -5.913  -2.166 129.093  0.00  0.00    +0.065 C 
ATOM     10  C   LIG A   1      -5.180  -3.377 129.660  0.00  0.00    +0.016 C 
ENDROOT
BRANCH   1  15
ATOM     11  C   LIG A   1      -8.819   1.475 130.910  0.00  0.00    +0.166 A 
ATOM     12  C   LIG A   1      -8.932   2.188 129.683  0.00  0.00    +0.203 A 
ATOM     13  C   LIG A   1      -8.411   1.598 128.524  0.00  0.00    +0.166 A 
ATOM     14  C   LIG A   1      -7.857   0.311 128.606  0.00  0.00    +0.057 A 
ATOM     15  C   LIG A   1      -7.781  -0.444 129.781  0.00  0.00    +0.000 A 
ATOM     16  C   LIG A   1      -8.235   0.180 130.947  0.00  0.00    +0.057 A 
BRANCH  11  18
ATOM     17  C   LIG A   1      -8.280   2.527 132.998  0.00  0.00    +0.277 C 
ATOM     18  O   LIG A   1      -9.234   1.887 132.160  0.00  0.00    -0.491 OA
ENDBRANCH  11  18
BRANCH  12  19
ATOM     19  O   LIG A   1      -9.797   3.250 129.611  0.00  0.00    -0.488 OA
ATOM     20  C   LIG A   1      -9.233   4.539 129.835  0.00  0.00    +0.277 C 
ENDBRANCH  12  19
BRANCH  13  21
ATOM     21  O   LIG A   1      -8.477   1.951 127.207  0.00  0.00    -0.491 OA
ATOM     22  C   LIG A   1      -7.625   2.899 126.606  0.00  0.00    +0.277 C 
ENDBRANCH  13  21
ENDBRANCH   1  15
BRANCH   5  23
ATOM     23  O   LIG A   1      -8.514  -3.319 124.283  0.00  0.00    -0.506 OA
ATOM     24  H   LIG A   1      -8.902  -2.510 123.914  0.00  0.00    +0.292 HD
ENDBRANCH   5  23
BRANCH   6  25
ATOM     25  C   LIG A   1      -5.794  -2.168 123.960  0.00  0.00    +0.065 C 
BRANCH  25  26
ATOM     26  C   LIG A   1      -4.668  -3.083 123.604  0.00  0.00    -0.030 C 
ATOM     27  C   LIG A   1      -4.716  -4.450 123.720  0.00  0.00    +0.004 C 
ENDBRANCH  25  26
ENDBRANCH   6  25
TORSDOF 7
ENDMDL
MODEL 6
REMARK VINA RESULT:      -6.7      2.736      4.862
REMARK  Name = NuBBE_2346
REMARK  11 active torsions:
REMARK  status: ('A' for Active; 'I' for Inactive)
REMARK    1  A    between atoms: C_1  and  O_2
REMARK    2  A    between atoms: O_2  and  C_3
REMARK    3  A    between atoms: C_4  and  O_5
REMARK    4  A    between atoms: O_5  and  C_6
REMARK    5  A    between atoms: C_7  and  O_8
REMARK    6  A    between atoms: O_8  and  C_9
REMARK    7  A    between atoms: C_11  and  C_12
REMARK    8  A    between atoms: C_17  and  O_18
REMARK    9  A    between atoms: C_19  and  C_20
REMARK   10  A    between atoms: C_20  and  C_21
REMARK   11  A    between atoms: C_25  and  C_27
REMARK                            x       y       z     vdW  Elec       q    Type
REMARK                         _______ _______ _______ _____ _____    ______ ____
ROOT
ATOM      1  C   LIG A   1      -6.665  -0.893 129.165  0.00  0.00    +0.211 C 
ATOM      2  O   LIG A   1      -7.825  -1.648 128.685  0.00  0.00    -0.483 OA
ATOM      3  C   LIG A   1      -7.435  -2.087 127.439  0.00  0.00    +0.128 A 
ATOM      4  C   LIG A   1      -8.293  -2.521 126.456  0.00  0.00    +0.091 A 
ATOM      5  C   LIG A   1      -7.753  -2.792 125.195  0.00  0.00    +0.124 A 
ATOM      6  C   LIG A   1      -6.380  -2.610 124.920  0.00  0.00    -0.002 A 
ATOM      7  C   LIG A   1      -5.524  -2.244 125.977  0.00  0.00    +0.015 A 
ATOM      8  C   LIG A   1      -6.067  -2.000 127.234  0.00  0.00    +0.002 A 
ATOM      9  C   LIG A   1      -5.419  -1.558 128.499  0.00  0.00    +0.065 C 
ATOM     10  C   LIG A   1      -4.856  -2.731 129.295  0.00  0.00    +0.016 C 
ENDROOT
BRANCH   1  15
ATOM     11  C   LIG A   1      -6.020   2.842 128.333  0.00  0.00    +0.166 A 
ATOM     12  C   LIG A   1      -7.289   3.434 128.596  0.00  0.00    +0.203 A 
ATOM     13  C   LIG A   1      -8.356   2.592 128.932  0.00  0.00    +0.166 A 
ATOM     14  C   LIG A   1      -8.122   1.213 129.055  0.00  0.00    +0.057 A 
ATOM     15  C   LIG A   1      -6.879   0.601 128.862  0.00  0.00    +0.000 A 
ATOM     16  C   LIG A   1      -5.835   1.439 128.455  0.00  0.00    +0.057 A 
BRANCH  11  18
ATOM     17  C   LIG A   1      -3.737   3.386 128.829  0.00  0.00    +0.277 C 
ATOM     18  O   LIG A   1      -4.858   3.483 127.959  0.00  0.00    -0.491 OA
ENDBRANCH  11  18
BRANCH  12  19
ATOM     19  O   LIG A   1      -7.355   4.786 128.817  0.00  0.00    -0.488 OA
ATOM     20  C   LIG A   1      -6.989   5.230 130.120  0.00  0.00    +0.277 C 
ENDBRANCH  12  19
BRANCH  13  21
ATOM     21  O   LIG A   1      -9.627   2.848 129.360  0.00  0.00    -0.491 OA
ATOM     22  C   LIG A   1      -9.964   3.102 130.704  0.00  0.00    +0.277 C 
ENDBRANCH  13  21
ENDBRANCH   1  15
BRANCH   5  23
ATOM     23  O   LIG A   1      -8.643  -3.227 124.251  0.00  0.00    -0.506 OA
ATOM     24  H   LIG A   1      -8.143  -3.462 123.453  0.00  0.00    +0.292 HD
ENDBRANCH   5  23
BRANCH   6  25
ATOM     25  C   LIG A   1      -5.809  -2.724 123.514  0.00  0.00    +0.065 C 
BRANCH  25  26
ATOM     26  C   LIG A   1      -4.491  -3.424 123.452  0.00  0.00    -0.030 C 
ATOM     27  C   LIG A   1      -4.333  -4.785 123.540  0.00  0.00    +0.004 C 
ENDBRANCH  25  26
ENDBRANCH   6  25
TORSDOF 7
ENDMDL
MODEL 7
REMARK VINA RESULT:      -6.7      2.420      3.993
REMARK  Name = NuBBE_2346
REMARK  11 active torsions:
REMARK  status: ('A' for Active; 'I' for Inactive)
REMARK    1  A    between atoms: C_1  and  O_2
REMARK    2  A    between atoms: O_2  and  C_3
REMARK    3  A    between atoms: C_4  and  O_5
REMARK    4  A    between atoms: O_5  and  C_6
REMARK    5  A    between atoms: C_7  and  O_8
REMARK    6  A    between atoms: O_8  and  C_9
REMARK    7  A    between atoms: C_11  and  C_12
REMARK    8  A    between atoms: C_17  and  O_18
REMARK    9  A    between atoms: C_19  and  C_20
REMARK   10  A    between atoms: C_20  and  C_21
REMARK   11  A    between atoms: C_25  and  C_27
REMARK                            x       y       z     vdW  Elec       q    Type
REMARK                         _______ _______ _______ _____ _____    ______ ____
ROOT
ATOM      1  C   LIG A   1      -6.533   0.700 128.134  0.00  0.00    +0.211 C 
ATOM      2  O   LIG A   1      -7.823   0.020 127.992  0.00  0.00    -0.483 OA
ATOM      3  C   LIG A   1      -7.575  -0.957 127.054  0.00  0.00    +0.128 A 
ATOM      4  C   LIG A   1      -8.542  -1.610 126.326  0.00  0.00    +0.091 A 
ATOM      5  C   LIG A   1      -8.120  -2.469 125.307  0.00  0.00    +0.124 A 
ATOM      6  C   LIG A   1      -6.752  -2.653 125.009  0.00  0.00    -0.002 A 
ATOM      7  C   LIG A   1      -5.794  -2.029 125.832  0.00  0.00    +0.015 A 
ATOM      8  C   LIG A   1      -6.224  -1.196 126.859  0.00  0.00    +0.002 A 
ATOM      9  C   LIG A   1      -5.447  -0.382 127.834  0.00  0.00    +0.065 C 
ATOM     10  C   LIG A   1      -5.041  -1.192 129.061  0.00  0.00    +0.016 C 
ENDROOT
BRANCH   1  15
ATOM     11  C   LIG A   1      -7.532   3.378 125.510  0.00  0.00    +0.166 A 
ATOM     12  C   LIG A   1      -6.320   4.105 125.343  0.00  0.00    +0.203 A 
ATOM     13  C   LIG A   1      -5.234   3.781 126.166  0.00  0.00    +0.166 A 
ATOM     14  C   LIG A   1      -5.363   2.719 127.075  0.00  0.00    +0.057 A 
ATOM     15  C   LIG A   1      -6.518   1.944 127.227  0.00  0.00    +0.000 A 
ATOM     16  C   LIG A   1      -7.621   2.321 126.455  0.00  0.00    +0.057 A 
BRANCH  11  18
ATOM     17  C   LIG A   1      -9.100   2.565 123.886  0.00  0.00    +0.277 C 
ATOM     18  O   LIG A   1      -8.718   3.559 124.829  0.00  0.00    -0.491 OA
ENDBRANCH  11  18
BRANCH  12  19
ATOM     19  O   LIG A   1      -6.150   4.859 124.209  0.00  0.00    -0.488 OA
ATOM     20  C   LIG A   1      -5.673   4.167 123.058  0.00  0.00    +0.277 C 
ENDBRANCH  12  19
BRANCH  13  21
ATOM     21  O   LIG A   1      -3.930   4.186 126.167  0.00  0.00    -0.491 OA
ATOM     22  C   LIG A   1      -2.854   3.360 126.543  0.00  0.00    +0.277 C 
ENDBRANCH  13  21
ENDBRANCH   1  15
BRANCH   5  23
ATOM     23  O   LIG A   1      -9.117  -3.100 124.614  0.00  0.00    -0.506 OA
ATOM     24  H   LIG A   1      -9.645  -3.611 125.248  0.00  0.00    +0.292 HD
ENDBRANCH   5  23
BRANCH   6  25
ATOM     25  C   LIG A   1      -6.282  -3.437 123.792  0.00  0.00    +0.065 C 
BRANCH  25  26
ATOM     26  C   LIG A   1      -4.796  -3.498 123.651  0.00  0.00    -0.030 C 
ATOM     27  C   LIG A   1      -4.075  -4.663 123.561  0.00  0.00    +0.004 C 
ENDBRANCH  25  26
ENDBRANCH   6  25
TORSDOF 7
ENDMDL
MODEL 8
REMARK VINA RESULT:      -6.5      3.606      6.451
REMARK  Name = NuBBE_2346
REMARK  11 active torsions:
REMARK  status: ('A' for Active; 'I' for Inactive)
REMARK    1  A    between atoms: C_1  and  O_2
REMARK    2  A    between atoms: O_2  and  C_3
REMARK    3  A    between atoms: C_4  and  O_5
REMARK    4  A    between atoms: O_5  and  C_6
REMARK    5  A    between atoms: C_7  and  O_8
REMARK    6  A    between atoms: O_8  and  C_9
REMARK    7  A    between atoms: C_11  and  C_12
REMARK    8  A    between atoms: C_17  and  O_18
REMARK    9  A    between atoms: C_19  and  C_20
REMARK   10  A    between atoms: C_20  and  C_21
REMARK   11  A    between atoms: C_25  and  C_27
REMARK                            x       y       z     vdW  Elec       q    Type
REMARK                         _______ _______ _______ _____ _____    ______ ____
ROOT
ATOM      1  C   LIG A   1      -7.629  -2.499 126.461  0.00  0.00    +0.211 C 
ATOM      2  O   LIG A   1      -8.886  -1.755 126.343  0.00  0.00    -0.483 OA
ATOM      3  C   LIG A   1      -8.537  -0.639 125.616  0.00  0.00    +0.128 A 
ATOM      4  C   LIG A   1      -9.273   0.521 125.558  0.00  0.00    +0.091 A 
ATOM      5  C   LIG A   1      -8.710   1.616 124.896  0.00  0.00    +0.124 A 
ATOM      6  C   LIG A   1      -7.421   1.555 124.322  0.00  0.00    -0.002 A 
ATOM      7  C   LIG A   1      -6.737   0.324 124.333  0.00  0.00    +0.015 A 
ATOM      8  C   LIG A   1      -7.317  -0.767 124.972  0.00  0.00    +0.002 A 
ATOM      9  C   LIG A   1      -6.807  -2.150 125.179  0.00  0.00    +0.065 C 
ATOM     10  C   LIG A   1      -7.115  -3.058 123.993  0.00  0.00    +0.016 C 
ENDROOT
BRANCH   1  15
ATOM     11  C   LIG A   1      -5.025  -2.130 129.313  0.00  0.00    +0.166 A 
ATOM     12  C   LIG A   1      -5.841  -1.769 130.423  0.00  0.00    +0.203 A 
ATOM     13  C   LIG A   1      -7.205  -1.545 130.198  0.00  0.00    +0.166 A 
ATOM     14  C   LIG A   1      -7.722  -1.744 128.908  0.00  0.00    +0.057 A 
ATOM     15  C   LIG A   1      -6.965  -2.154 127.806  0.00  0.00    +0.000 A 
ATOM     16  C   LIG A   1      -5.591  -2.304 128.022  0.00  0.00    +0.057 A 
BRANCH  11  18
ATOM     17  C   LIG A   1      -3.222  -3.709 129.208  0.00  0.00    +0.277 C 
ATOM     18  O   LIG A   1      -3.665  -2.362 129.313  0.00  0.00    -0.491 OA
ENDBRANCH  11  18
BRANCH  12  19
ATOM     19  O   LIG A   1      -5.352  -1.953 131.691  0.00  0.00    -0.488 OA
ATOM     20  C   LIG A   1      -5.524  -3.252 132.251  0.00  0.00    +0.277 C 
ENDBRANCH  12  19
BRANCH  13  21
ATOM     21  O   LIG A   1      -8.251  -1.324 131.047  0.00  0.00    -0.491 OA
ATOM     22  C   LIG A   1      -8.452  -0.116 131.743  0.00  0.00    +0.277 C 
ENDBRANCH  13  21
ENDBRANCH   1  15
BRANCH   5  23
ATOM     23  O   LIG A   1      -9.481   2.746 124.858  0.00  0.00    -0.506 OA
ATOM     24  H   LIG A   1     -10.027   2.710 124.056  0.00  0.00    +0.292 HD
ENDBRANCH   5  23
BRANCH   6  25
ATOM     25  C   LIG A   1      -6.720   2.784 123.760  0.00  0.00    +0.065 C 
BRANCH  25  26
ATOM     26  C   LIG A   1      -6.842   2.924 122.278  0.00  0.00    -0.030 C 
ATOM     27  C   LIG A   1      -5.839   3.383 121.460  0.00  0.00    +0.004 C 
ENDBRANCH  25  26
ENDBRANCH   6  25
TORSDOF 7
ENDMDL
MODEL 9
REMARK VINA RESULT:      -6.4      4.995      8.313
REMARK  Name = NuBBE_2346
REMARK  11 active torsions:
REMARK  status: ('A' for Active; 'I' for Inactive)
REMARK    1  A    between atoms: C_1  and  O_2
REMARK    2  A    between atoms: O_2  and  C_3
REMARK    3  A    between atoms: C_4  and  O_5
REMARK    4  A    between atoms: O_5  and  C_6
REMARK    5  A    between atoms: C_7  and  O_8
REMARK    6  A    between atoms: O_8  and  C_9
REMARK    7  A    between atoms: C_11  and  C_12
REMARK    8  A    between atoms: C_17  and  O_18
REMARK    9  A    between atoms: C_19  and  C_20
REMARK   10  A    between atoms: C_20  and  C_21
REMARK   11  A    between atoms: C_25  and  C_27
REMARK                            x       y       z     vdW  Elec       q    Type
REMARK                         _______ _______ _______ _____ _____    ______ ____
ROOT
ATOM      1  C   LIG A   1      -5.312   6.589 131.864  0.00  0.00    +0.211 C 
ATOM      2  O   LIG A   1      -4.662   5.287 132.038  0.00  0.00    -0.483 OA
ATOM      3  C   LIG A   1      -4.335   4.913 130.754  0.00  0.00    +0.128 A 
ATOM      4  C   LIG A   1      -4.042   3.627 130.362  0.00  0.00    +0.091 A 
ATOM      5  C   LIG A   1      -3.876   3.387 128.995  0.00  0.00    +0.124 A 
ATOM      6  C   LIG A   1      -4.024   4.413 128.036  0.00  0.00    -0.002 A 
ATOM      7  C   LIG A   1      -4.242   5.729 128.487  0.00  0.00    +0.015 A 
ATOM      8  C   LIG A   1      -4.380   5.963 129.851  0.00  0.00    +0.002 A 
ATOM      9  C   LIG A   1      -4.662   7.223 130.593  0.00  0.00    +0.065 C 
ATOM     10  C   LIG A   1      -3.391   8.011 130.888  0.00  0.00    +0.016 C 
ENDROOT
BRANCH   1  15
ATOM     11  C   LIG A   1      -8.890   5.255 132.552  0.00  0.00    +0.166 A 
ATOM     12  C   LIG A   1      -9.638   5.832 131.487  0.00  0.00    +0.203 A 
ATOM     13  C   LIG A   1      -8.988   6.731 130.631  0.00  0.00    +0.166 A 
ATOM     14  C   LIG A   1      -7.619   6.978 130.819  0.00  0.00    +0.057 A 
ATOM     15  C   LIG A   1      -6.837   6.386 131.817  0.00  0.00    +0.000 A 
ATOM     16  C   LIG A   1      -7.509   5.548 132.712  0.00  0.00    +0.057 A 
BRANCH  11  18
ATOM     17  C   LIG A   1      -8.954   3.016 133.411  0.00  0.00    +0.277 C 
ATOM     18  O   LIG A   1      -9.344   4.379 133.516  0.00  0.00    -0.491 OA
ENDBRANCH  11  18
BRANCH  12  19
ATOM     19  O   LIG A   1     -10.843   5.273 131.145  0.00  0.00    -0.488 OA
ATOM     20  C   LIG A   1     -10.787   4.082 130.365  0.00  0.00    +0.277 C 
ENDBRANCH  12  19
BRANCH  13  21
ATOM     21  O   LIG A   1      -9.375   7.335 129.470  0.00  0.00    -0.491 OA
ATOM     22  C   LIG A   1     -10.629   7.948 129.287  0.00  0.00    +0.277 C 
ENDBRANCH  13  21
ENDBRANCH   1  15
BRANCH   5  23
ATOM     23  O   LIG A   1      -3.580   2.095 128.653  0.00  0.00    -0.506 OA
ATOM     24  H   LIG A   1      -2.657   2.068 128.355  0.00  0.00    +0.292 HD
ENDBRANCH   5  23
BRANCH   6  25
ATOM     25  C   LIG A   1      -4.028   4.135 126.540  0.00  0.00    +0.065 C 
BRANCH  25  26
ATOM     26  C   LIG A   1      -5.389   4.164 125.924  0.00  0.00    -0.030 C 
ATOM     27  C   LIG A   1      -6.518   3.658 126.519  0.00  0.00    +0.004 C 
ENDBRANCH  25  26
ENDBRANCH   6  25
TORSDOF 7
ENDMDL
