MODEL 1
REMARK VINA RESULT:      -7.4      0.000      0.000
REMARK  Name = NuBBE_234
REMARK  18 active torsions:
REMARK  status: ('A' for Active; 'I' for Inactive)
REMARK    1  A    between atoms: C_1  and  C_2
REMARK    2  A    between atoms: C_4  and  C_5
REMARK    3  A    between atoms: C_4  and  C_6
REMARK    4  A    between atoms: C_6  and  C_7
REMARK    5  A    between atoms: C_8  and  C_9
REMARK    6  A    between atoms: C_8  and  C_11
REMARK    7  A    between atoms: C_12  and  O_14
REMARK    8  A    between atoms: O_14  and  C_15
REMARK    9  A    between atoms: C_15  and  C_16
REMARK   10  A    between atoms: C_16  and  C_17
REMARK   11  A    between atoms: C_17  and  C_18
REMARK   12  A    between atoms: C_20  and  O_22
REMARK   13  A    between atoms: C_28  and  O_30
REMARK   14  A    between atoms: O_30  and  C_31
REMARK   15  A    between atoms: C_31  and  C_32
REMARK   16  A    between atoms: C_35  and  O_37
REMARK   17  A    between atoms: O_37  and  C_38
REMARK   18  A    between atoms: C_38  and  C_39
REMARK                            x       y       z     vdW  Elec       q    Type
REMARK                         _______ _______ _______ _____ _____    ______ ____
ROOT
ATOM      1  C   LIG A   1      -5.275  -1.299 127.778  0.00  0.00    +0.012 C 
ATOM      2  C   LIG A   1      -6.315  -0.338 128.390  0.00  0.00    +0.036 C 
ATOM      3  C   LIG A   1      -5.653   0.852 129.171  0.00  0.00    -0.018 C 
ATOM      4  C   LIG A   1      -4.879   0.262 130.400  0.00  0.00    +0.012 C 
ATOM      5  C   LIG A   1      -7.380   0.109 127.349  0.00  0.00    +0.209 C 
ATOM      6  C   LIG A   1      -8.442   1.076 127.945  0.00  0.00    +0.172 C 
ATOM      7  C   LIG A   1      -7.857   2.329 128.661  0.00  0.00    +0.093 C 
ATOM      8  C   LIG A   1      -6.797   1.824 129.704  0.00  0.00    +0.022 C 
ATOM      9  C   LIG A   1      -7.552   1.089 130.896  0.00  0.00    +0.084 C 
ATOM     10  C   LIG A   1      -8.851   3.132 129.523  0.00  0.00    +0.016 C 
ATOM     11  C   LIG A   1      -8.683   4.606 129.299  0.00  0.00    +0.343 C 
ATOM     12  O   LIG A   1      -7.584   4.692 128.402  0.00  0.00    -0.297 OA
ATOM     13  C   LIG A   1      -7.589   3.483 127.636  0.00  0.00    +0.327 C 
ATOM     14  C   LIG A   1      -9.525   2.666 130.581  0.00  0.00    +0.052 C 
ATOM     15  C   LIG A   1      -9.012   1.417 131.142  0.00  0.00    +0.157 C 
ATOM     16  O   LIG A   1      -9.727   0.734 131.869  0.00  0.00    -0.293 OA
ENDROOT
BRANCH   6  17
ATOM     17  O   LIG A   1      -9.360   1.463 126.915  0.00  0.00    -0.387 OA
ATOM     18  H   LIG A   1      -8.993   2.258 126.486  0.00  0.00    +0.210 HD
ENDBRANCH   6  17
BRANCH   3  19
ATOM     19  C   LIG A   1      -4.560   1.531 128.279  0.00  0.00    +0.035 C 
BRANCH  19  20
ATOM     20  C   LIG A   1      -3.979   2.814 128.820  0.00  0.00    -0.023 C 
ATOM     21  C   LIG A   1      -3.136   3.655 128.188  0.00  0.00    -0.055 C 
ATOM     22  C   LIG A   1      -2.629   4.903 128.863  0.00  0.00    +0.043 C 
BRANCH  21  23
ATOM     23  C   LIG A   1      -2.677   3.438 126.826  0.00  0.00    -0.005 C 
ATOM     24  C   LIG A   1      -1.477   2.945 126.494  0.00  0.00    +0.008 C 
ENDBRANCH  21  23
ENDBRANCH  19  20
ENDBRANCH   3  19
BRANCH   5  25
ATOM     25  O   LIG A   1      -8.149  -1.081 126.997  0.00  0.00    -0.458 OA
BRANCH  25  26
ATOM     26  C   LIG A   1      -8.283  -1.414 125.683  0.00  0.00    +0.307 C 
ATOM     27  O   LIG A   1      -8.495  -0.642 124.772  0.00  0.00    -0.251 OA
BRANCH  26  28
ATOM     28  C   LIG A   1      -8.094  -2.910 125.531  0.00  0.00    +0.120 C 
BRANCH  28  29
ATOM     29  C   LIG A   1      -7.335  -3.226 124.253  0.00  0.00    +0.008 C 
ATOM     30  C   LIG A   1      -5.840  -3.038 124.460  0.00  0.00    +0.004 C 
ENDBRANCH  28  29
ENDBRANCH  26  28
ENDBRANCH  25  26
ENDBRANCH   5  25
BRANCH  11  31
ATOM     31  O   LIG A   1      -8.210   5.198 130.512  0.00  0.00    -0.431 OA
BRANCH  31  32
ATOM     32  C   LIG A   1      -8.615   6.458 130.783  0.00  0.00    +0.306 C 
ATOM     33  C   LIG A   1      -9.906   6.411 131.545  0.00  0.00    +0.136 C 
ATOM     34  O   LIG A   1      -8.034   7.479 130.453  0.00  0.00    -0.251 OA
ENDBRANCH  31  32
ENDBRANCH  11  31
BRANCH  13  35
ATOM     35  O   LIG A   1      -6.373   3.424 126.921  0.00  0.00    -0.434 OA
BRANCH  35  36
ATOM     36  C   LIG A   1      -6.604   3.446 125.576  0.00  0.00    +0.306 C 
ATOM     37  C   LIG A   1      -5.679   4.418 124.905  0.00  0.00    +0.136 C 
ATOM     38  O   LIG A   1      -7.500   2.833 125.009  0.00  0.00    -0.251 OA
ENDBRANCH  35  36
ENDBRANCH  13  35
TORSDOF 12
ENDMDL
MODEL 2
REMARK VINA RESULT:      -7.3      3.439      6.936
REMARK  Name = NuBBE_234
REMARK  18 active torsions:
REMARK  status: ('A' for Active; 'I' for Inactive)
REMARK    1  A    between atoms: C_1  and  C_2
REMARK    2  A    between atoms: C_4  and  C_5
REMARK    3  A    between atoms: C_4  and  C_6
REMARK    4  A    between atoms: C_6  and  C_7
REMARK    5  A    between atoms: C_8  and  C_9
REMARK    6  A    between atoms: C_8  and  C_11
REMARK    7  A    between atoms: C_12  and  O_14
REMARK    8  A    between atoms: O_14  and  C_15
REMARK    9  A    between atoms: C_15  and  C_16
REMARK   10  A    between atoms: C_16  and  C_17
REMARK   11  A    between atoms: C_17  and  C_18
REMARK   12  A    between atoms: C_20  and  O_22
REMARK   13  A    between atoms: C_28  and  O_30
REMARK   14  A    between atoms: O_30  and  C_31
REMARK   15  A    between atoms: C_31  and  C_32
REMARK   16  A    between atoms: C_35  and  O_37
REMARK   17  A    between atoms: O_37  and  C_38
REMARK   18  A    between atoms: C_38  and  C_39
REMARK                            x       y       z     vdW  Elec       q    Type
REMARK                         _______ _______ _______ _____ _____    ______ ____
ROOT
ATOM      1  C   LIG A   1     -11.127   3.993 130.401  0.00  0.00    +0.012 C 
ATOM      2  C   LIG A   1      -9.913   4.452 131.236  0.00  0.00    +0.036 C 
ATOM      3  C   LIG A   1      -8.923   3.279 131.562  0.00  0.00    -0.018 C 
ATOM      4  C   LIG A   1      -9.671   2.245 132.474  0.00  0.00    +0.012 C 
ATOM      5  C   LIG A   1      -9.223   5.704 130.623  0.00  0.00    +0.209 C 
ATOM      6  C   LIG A   1      -7.999   6.188 131.451  0.00  0.00    +0.172 C 
ATOM      7  C   LIG A   1      -6.930   5.093 131.738  0.00  0.00    +0.093 C 
ATOM      8  C   LIG A   1      -7.674   3.859 132.362  0.00  0.00    +0.022 C 
ATOM      9  C   LIG A   1      -8.161   4.234 133.830  0.00  0.00    +0.084 C 
ATOM     10  C   LIG A   1      -5.876   5.450 132.805  0.00  0.00    +0.016 C 
ATOM     11  C   LIG A   1      -4.503   5.044 132.357  0.00  0.00    +0.343 C 
ATOM     12  O   LIG A   1      -4.728   4.399 131.111  0.00  0.00    -0.297 OA
ATOM     13  C   LIG A   1      -5.908   4.987 130.556  0.00  0.00    +0.327 C 
ATOM     14  C   LIG A   1      -6.127   5.744 134.086  0.00  0.00    +0.052 C 
ATOM     15  C   LIG A   1      -7.455   5.360 134.562  0.00  0.00    +0.157 C 
ATOM     16  O   LIG A   1      -7.911   5.870 135.580  0.00  0.00    -0.293 OA
ENDROOT
BRANCH   6  17
ATOM     17  O   LIG A   1      -7.406   7.318 130.800  0.00  0.00    -0.387 OA
ATOM     18  H   LIG A   1      -7.516   7.188 129.840  0.00  0.00    +0.210 HD
ENDBRANCH   6  17
BRANCH   3  19
ATOM     19  C   LIG A   1      -8.574   2.498 130.251  0.00  0.00    +0.035 C 
BRANCH  19  20
ATOM     20  C   LIG A   1      -8.509   0.996 130.382  0.00  0.00    -0.023 C 
ATOM     21  C   LIG A   1      -7.401   0.237 130.508  0.00  0.00    -0.055 C 
ATOM     22  C   LIG A   1      -7.493  -1.262 130.621  0.00  0.00    +0.043 C 
BRANCH  21  23
ATOM     23  C   LIG A   1      -6.062   0.799 130.566  0.00  0.00    -0.005 C 
ATOM     24  C   LIG A   1      -5.394   1.066 131.695  0.00  0.00    +0.008 C 
ENDBRANCH  21  23
ENDBRANCH  19  20
ENDBRANCH   3  19
BRANCH   5  25
ATOM     25  O   LIG A   1     -10.176   6.804 130.731  0.00  0.00    -0.458 OA
BRANCH  25  26
ATOM     26  C   LIG A   1     -10.493   7.514 129.612  0.00  0.00    +0.307 C 
ATOM     27  O   LIG A   1      -9.768   7.700 128.659  0.00  0.00    -0.251 OA
BRANCH  26  28
ATOM     28  C   LIG A   1     -11.918   8.016 129.733  0.00  0.00    +0.120 C 
BRANCH  28  29
ATOM     29  C   LIG A   1     -12.901   6.941 129.300  0.00  0.00    +0.008 C 
ATOM     30  C   LIG A   1     -13.544   7.309 127.971  0.00  0.00    +0.004 C 
ENDBRANCH  28  29
ENDBRANCH  26  28
ENDBRANCH  25  26
ENDBRANCH   5  25
BRANCH  11  31
ATOM     31  O   LIG A   1      -4.032   4.009 133.224  0.00  0.00    -0.431 OA
BRANCH  31  32
ATOM     32  C   LIG A   1      -2.754   3.602 133.063  0.00  0.00    +0.306 C 
ATOM     33  C   LIG A   1      -1.873   4.800 132.869  0.00  0.00    +0.136 C 
ATOM     34  O   LIG A   1      -2.370   2.443 133.059  0.00  0.00    -0.251 OA
ENDBRANCH  31  32
ENDBRANCH  11  31
BRANCH  13  35
ATOM     35  O   LIG A   1      -6.300   4.200 129.451  0.00  0.00    -0.434 OA
BRANCH  35  36
ATOM     36  C   LIG A   1      -5.460   4.404 128.394  0.00  0.00    +0.306 C 
ATOM     37  C   LIG A   1      -5.045   3.092 127.797  0.00  0.00    +0.136 C 
ATOM     38  O   LIG A   1      -5.032   5.496 128.040  0.00  0.00    -0.251 OA
ENDBRANCH  35  36
ENDBRANCH  13  35
TORSDOF 12
ENDMDL
MODEL 3
REMARK VINA RESULT:      -7.3      2.330      6.786
REMARK  Name = NuBBE_234
REMARK  18 active torsions:
REMARK  status: ('A' for Active; 'I' for Inactive)
REMARK    1  A    between atoms: C_1  and  C_2
REMARK    2  A    between atoms: C_4  and  C_5
REMARK    3  A    between atoms: C_4  and  C_6
REMARK    4  A    between atoms: C_6  and  C_7
REMARK    5  A    between atoms: C_8  and  C_9
REMARK    6  A    between atoms: C_8  and  C_11
REMARK    7  A    between atoms: C_12  and  O_14
REMARK    8  A    between atoms: O_14  and  C_15
REMARK    9  A    between atoms: C_15  and  C_16
REMARK   10  A    between atoms: C_16  and  C_17
REMARK   11  A    between atoms: C_17  and  C_18
REMARK   12  A    between atoms: C_20  and  O_22
REMARK   13  A    between atoms: C_28  and  O_30
REMARK   14  A    between atoms: O_30  and  C_31
REMARK   15  A    between atoms: C_31  and  C_32
REMARK   16  A    between atoms: C_35  and  O_37
REMARK   17  A    between atoms: O_37  and  C_38
REMARK   18  A    between atoms: C_38  and  C_39
REMARK                            x       y       z     vdW  Elec       q    Type
REMARK                         _______ _______ _______ _____ _____    ______ ____
ROOT
ATOM      1  C   LIG A   1      -7.527  -0.178 128.215  0.00  0.00    +0.012 C 
ATOM      2  C   LIG A   1      -7.159   1.031 127.330  0.00  0.00    +0.036 C 
ATOM      3  C   LIG A   1      -6.209   0.644 126.142  0.00  0.00    -0.018 C 
ATOM      4  C   LIG A   1      -4.845   0.155 126.743  0.00  0.00    +0.012 C 
ATOM      5  C   LIG A   1      -8.414   1.838 126.892  0.00  0.00    +0.209 C 
ATOM      6  C   LIG A   1      -8.066   3.064 126.001  0.00  0.00    +0.172 C 
ATOM      7  C   LIG A   1      -7.196   2.739 124.752  0.00  0.00    +0.093 C 
ATOM      8  C   LIG A   1      -5.942   1.934 125.247  0.00  0.00    +0.022 C 
ATOM      9  C   LIG A   1      -4.988   2.911 126.066  0.00  0.00    +0.084 C 
ATOM     10  C   LIG A   1      -6.577   3.954 124.033  0.00  0.00    +0.016 C 
ATOM     11  C   LIG A   1      -6.713   3.820 122.544  0.00  0.00    +0.343 C 
ATOM     12  O   LIG A   1      -7.315   2.544 122.370  0.00  0.00    -0.297 OA
ATOM     13  C   LIG A   1      -8.092   2.297 123.546  0.00  0.00    +0.327 C 
ATOM     14  C   LIG A   1      -5.728   4.836 124.573  0.00  0.00    +0.052 C 
ATOM     15  C   LIG A   1      -5.094   4.404 125.817  0.00  0.00    +0.157 C 
ATOM     16  O   LIG A   1      -4.582   5.233 126.562  0.00  0.00    -0.293 OA
ENDROOT
BRANCH   6  17
ATOM     17  O   LIG A   1      -9.277   3.728 125.617  0.00  0.00    -0.387 OA
ATOM     18  H   LIG A   1      -9.100   4.687 125.646  0.00  0.00    +0.210 HD
ENDBRANCH   6  17
BRANCH   3  19
ATOM     19  C   LIG A   1      -6.789  -0.592 125.376  0.00  0.00    +0.035 C 
BRANCH  19  20
ATOM     20  C   LIG A   1      -5.773  -1.483 124.706  0.00  0.00    -0.023 C 
ATOM     21  C   LIG A   1      -5.952  -2.755 124.294  0.00  0.00    -0.055 C 
ATOM     22  C   LIG A   1      -4.834  -3.527 123.644  0.00  0.00    +0.043 C 
BRANCH  21  23
ATOM     23  C   LIG A   1      -7.218  -3.456 124.425  0.00  0.00    -0.005 C 
ATOM     24  C   LIG A   1      -8.323  -3.174 123.723  0.00  0.00    +0.008 C 
ENDBRANCH  21  23
ENDBRANCH  19  20
ENDBRANCH   3  19
BRANCH   5  25
ATOM     25  O   LIG A   1      -8.975   2.431 128.102  0.00  0.00    -0.458 OA
BRANCH  25  26
ATOM     26  C   LIG A   1      -8.267   3.398 128.750  0.00  0.00    +0.307 C 
ATOM     27  O   LIG A   1      -7.915   4.458 128.278  0.00  0.00    -0.251 OA
BRANCH  26  28
ATOM     28  C   LIG A   1      -8.013   2.952 130.176  0.00  0.00    +0.120 C 
BRANCH  28  29
ATOM     29  C   LIG A   1      -9.065   1.949 130.618  0.00  0.00    +0.008 C 
ATOM     30  C   LIG A   1      -9.695   2.380 131.934  0.00  0.00    +0.004 C 
ENDBRANCH  28  29
ENDBRANCH  26  28
ENDBRANCH  25  26
ENDBRANCH   5  25
BRANCH  11  31
ATOM     31  O   LIG A   1      -5.406   3.687 121.981  0.00  0.00    -0.431 OA
BRANCH  31  32
ATOM     32  C   LIG A   1      -4.974   4.685 121.180  0.00  0.00    +0.306 C 
ATOM     33  C   LIG A   1      -5.700   4.618 119.868  0.00  0.00    +0.136 C 
ATOM     34  O   LIG A   1      -4.119   5.508 121.464  0.00  0.00    -0.251 OA
ENDBRANCH  31  32
ENDBRANCH  11  31
BRANCH  13  35
ATOM     35  O   LIG A   1      -8.493   0.944 123.519  0.00  0.00    -0.434 OA
BRANCH  35  36
ATOM     36  C   LIG A   1      -9.853   0.846 123.449  0.00  0.00    +0.306 C 
ATOM     37  C   LIG A   1     -10.258   0.079 122.226  0.00  0.00    +0.136 C 
ATOM     38  O   LIG A   1     -10.634   1.386 124.223  0.00  0.00    -0.251 OA
ENDBRANCH  35  36
ENDBRANCH  13  35
TORSDOF 12
ENDMDL
MODEL 4
REMARK VINA RESULT:      -7.0      2.566      4.383
REMARK  Name = NuBBE_234
REMARK  18 active torsions:
REMARK  status: ('A' for Active; 'I' for Inactive)
REMARK    1  A    between atoms: C_1  and  C_2
REMARK    2  A    between atoms: C_4  and  C_5
REMARK    3  A    between atoms: C_4  and  C_6
REMARK    4  A    between atoms: C_6  and  C_7
REMARK    5  A    between atoms: C_8  and  C_9
REMARK    6  A    between atoms: C_8  and  C_11
REMARK    7  A    between atoms: C_12  and  O_14
REMARK    8  A    between atoms: O_14  and  C_15
REMARK    9  A    between atoms: C_15  and  C_16
REMARK   10  A    between atoms: C_16  and  C_17
REMARK   11  A    between atoms: C_17  and  C_18
REMARK   12  A    between atoms: C_20  and  O_22
REMARK   13  A    between atoms: C_28  and  O_30
REMARK   14  A    between atoms: O_30  and  C_31
REMARK   15  A    between atoms: C_31  and  C_32
REMARK   16  A    between atoms: C_35  and  O_37
REMARK   17  A    between atoms: O_37  and  C_38
REMARK   18  A    between atoms: C_38  and  C_39
REMARK                            x       y       z     vdW  Elec       q    Type
REMARK                         _______ _______ _______ _____ _____    ______ ____
ROOT
ATOM      1  C   LIG A   1      -4.821   2.879 132.368  0.00  0.00    +0.012 C 
ATOM      2  C   LIG A   1      -6.135   3.601 132.005  0.00  0.00    +0.036 C 
ATOM      3  C   LIG A   1      -5.901   4.884 131.133  0.00  0.00    -0.018 C 
ATOM      4  C   LIG A   1      -5.096   5.921 131.992  0.00  0.00    +0.012 C 
ATOM      5  C   LIG A   1      -7.193   2.625 131.415  0.00  0.00    +0.209 C 
ATOM      6  C   LIG A   1      -8.529   3.331 131.046  0.00  0.00    +0.172 C 
ATOM      7  C   LIG A   1      -8.379   4.565 130.108  0.00  0.00    +0.093 C 
ATOM      8  C   LIG A   1      -7.310   5.519 130.751  0.00  0.00    +0.022 C 
ATOM      9  C   LIG A   1      -7.925   6.178 132.063  0.00  0.00    +0.084 C 
ATOM     10  C   LIG A   1      -9.626   5.463 129.979  0.00  0.00    +0.016 C 
ATOM     11  C   LIG A   1      -9.860   5.850 128.549  0.00  0.00    +0.343 C 
ATOM     12  O   LIG A   1      -8.759   5.278 127.856  0.00  0.00    -0.297 OA
ATOM     13  C   LIG A   1      -8.361   4.125 128.606  0.00  0.00    +0.327 C 
ATOM     14  C   LIG A   1     -10.228   6.116 130.980  0.00  0.00    +0.052 C 
ATOM     15  C   LIG A   1      -9.434   6.248 132.201  0.00  0.00    +0.157 C 
ATOM     16  O   LIG A   1      -9.987   6.512 133.264  0.00  0.00    -0.293 OA
ENDROOT
BRANCH   6  17
ATOM     17  O   LIG A   1      -9.430   2.371 130.481  0.00  0.00    -0.387 OA
ATOM     18  H   LIG A   1     -10.335   2.700 130.638  0.00  0.00    +0.210 HD
ENDBRANCH   6  17
BRANCH   3  19
ATOM     19  C   LIG A   1      -4.971   4.541 129.921  0.00  0.00    +0.035 C 
BRANCH  19  20
ATOM     20  C   LIG A   1      -3.974   5.607 129.539  0.00  0.00    -0.023 C 
ATOM     21  C   LIG A   1      -3.174   5.621 128.453  0.00  0.00    -0.055 C 
ATOM     22  C   LIG A   1      -2.215   6.757 128.207  0.00  0.00    +0.043 C 
BRANCH  21  23
ATOM     23  C   LIG A   1      -3.191   4.574 127.446  0.00  0.00    -0.005 C 
ATOM     24  C   LIG A   1      -2.322   3.556 127.388  0.00  0.00    +0.008 C 
ENDBRANCH  21  23
ENDBRANCH  19  20
ENDBRANCH   3  19
BRANCH   5  25
ATOM     25  O   LIG A   1      -7.566   1.710 132.489  0.00  0.00    -0.458 OA
BRANCH  25  26
ATOM     26  C   LIG A   1      -7.332   0.378 132.330  0.00  0.00    +0.307 C 
ATOM     27  O   LIG A   1      -7.474  -0.475 133.180  0.00  0.00    -0.251 OA
BRANCH  26  28
ATOM     28  C   LIG A   1      -6.893   0.121 130.902  0.00  0.00    +0.120 C 
BRANCH  28  29
ATOM     29  C   LIG A   1      -7.857  -0.827 130.209  0.00  0.00    +0.008 C 
ATOM     30  C   LIG A   1      -7.239  -2.210 130.069  0.00  0.00    +0.004 C 
ENDBRANCH  28  29
ENDBRANCH  26  28
ENDBRANCH  25  26
ENDBRANCH   5  25
BRANCH  11  31
ATOM     31  O   LIG A   1      -9.674   7.263 128.426  0.00  0.00    -0.431 OA
BRANCH  31  32
ATOM     32  C   LIG A   1     -10.709   7.982 127.941  0.00  0.00    +0.306 C 
ATOM     33  C   LIG A   1     -10.943   7.609 126.506  0.00  0.00    +0.136 C 
ATOM     34  O   LIG A   1     -11.350   8.816 128.559  0.00  0.00    -0.251 OA
ENDBRANCH  31  32
ENDBRANCH  11  31
BRANCH  13  35
ATOM     35  O   LIG A   1      -7.123   3.686 128.090  0.00  0.00    -0.434 OA
BRANCH  35  36
ATOM     36  C   LIG A   1      -7.226   2.412 127.610  0.00  0.00    +0.306 C 
ATOM     37  C   LIG A   1      -6.077   2.105 126.696  0.00  0.00    +0.136 C 
ATOM     38  O   LIG A   1      -8.170   1.659 127.818  0.00  0.00    -0.251 OA
ENDBRANCH  35  36
ENDBRANCH  13  35
TORSDOF 12
ENDMDL
MODEL 5
REMARK VINA RESULT:      -7.0      2.652      5.775
REMARK  Name = NuBBE_234
REMARK  18 active torsions:
REMARK  status: ('A' for Active; 'I' for Inactive)
REMARK    1  A    between atoms: C_1  and  C_2
REMARK    2  A    between atoms: C_4  and  C_5
REMARK    3  A    between atoms: C_4  and  C_6
REMARK    4  A    between atoms: C_6  and  C_7
REMARK    5  A    between atoms: C_8  and  C_9
REMARK    6  A    between atoms: C_8  and  C_11
REMARK    7  A    between atoms: C_12  and  O_14
REMARK    8  A    between atoms: O_14  and  C_15
REMARK    9  A    between atoms: C_15  and  C_16
REMARK   10  A    between atoms: C_16  and  C_17
REMARK   11  A    between atoms: C_17  and  C_18
REMARK   12  A    between atoms: C_20  and  O_22
REMARK   13  A    between atoms: C_28  and  O_30
REMARK   14  A    between atoms: O_30  and  C_31
REMARK   15  A    between atoms: C_31  and  C_32
REMARK   16  A    between atoms: C_35  and  O_37
REMARK   17  A    between atoms: O_37  and  C_38
REMARK   18  A    between atoms: C_38  and  C_39
REMARK                            x       y       z     vdW  Elec       q    Type
REMARK                         _______ _______ _______ _____ _____    ______ ____
ROOT
ATOM      1  C   LIG A   1      -7.921  -3.180 129.195  0.00  0.00    +0.012 C 
ATOM      2  C   LIG A   1      -7.044  -1.971 129.584  0.00  0.00    +0.036 C 
ATOM      3  C   LIG A   1      -5.891  -1.703 128.553  0.00  0.00    -0.018 C 
ATOM      4  C   LIG A   1      -4.917  -2.932 128.576  0.00  0.00    +0.012 C 
ATOM      5  C   LIG A   1      -7.896  -0.713 129.914  0.00  0.00    +0.209 C 
ATOM      6  C   LIG A   1      -7.032   0.517 130.313  0.00  0.00    +0.172 C 
ATOM      7  C   LIG A   1      -5.921   0.895 129.290  0.00  0.00    +0.093 C 
ATOM      8  C   LIG A   1      -5.087  -0.403 128.998  0.00  0.00    +0.022 C 
ATOM      9  C   LIG A   1      -4.232  -0.770 130.290  0.00  0.00    +0.084 C 
ATOM     10  C   LIG A   1      -4.861   1.895 129.793  0.00  0.00    +0.016 C 
ATOM     11  C   LIG A   1      -4.569   2.933 128.750  0.00  0.00    +0.343 C 
ATOM     12  O   LIG A   1      -5.358   2.532 127.639  0.00  0.00    -0.297 OA
ATOM     13  C   LIG A   1      -6.488   1.835 128.173  0.00  0.00    +0.327 C 
ATOM     14  C   LIG A   1      -4.040   1.709 130.833  0.00  0.00    +0.052 C 
ATOM     15  C   LIG A   1      -3.923   0.326 131.291  0.00  0.00    +0.157 C 
ATOM     16  O   LIG A   1      -3.487   0.088 132.414  0.00  0.00    -0.293 OA
ENDROOT
BRANCH   6  17
ATOM     17  O   LIG A   1      -7.891   1.636 130.566  0.00  0.00    -0.387 OA
ATOM     18  H   LIG A   1      -8.726   1.470 130.089  0.00  0.00    +0.210 HD
ENDBRANCH   6  17
BRANCH   3  19
ATOM     19  C   LIG A   1      -6.474  -1.665 127.101  0.00  0.00    +0.035 C 
BRANCH  19  20
ATOM     20  C   LIG A   1      -5.592  -2.251 126.026  0.00  0.00    -0.023 C 
ATOM     21  C   LIG A   1      -5.989  -2.819 124.869  0.00  0.00    -0.055 C 
ATOM     22  C   LIG A   1      -4.987  -3.372 123.890  0.00  0.00    +0.043 C 
BRANCH  21  23
ATOM     23  C   LIG A   1      -7.384  -2.917 124.475  0.00  0.00    -0.005 C 
ATOM     24  C   LIG A   1      -8.198  -3.931 124.798  0.00  0.00    +0.008 C 
ENDBRANCH  21  23
ENDBRANCH  19  20
ENDBRANCH   3  19
BRANCH   5  25
ATOM     25  O   LIG A   1      -8.648  -1.021 131.127  0.00  0.00    -0.458 OA
BRANCH  25  26
ATOM     26  C   LIG A   1      -8.000  -1.006 132.325  0.00  0.00    +0.307 C 
ATOM     27  O   LIG A   1      -7.771  -0.024 132.997  0.00  0.00    -0.251 OA
BRANCH  26  28
ATOM     28  C   LIG A   1      -7.635  -2.427 132.706  0.00  0.00    +0.120 C 
BRANCH  28  29
ATOM     29  C   LIG A   1      -6.153  -2.530 133.027  0.00  0.00    +0.008 C 
ATOM     30  C   LIG A   1      -5.562  -3.796 132.424  0.00  0.00    +0.004 C 
ENDBRANCH  28  29
ENDBRANCH  26  28
ENDBRANCH  25  26
ENDBRANCH   5  25
BRANCH  11  31
ATOM     31  O   LIG A   1      -3.216   2.770 128.315  0.00  0.00    -0.431 OA
BRANCH  31  32
ATOM     32  C   LIG A   1      -2.715   3.714 127.489  0.00  0.00    +0.306 C 
ATOM     33  C   LIG A   1      -1.727   3.081 126.554  0.00  0.00    +0.136 C 
ATOM     34  O   LIG A   1      -3.003   4.900 127.504  0.00  0.00    -0.251 OA
ENDBRANCH  31  32
ENDBRANCH  11  31
BRANCH  13  35
ATOM     35  O   LIG A   1      -7.152   1.208 127.096  0.00  0.00    -0.434 OA
BRANCH  35  36
ATOM     36  C   LIG A   1      -8.492   1.463 127.143  0.00  0.00    +0.306 C 
ATOM     37  C   LIG A   1      -9.204   0.716 126.055  0.00  0.00    +0.136 C 
ATOM     38  O   LIG A   1      -9.027   2.261 127.904  0.00  0.00    -0.251 OA
ENDBRANCH  35  36
ENDBRANCH  13  35
TORSDOF 12
ENDMDL
MODEL 6
REMARK VINA RESULT:      -6.8      2.576      5.784
REMARK  Name = NuBBE_234
REMARK  18 active torsions:
REMARK  status: ('A' for Active; 'I' for Inactive)
REMARK    1  A    between atoms: C_1  and  C_2
REMARK    2  A    between atoms: C_4  and  C_5
REMARK    3  A    between atoms: C_4  and  C_6
REMARK    4  A    between atoms: C_6  and  C_7
REMARK    5  A    between atoms: C_8  and  C_9
REMARK    6  A    between atoms: C_8  and  C_11
REMARK    7  A    between atoms: C_12  and  O_14
REMARK    8  A    between atoms: O_14  and  C_15
REMARK    9  A    between atoms: C_15  and  C_16
REMARK   10  A    between atoms: C_16  and  C_17
REMARK   11  A    between atoms: C_17  and  C_18
REMARK   12  A    between atoms: C_20  and  O_22
REMARK   13  A    between atoms: C_28  and  O_30
REMARK   14  A    between atoms: O_30  and  C_31
REMARK   15  A    between atoms: C_31  and  C_32
REMARK   16  A    between atoms: C_35  and  O_37
REMARK   17  A    between atoms: O_37  and  C_38
REMARK   18  A    between atoms: C_38  and  C_39
REMARK                            x       y       z     vdW  Elec       q    Type
REMARK                         _______ _______ _______ _____ _____    ______ ____
ROOT
ATOM      1  C   LIG A   1      -8.507   1.416 127.795  0.00  0.00    +0.012 C 
ATOM      2  C   LIG A   1      -7.097   2.028 127.919  0.00  0.00    +0.036 C 
ATOM      3  C   LIG A   1      -7.127   3.535 128.357  0.00  0.00    -0.018 C 
ATOM      4  C   LIG A   1      -7.826   4.362 127.223  0.00  0.00    +0.012 C 
ATOM      5  C   LIG A   1      -6.150   1.143 128.778  0.00  0.00    +0.209 C 
ATOM      6  C   LIG A   1      -4.719   1.739 128.913  0.00  0.00    +0.172 C 
ATOM      7  C   LIG A   1      -4.669   3.208 129.429  0.00  0.00    +0.093 C 
ATOM      8  C   LIG A   1      -5.632   4.058 128.526  0.00  0.00    +0.022 C 
ATOM      9  C   LIG A   1      -4.993   4.198 127.074  0.00  0.00    +0.084 C 
ATOM     10  C   LIG A   1      -3.312   3.924 129.276  0.00  0.00    +0.016 C 
ATOM     11  C   LIG A   1      -2.971   4.691 130.520  0.00  0.00    +0.343 C 
ATOM     12  O   LIG A   1      -4.106   4.510 131.355  0.00  0.00    -0.297 OA
ATOM     13  C   LIG A   1      -4.681   3.250 130.994  0.00  0.00    +0.327 C 
ATOM     14  C   LIG A   1      -2.673   4.155 128.123  0.00  0.00    +0.052 C 
ATOM     15  C   LIG A   1      -3.495   4.018 126.921  0.00  0.00    +0.157 C 
ATOM     16  O   LIG A   1      -2.957   3.870 125.828  0.00  0.00    -0.293 OA
ENDROOT
BRANCH   6  17
ATOM     17  O   LIG A   1      -3.927   0.882 129.744  0.00  0.00    -0.387 OA
ATOM     18  H   LIG A   1      -3.759   1.364 130.576  0.00  0.00    +0.210 HD
ENDBRANCH   6  17
BRANCH   3  19
ATOM     19  C   LIG A   1      -8.040   3.705 129.616  0.00  0.00    +0.035 C 
BRANCH  19  20
ATOM     20  C   LIG A   1      -8.924   4.928 129.623  0.00  0.00    -0.023 C 
ATOM     21  C   LIG A   1      -8.782   6.030 130.387  0.00  0.00    -0.055 C 
ATOM     22  C   LIG A   1      -9.755   7.176 130.289  0.00  0.00    +0.043 C 
BRANCH  21  23
ATOM     23  C   LIG A   1      -7.688   6.203 131.328  0.00  0.00    -0.005 C 
ATOM     24  C   LIG A   1      -6.568   6.894 131.078  0.00  0.00    +0.008 C 
ENDBRANCH  21  23
ENDBRANCH  19  20
ENDBRANCH   3  19
BRANCH   5  25
ATOM     25  O   LIG A   1      -5.944  -0.096 128.035  0.00  0.00    -0.458 OA
BRANCH  25  26
ATOM     26  C   LIG A   1      -5.888  -1.273 128.719  0.00  0.00    +0.307 C 
ATOM     27  O   LIG A   1      -4.879  -1.859 129.046  0.00  0.00    -0.251 OA
BRANCH  26  28
ATOM     28  C   LIG A   1      -7.299  -1.724 129.039  0.00  0.00    +0.120 C 
BRANCH  28  29
ATOM     29  C   LIG A   1      -7.930  -2.403 127.834  0.00  0.00    +0.008 C 
ATOM     30  C   LIG A   1      -8.681  -3.656 128.259  0.00  0.00    +0.004 C 
ENDBRANCH  28  29
ENDBRANCH  26  28
ENDBRANCH  25  26
ENDBRANCH   5  25
BRANCH  11  31
ATOM     31  O   LIG A   1      -2.967   6.086 130.205  0.00  0.00    -0.431 OA
BRANCH  31  32
ATOM     32  C   LIG A   1      -2.530   6.934 131.161  0.00  0.00    +0.306 C 
ATOM     33  C   LIG A   1      -1.149   6.531 131.587  0.00  0.00    +0.136 C 
ATOM     34  O   LIG A   1      -3.157   7.874 131.622  0.00  0.00    -0.251 OA
ENDBRANCH  31  32
ENDBRANCH  11  31
BRANCH  13  35
ATOM     35  O   LIG A   1      -5.943   3.160 131.620  0.00  0.00    -0.434 OA
BRANCH  35  36
ATOM     36  C   LIG A   1      -6.004   2.057 132.423  0.00  0.00    +0.306 C 
ATOM     37  C   LIG A   1      -7.180   2.152 133.349  0.00  0.00    +0.136 C 
ATOM     38  O   LIG A   1      -5.167   1.163 132.450  0.00  0.00    -0.251 OA
ENDBRANCH  35  36
ENDBRANCH  13  35
TORSDOF 12
ENDMDL
MODEL 7
REMARK VINA RESULT:      -6.8      2.304      3.991
REMARK  Name = NuBBE_234
REMARK  18 active torsions:
REMARK  status: ('A' for Active; 'I' for Inactive)
REMARK    1  A    between atoms: C_1  and  C_2
REMARK    2  A    between atoms: C_4  and  C_5
REMARK    3  A    between atoms: C_4  and  C_6
REMARK    4  A    between atoms: C_6  and  C_7
REMARK    5  A    between atoms: C_8  and  C_9
REMARK    6  A    between atoms: C_8  and  C_11
REMARK    7  A    between atoms: C_12  and  O_14
REMARK    8  A    between atoms: O_14  and  C_15
REMARK    9  A    between atoms: C_15  and  C_16
REMARK   10  A    between atoms: C_16  and  C_17
REMARK   11  A    between atoms: C_17  and  C_18
REMARK   12  A    between atoms: C_20  and  O_22
REMARK   13  A    between atoms: C_28  and  O_30
REMARK   14  A    between atoms: O_30  and  C_31
REMARK   15  A    between atoms: C_31  and  C_32
REMARK   16  A    between atoms: C_35  and  O_37
REMARK   17  A    between atoms: O_37  and  C_38
REMARK   18  A    between atoms: C_38  and  C_39
REMARK                            x       y       z     vdW  Elec       q    Type
REMARK                         _______ _______ _______ _____ _____    ______ ____
ROOT
ATOM      1  C   LIG A   1      -7.642  -0.069 125.692  0.00  0.00    +0.012 C 
ATOM      2  C   LIG A   1      -7.716   1.110 126.684  0.00  0.00    +0.036 C 
ATOM      3  C   LIG A   1      -7.009   0.798 128.050  0.00  0.00    -0.018 C 
ATOM      4  C   LIG A   1      -7.790  -0.367 128.752  0.00  0.00    +0.012 C 
ATOM      5  C   LIG A   1      -7.263   2.448 126.034  0.00  0.00    +0.209 C 
ATOM      6  C   LIG A   1      -7.332   3.653 127.015  0.00  0.00    +0.172 C 
ATOM      7  C   LIG A   1      -6.576   3.446 128.360  0.00  0.00    +0.093 C 
ATOM      8  C   LIG A   1      -7.074   2.091 128.977  0.00  0.00    +0.022 C 
ATOM      9  C   LIG A   1      -8.577   2.267 129.471  0.00  0.00    +0.084 C 
ATOM     10  C   LIG A   1      -6.883   4.476 129.466  0.00  0.00    +0.016 C 
ATOM     11  C   LIG A   1      -5.623   4.915 130.151  0.00  0.00    +0.343 C 
ATOM     12  O   LIG A   1      -4.610   4.127 129.540  0.00  0.00    -0.297 OA
ATOM     13  C   LIG A   1      -5.066   3.833 128.216  0.00  0.00    +0.327 C 
ATOM     14  C   LIG A   1      -8.083   4.706 130.011  0.00  0.00    +0.052 C 
ATOM     15  C   LIG A   1      -9.082   3.665 129.771  0.00  0.00    +0.157 C 
ATOM     16  O   LIG A   1     -10.274   3.917 129.920  0.00  0.00    -0.293 OA
ENDROOT
BRANCH   6  17
ATOM     17  O   LIG A   1      -6.868   4.833 126.348  0.00  0.00    -0.387 OA
ATOM     18  H   LIG A   1      -6.612   5.472 127.039  0.00  0.00    +0.210 HD
ENDBRANCH   6  17
BRANCH   3  19
ATOM     19  C   LIG A   1      -5.572   0.234 127.789  0.00  0.00    +0.035 C 
BRANCH  19  20
ATOM     20  C   LIG A   1      -5.086  -0.800 128.774  0.00  0.00    -0.023 C 
ATOM     21  C   LIG A   1      -4.441  -0.575 129.937  0.00  0.00    -0.055 C 
ATOM     22  C   LIG A   1      -4.006  -1.716 130.819  0.00  0.00    +0.043 C 
BRANCH  21  23
ATOM     23  C   LIG A   1      -4.142   0.759 130.429  0.00  0.00    -0.005 C 
ATOM     24  C   LIG A   1      -4.355   1.176 131.684  0.00  0.00    +0.008 C 
ENDBRANCH  21  23
ENDBRANCH  19  20
ENDBRANCH   3  19
BRANCH   5  25
ATOM     25  O   LIG A   1      -8.250   2.773 125.009  0.00  0.00    -0.458 OA
BRANCH  25  26
ATOM     26  C   LIG A   1      -7.820   3.088 123.756  0.00  0.00    +0.307 C 
ATOM     27  O   LIG A   1      -6.796   3.678 123.482  0.00  0.00    -0.251 OA
BRANCH  26  28
ATOM     28  C   LIG A   1      -8.814   2.555 122.744  0.00  0.00    +0.120 C 
BRANCH  28  29
ATOM     29  C   LIG A   1      -9.840   1.662 123.422  0.00  0.00    +0.008 C 
ATOM     30  C   LIG A   1     -10.170   0.464 122.544  0.00  0.00    +0.004 C 
ENDBRANCH  28  29
ENDBRANCH  26  28
ENDBRANCH  25  26
ENDBRANCH   5  25
BRANCH  11  31
ATOM     31  O   LIG A   1      -5.666   4.466 131.508  0.00  0.00    -0.431 OA
BRANCH  31  32
ATOM     32  C   LIG A   1      -4.824   5.060 132.382  0.00  0.00    +0.306 C 
ATOM     33  C   LIG A   1      -4.784   6.534 132.108  0.00  0.00    +0.136 C 
ATOM     34  O   LIG A   1      -4.182   4.493 133.252  0.00  0.00    -0.251 OA
ENDBRANCH  31  32
ENDBRANCH  11  31
BRANCH  13  35
ATOM     35  O   LIG A   1      -4.209   2.850 127.677  0.00  0.00    -0.434 OA
BRANCH  35  36
ATOM     36  C   LIG A   1      -3.520   3.345 126.607  0.00  0.00    +0.306 C 
ATOM     37  C   LIG A   1      -2.045   3.170 126.810  0.00  0.00    +0.136 C 
ATOM     38  O   LIG A   1      -4.027   3.934 125.660  0.00  0.00    -0.251 OA
ENDBRANCH  35  36
ENDBRANCH  13  35
TORSDOF 12
ENDMDL
MODEL 8
REMARK VINA RESULT:      -6.8      2.921      7.457
REMARK  Name = NuBBE_234
REMARK  18 active torsions:
REMARK  status: ('A' for Active; 'I' for Inactive)
REMARK    1  A    between atoms: C_1  and  C_2
REMARK    2  A    between atoms: C_4  and  C_5
REMARK    3  A    between atoms: C_4  and  C_6
REMARK    4  A    between atoms: C_6  and  C_7
REMARK    5  A    between atoms: C_8  and  C_9
REMARK    6  A    between atoms: C_8  and  C_11
REMARK    7  A    between atoms: C_12  and  O_14
REMARK    8  A    between atoms: O_14  and  C_15
REMARK    9  A    between atoms: C_15  and  C_16
REMARK   10  A    between atoms: C_16  and  C_17
REMARK   11  A    between atoms: C_17  and  C_18
REMARK   12  A    between atoms: C_20  and  O_22
REMARK   13  A    between atoms: C_28  and  O_30
REMARK   14  A    between atoms: O_30  and  C_31
REMARK   15  A    between atoms: C_31  and  C_32
REMARK   16  A    between atoms: C_35  and  O_37
REMARK   17  A    between atoms: O_37  and  C_38
REMARK   18  A    between atoms: C_38  and  C_39
REMARK                            x       y       z     vdW  Elec       q    Type
REMARK                         _______ _______ _______ _____ _____    ______ ____
ROOT
ATOM      1  C   LIG A   1      -9.398   3.833 133.537  0.00  0.00    +0.012 C 
ATOM      2  C   LIG A   1      -8.632   3.347 132.289  0.00  0.00    +0.036 C 
ATOM      3  C   LIG A   1      -9.125   4.039 130.969  0.00  0.00    -0.018 C 
ATOM      4  C   LIG A   1     -10.613   3.614 130.718  0.00  0.00    +0.012 C 
ATOM      5  C   LIG A   1      -7.091   3.404 132.491  0.00  0.00    +0.209 C 
ATOM      6  C   LIG A   1      -6.298   2.915 131.245  0.00  0.00    +0.172 C 
ATOM      7  C   LIG A   1      -6.675   3.622 129.911  0.00  0.00    +0.093 C 
ATOM      8  C   LIG A   1      -8.234   3.530 129.751  0.00  0.00    +0.022 C 
ATOM      9  C   LIG A   1      -8.635   2.020 129.445  0.00  0.00    +0.084 C 
ATOM     10  C   LIG A   1      -6.145   2.954 128.626  0.00  0.00    +0.016 C 
ATOM     11  C   LIG A   1      -5.596   3.979 127.678  0.00  0.00    +0.343 C 
ATOM     12  O   LIG A   1      -5.855   5.217 128.327  0.00  0.00    -0.297 OA
ATOM     13  C   LIG A   1      -5.859   4.947 129.732  0.00  0.00    +0.327 C 
ATOM     14  C   LIG A   1      -6.428   1.713 128.215  0.00  0.00    +0.052 C 
ATOM     15  C   LIG A   1      -7.586   1.095 128.860  0.00  0.00    +0.157 C 
ATOM     16  O   LIG A   1      -7.730  -0.123 128.819  0.00  0.00    -0.293 OA
ENDROOT
BRANCH   6  17
ATOM     17  O   LIG A   1      -4.894   3.032 131.503  0.00  0.00    -0.387 OA
ATOM     18  H   LIG A   1      -4.699   2.484 132.287  0.00  0.00    +0.210 HD
ENDBRANCH   6  17
BRANCH   3  19
ATOM     19  C   LIG A   1      -9.165   5.591 131.165  0.00  0.00    +0.035 C 
BRANCH  19  20
ATOM     20  C   LIG A   1     -10.535   6.222 131.115  0.00  0.00    -0.023 C 
ATOM     21  C   LIG A   1     -10.955   7.188 130.273  0.00  0.00    -0.055 C 
ATOM     22  C   LIG A   1     -12.359   7.729 130.348  0.00  0.00    +0.043 C 
BRANCH  21  23
ATOM     23  C   LIG A   1     -10.110   7.754 129.235  0.00  0.00    -0.005 C 
ATOM     24  C   LIG A   1     -10.561   8.387 128.144  0.00  0.00    +0.008 C 
ENDBRANCH  21  23
ENDBRANCH  19  20
ENDBRANCH   3  19
BRANCH   5  25
ATOM     25  O   LIG A   1      -6.766   2.423 133.521  0.00  0.00    -0.458 OA
BRANCH  25  26
ATOM     26  C   LIG A   1      -5.977   2.802 134.565  0.00  0.00    +0.307 C 
ATOM     27  O   LIG A   1      -5.391   2.056 135.320  0.00  0.00    -0.251 OA
BRANCH  26  28
ATOM     28  C   LIG A   1      -5.921   4.316 134.618  0.00  0.00    +0.120 C 
BRANCH  28  29
ATOM     29  C   LIG A   1      -6.276   4.815 136.009  0.00  0.00    +0.008 C 
ATOM     30  C   LIG A   1      -7.435   5.799 135.944  0.00  0.00    +0.004 C 
ENDBRANCH  28  29
ENDBRANCH  26  28
ENDBRANCH  25  26
ENDBRANCH   5  25
BRANCH  11  31
ATOM     31  O   LIG A   1      -6.418   4.001 126.509  0.00  0.00    -0.431 OA
BRANCH  31  32
ATOM     32  C   LIG A   1      -5.795   3.913 125.314  0.00  0.00    +0.306 C 
ATOM     33  C   LIG A   1      -4.312   3.844 125.532  0.00  0.00    +0.136 C 
ATOM     34  O   LIG A   1      -6.342   3.906 124.222  0.00  0.00    -0.251 OA
ENDBRANCH  31  32
ENDBRANCH  11  31
BRANCH  13  35
ATOM     35  O   LIG A   1      -6.362   6.092 130.386  0.00  0.00    -0.434 OA
BRANCH  35  36
ATOM     36  C   LIG A   1      -5.348   6.951 130.702  0.00  0.00    +0.306 C 
ATOM     37  C   LIG A   1      -4.726   6.564 132.010  0.00  0.00    +0.136 C 
ATOM     38  O   LIG A   1      -5.050   7.949 130.057  0.00  0.00    -0.251 OA
ENDBRANCH  35  36
ENDBRANCH  13  35
TORSDOF 12
ENDMDL
MODEL 9
REMARK VINA RESULT:      -6.7      2.385      4.108
REMARK  Name = NuBBE_234
REMARK  18 active torsions:
REMARK  status: ('A' for Active; 'I' for Inactive)
REMARK    1  A    between atoms: C_1  and  C_2
REMARK    2  A    between atoms: C_4  and  C_5
REMARK    3  A    between atoms: C_4  and  C_6
REMARK    4  A    between atoms: C_6  and  C_7
REMARK    5  A    between atoms: C_8  and  C_9
REMARK    6  A    between atoms: C_8  and  C_11
REMARK    7  A    between atoms: C_12  and  O_14
REMARK    8  A    between atoms: O_14  and  C_15
REMARK    9  A    between atoms: C_15  and  C_16
REMARK   10  A    between atoms: C_16  and  C_17
REMARK   11  A    between atoms: C_17  and  C_18
REMARK   12  A    between atoms: C_20  and  O_22
REMARK   13  A    between atoms: C_28  and  O_30
REMARK   14  A    between atoms: O_30  and  C_31
REMARK   15  A    between atoms: C_31  and  C_32
REMARK   16  A    between atoms: C_35  and  O_37
REMARK   17  A    between atoms: O_37  and  C_38
REMARK   18  A    between atoms: C_38  and  C_39
REMARK                            x       y       z     vdW  Elec       q    Type
REMARK                         _______ _______ _______ _____ _____    ______ ____
ROOT
ATOM      1  C   LIG A   1      -4.698   3.831 126.680  0.00  0.00    +0.012 C 
ATOM      2  C   LIG A   1      -5.553   2.974 127.637  0.00  0.00    +0.036 C 
ATOM      3  C   LIG A   1      -5.410   3.417 129.136  0.00  0.00    -0.018 C 
ATOM      4  C   LIG A   1      -3.929   3.164 129.584  0.00  0.00    +0.012 C 
ATOM      5  C   LIG A   1      -7.026   2.855 127.155  0.00  0.00    +0.209 C 
ATOM      6  C   LIG A   1      -7.907   1.992 128.104  0.00  0.00    +0.172 C 
ATOM      7  C   LIG A   1      -7.882   2.431 129.598  0.00  0.00    +0.093 C 
ATOM      8  C   LIG A   1      -6.377   2.527 130.036  0.00  0.00    +0.022 C 
ATOM      9  C   LIG A   1      -5.764   1.061 130.115  0.00  0.00    +0.084 C 
ATOM     10  C   LIG A   1      -8.481   1.424 130.600  0.00  0.00    +0.016 C 
ATOM     11  C   LIG A   1      -9.350   2.123 131.604  0.00  0.00    +0.343 C 
ATOM     12  O   LIG A   1      -9.218   3.498 131.271  0.00  0.00    -0.297 OA
ATOM     13  C   LIG A   1      -8.941   3.552 129.868  0.00  0.00    +0.327 C 
ATOM     14  C   LIG A   1      -8.048   0.176 130.811  0.00  0.00    +0.052 C 
ATOM     15  C   LIG A   1      -6.710  -0.112 130.296  0.00  0.00    +0.157 C 
ATOM     16  O   LIG A   1      -6.357  -1.274 130.127  0.00  0.00    -0.293 OA
ENDROOT
BRANCH   6  17
ATOM     17  O   LIG A   1      -9.250   1.963 127.606  0.00  0.00    -0.387 OA
ATOM     18  H   LIG A   1      -9.200   2.076 126.638  0.00  0.00    +0.210 HD
ENDBRANCH   6  17
BRANCH   3  19
ATOM     19  C   LIG A   1      -5.620   4.964 129.257  0.00  0.00    +0.035 C 
BRANCH  19  20
ATOM     20  C   LIG A   1      -4.873   5.640 130.380  0.00  0.00    -0.023 C 
ATOM     21  C   LIG A   1      -3.935   6.602 130.270  0.00  0.00    -0.055 C 
ATOM     22  C   LIG A   1      -3.266   7.180 131.490  0.00  0.00    +0.043 C 
BRANCH  21  23
ATOM     23  C   LIG A   1      -3.521   7.159 128.993  0.00  0.00    -0.005 C 
ATOM     24  C   LIG A   1      -2.486   6.717 128.267  0.00  0.00    +0.008 C 
ENDBRANCH  21  23
ENDBRANCH  19  20
ENDBRANCH   3  19
BRANCH   5  25
ATOM     25  O   LIG A   1      -7.001   2.092 125.911  0.00  0.00    -0.458 OA
BRANCH  25  26
ATOM     26  C   LIG A   1      -7.671   2.576 124.828  0.00  0.00    +0.307 C 
ATOM     27  O   LIG A   1      -8.666   3.268 124.858  0.00  0.00    -0.251 OA
BRANCH  26  28
ATOM     28  C   LIG A   1      -6.953   2.136 123.568  0.00  0.00    +0.120 C 
BRANCH  28  29
ATOM     29  C   LIG A   1      -6.761   3.312 122.624  0.00  0.00    +0.008 C 
ATOM     30  C   LIG A   1      -5.637   4.213 123.115  0.00  0.00    +0.004 C 
ENDBRANCH  28  29
ENDBRANCH  26  28
ENDBRANCH  25  26
ENDBRANCH   5  25
BRANCH  11  31
ATOM     31  O   LIG A   1      -8.742   2.000 132.893  0.00  0.00    -0.431 OA
BRANCH  31  32
ATOM     32  C   LIG A   1      -8.525   3.140 133.585  0.00  0.00    +0.306 C 
ATOM     33  C   LIG A   1      -7.051   3.412 133.643  0.00  0.00    +0.136 C 
ATOM     34  O   LIG A   1      -9.385   3.838 134.097  0.00  0.00    -0.251 OA
ENDBRANCH  31  32
ENDBRANCH  11  31
BRANCH  13  35
ATOM     35  O   LIG A   1      -8.555   4.874 129.558  0.00  0.00    -0.434 OA
BRANCH  35  36
ATOM     36  C   LIG A   1      -9.602   5.733 129.725  0.00  0.00    +0.306 C 
ATOM     37  C   LIG A   1      -9.225   6.838 130.667  0.00  0.00    +0.136 C 
ATOM     38  O   LIG A   1     -10.720   5.576 129.250  0.00  0.00    -0.251 OA
ENDBRANCH  35  36
ENDBRANCH  13  35
TORSDOF 12
ENDMDL
