MODEL 1
REMARK VINA RESULT:      -8.9      0.000      0.000
REMARK  Name = NuBBE_1166
REMARK  17 active torsions:
REMARK  status: ('A' for Active; 'I' for Inactive)
REMARK    1  A    between atoms: O_1  and  C_2
REMARK    2  A    between atoms: C_4  and  O_54
REMARK    3  A    between atoms: C_6  and  C_37
REMARK    4  A    between atoms: C_9  and  O_11
REMARK    5  A    between atoms: O_11  and  C_12
REMARK    6  A    between atoms: C_14  and  O_15
REMARK    7  A    between atoms: C_19  and  C_21
REMARK    8  A    between atoms: C_23  and  O_24
REMARK    9  A    between atoms: C_25  and  O_28
REMARK   10  A    between atoms: O_28  and  C_29
REMARK   11  A    between atoms: C_34  and  O_36
REMARK   12  A    between atoms: C_37  and  O_38
REMARK   13  A    between atoms: O_38  and  C_39
REMARK   14  A    between atoms: C_42  and  C_44
REMARK   15  A    between atoms: C_45  and  O_47
REMARK   16  A    between atoms: C_48  and  O_50
REMARK   17  A    between atoms: C_51  and  O_53
REMARK                            x       y       z     vdW  Elec       q    Type
REMARK                         _______ _______ _______ _____ _____    ______ ____
ROOT
ATOM      1  C   LIG A   1     -11.001   6.645 131.369  0.00  0.00    +0.180 C 
ATOM      2  C   LIG A   1      -9.650   6.151 131.897  0.00  0.00    +0.177 C 
ATOM      3  C   LIG A   1      -8.511   6.868 131.154  0.00  0.00    +0.179 C 
ATOM      4  O   LIG A   1      -8.540   6.658 129.735  0.00  0.00    -0.331 OA
ATOM      5  C   LIG A   1      -9.757   6.144 129.171  0.00  0.00    +0.339 C 
ATOM      6  C   LIG A   1     -11.006   6.770 129.836  0.00  0.00    +0.214 C 
ENDROOT
BRANCH   1   7
ATOM      7  O   LIG A   1     -12.008   5.731 131.837  0.00  0.00    -0.386 OA
ATOM      8  H   LIG A   1     -12.861   6.013 131.457  0.00  0.00    +0.210 HD
ENDBRANCH   1   7
BRANCH   6   9
ATOM      9  O   LIG A   1     -11.072   8.174 129.504  0.00  0.00    -0.383 OA
ATOM     10  H   LIG A   1     -11.483   8.253 128.620  0.00  0.00    +0.210 HD
ENDBRANCH   6   9
BRANCH   2  11
ATOM     11  O   LIG A   1      -9.593   6.376 133.309  0.00  0.00    -0.387 OA
ATOM     12  H   LIG A   1     -10.513   6.581 133.576  0.00  0.00    +0.210 HD
ENDBRANCH   2  11
BRANCH   5  13
ATOM     13  O   LIG A   1      -9.826   4.710 129.193  0.00  0.00    -0.461 OA
BRANCH  13  14
ATOM     14  C   LIG A   1      -8.697   4.021 128.818  0.00  0.00    +0.131 A 
ATOM     15  C   LIG A   1      -8.177   2.901 129.473  0.00  0.00    +0.092 A 
ATOM     16  C   LIG A   1      -7.090   2.203 128.929  0.00  0.00    +0.134 A 
ATOM     17  C   LIG A   1      -6.540   2.608 127.727  0.00  0.00    +0.101 A 
ATOM     18  C   LIG A   1      -7.021   3.746 127.082  0.00  0.00    +0.139 A 
ATOM     19  O   LIG A   1      -6.568   4.193 125.872  0.00  0.00    -0.483 OA
ATOM     20  C   LIG A   1      -5.723   3.328 125.080  0.00  0.00    +0.211 C 
ATOM     21  C   LIG A   1      -5.753   1.867 125.507  0.00  0.00    +0.129 C 
ATOM     22  C   LIG A   1      -5.548   1.813 126.995  0.00  0.00    +0.174 C 
ATOM     23  O   LIG A   1      -4.690   1.141 127.512  0.00  0.00    -0.292 OA
ATOM     24  C   LIG A   1      -8.069   4.478 127.653  0.00  0.00    +0.092 A 
BRANCH  20  25
ATOM     25  C   LIG A   1      -6.157   3.499 123.622  0.00  0.00    -0.003 A 
ATOM     26  C   LIG A   1      -7.435   3.121 123.177  0.00  0.00    +0.056 A 
ATOM     27  C   LIG A   1      -7.827   3.311 121.848  0.00  0.00    +0.159 A 
ATOM     28  C   LIG A   1      -6.933   3.845 120.916  0.00  0.00    +0.161 A 
ATOM     29  C   LIG A   1      -5.660   4.225 121.348  0.00  0.00    +0.050 A 
ATOM     30  C   LIG A   1      -5.271   4.044 122.678  0.00  0.00    +0.011 A 
BRANCH  27  31
ATOM     31  O   LIG A   1      -9.111   2.990 121.506  0.00  0.00    -0.503 OA
ATOM     32  H   LIG A   1      -9.290   3.281 120.598  0.00  0.00    +0.292 HD
ENDBRANCH  27  31
BRANCH  28  33
ATOM     33  O   LIG A   1      -7.174   4.088 119.591  0.00  0.00    -0.491 OA
ATOM     34  C   LIG A   1      -6.397   5.126 119.005  0.00  0.00    +0.277 C 
ENDBRANCH  28  33
ENDBRANCH  20  25
BRANCH  16  35
ATOM     35  O   LIG A   1      -6.644   1.077 129.553  0.00  0.00    -0.506 OA
ATOM     36  H   LIG A   1      -5.799   0.795 129.166  0.00  0.00    +0.292 HD
ENDBRANCH  16  35
ENDBRANCH  13  14
ENDBRANCH   5  13
BRANCH   3  37
ATOM     37  C   LIG A   1      -7.140   6.463 131.739  0.00  0.00    +0.197 C 
BRANCH  37  38
ATOM     38  O   LIG A   1      -6.047   7.124 131.082  0.00  0.00    -0.346 OA
BRANCH  38  39
ATOM     39  C   LIG A   1      -4.843   6.327 130.980  0.00  0.00    +0.282 C 
ATOM     40  O   LIG A   1      -3.687   7.181 131.021  0.00  0.00    -0.343 OA
ATOM     41  C   LIG A   1      -2.451   6.631 130.544  0.00  0.00    +0.149 C 
ATOM     42  C   LIG A   1      -1.847   5.645 131.541  0.00  0.00    +0.040 C 
ATOM     43  C   LIG A   1      -2.558   6.034 129.125  0.00  0.00    +0.174 C 
ATOM     44  C   LIG A   1      -4.009   5.993 128.655  0.00  0.00    +0.179 C 
ATOM     45  C   LIG A   1      -4.893   5.392 129.742  0.00  0.00    +0.201 C 
BRANCH  43  46
ATOM     46  O   LIG A   1      -1.851   6.826 128.151  0.00  0.00    -0.387 OA
ATOM     47  H   LIG A   1      -2.443   7.541 127.860  0.00  0.00    +0.210 HD
ENDBRANCH  43  46
BRANCH  44  48
ATOM     48  O   LIG A   1      -4.082   5.233 127.442  0.00  0.00    -0.386 OA
ATOM     49  H   LIG A   1      -3.628   4.394 127.666  0.00  0.00    +0.210 HD
ENDBRANCH  44  48
BRANCH  45  50
ATOM     50  O   LIG A   1      -4.397   4.076 130.069  0.00  0.00    -0.384 OA
ATOM     51  H   LIG A   1      -4.746   3.487 129.371  0.00  0.00    +0.210 HD
ENDBRANCH  45  50
ENDBRANCH  38  39
ENDBRANCH  37  38
ENDBRANCH   3  37
TORSDOF 15
ENDMDL
MODEL 2
REMARK VINA RESULT:      -8.8      4.363      6.894
REMARK  Name = NuBBE_1166
REMARK  17 active torsions:
REMARK  status: ('A' for Active; 'I' for Inactive)
REMARK    1  A    between atoms: O_1  and  C_2
REMARK    2  A    between atoms: C_4  and  O_54
REMARK    3  A    between atoms: C_6  and  C_37
REMARK    4  A    between atoms: C_9  and  O_11
REMARK    5  A    between atoms: O_11  and  C_12
REMARK    6  A    between atoms: C_14  and  O_15
REMARK    7  A    between atoms: C_19  and  C_21
REMARK    8  A    between atoms: C_23  and  O_24
REMARK    9  A    between atoms: C_25  and  O_28
REMARK   10  A    between atoms: O_28  and  C_29
REMARK   11  A    between atoms: C_34  and  O_36
REMARK   12  A    between atoms: C_37  and  O_38
REMARK   13  A    between atoms: O_38  and  C_39
REMARK   14  A    between atoms: C_42  and  C_44
REMARK   15  A    between atoms: C_45  and  O_47
REMARK   16  A    between atoms: C_48  and  O_50
REMARK   17  A    between atoms: C_51  and  O_53
REMARK                            x       y       z     vdW  Elec       q    Type
REMARK                         _______ _______ _______ _____ _____    ______ ____
ROOT
ATOM      1  C   LIG A   1      -7.822   5.229 133.600  0.00  0.00    +0.180 C 
ATOM      2  C   LIG A   1      -7.547   5.379 132.100  0.00  0.00    +0.177 C 
ATOM      3  C   LIG A   1      -8.709   4.772 131.297  0.00  0.00    +0.179 C 
ATOM      4  O   LIG A   1      -8.923   3.381 131.575  0.00  0.00    -0.331 OA
ATOM      5  C   LIG A   1      -8.311   2.845 132.759  0.00  0.00    +0.339 C 
ATOM      6  C   LIG A   1      -8.384   3.839 133.943  0.00  0.00    +0.214 C 
ENDROOT
BRANCH   1   7
ATOM      7  O   LIG A   1      -6.590   5.497 134.293  0.00  0.00    -0.386 OA
ATOM      8  H   LIG A   1      -6.805   6.042 135.073  0.00  0.00    +0.210 HD
ENDBRANCH   1   7
BRANCH   6   9
ATOM      9  O   LIG A   1      -9.762   4.003 134.345  0.00  0.00    -0.383 OA
ATOM     10  H   LIG A   1     -10.320   3.901 133.548  0.00  0.00    +0.210 HD
ENDBRANCH   6   9
BRANCH   2  11
ATOM     11  O   LIG A   1      -7.356   6.765 131.799  0.00  0.00    -0.387 OA
ATOM     12  H   LIG A   1      -6.569   7.037 132.315  0.00  0.00    +0.210 HD
ENDBRANCH   2  11
BRANCH   5  13
ATOM     13  O   LIG A   1      -6.963   2.400 132.544  0.00  0.00    -0.461 OA
BRANCH  13  14
ATOM     14  C   LIG A   1      -6.765   1.047 132.396  0.00  0.00    +0.131 A 
ATOM     15  C   LIG A   1      -6.812   0.104 133.427  0.00  0.00    +0.092 A 
ATOM     16  C   LIG A   1      -6.720  -1.264 133.140  0.00  0.00    +0.134 A 
ATOM     17  C   LIG A   1      -6.604  -1.691 131.830  0.00  0.00    +0.101 A 
ATOM     18  C   LIG A   1      -6.516  -0.762 130.795  0.00  0.00    +0.139 A 
ATOM     19  O   LIG A   1      -6.444  -1.093 129.471  0.00  0.00    -0.483 OA
ATOM     20  C   LIG A   1      -6.721  -2.455 129.075  0.00  0.00    +0.211 C 
ATOM     21  C   LIG A   1      -7.442  -3.278 130.134  0.00  0.00    +0.129 C 
ATOM     22  C   LIG A   1      -6.713  -3.100 131.437  0.00  0.00    +0.174 C 
ATOM     23  O   LIG A   1      -6.317  -4.029 132.096  0.00  0.00    -0.292 OA
ATOM     24  C   LIG A   1      -6.550   0.607 131.084  0.00  0.00    +0.092 A 
BRANCH  20  25
ATOM     25  C   LIG A   1      -7.522  -2.385 127.773  0.00  0.00    -0.003 A 
ATOM     26  C   LIG A   1      -7.281  -1.398 126.803  0.00  0.00    +0.056 A 
ATOM     27  C   LIG A   1      -8.002  -1.365 125.605  0.00  0.00    +0.159 A 
ATOM     28  C   LIG A   1      -9.017  -2.295 125.364  0.00  0.00    +0.161 A 
ATOM     29  C   LIG A   1      -9.264  -3.282 126.321  0.00  0.00    +0.050 A 
ATOM     30  C   LIG A   1      -8.538  -3.321 127.515  0.00  0.00    +0.011 A 
BRANCH  27  31
ATOM     31  O   LIG A   1      -7.659  -0.423 124.676  0.00  0.00    -0.503 OA
ATOM     32  H   LIG A   1      -8.461  -0.059 124.267  0.00  0.00    +0.292 HD
ENDBRANCH  27  31
BRANCH  28  33
ATOM     33  O   LIG A   1      -9.799  -2.386 124.245  0.00  0.00    -0.491 OA
ATOM     34  C   LIG A   1      -9.386  -3.350 123.283  0.00  0.00    +0.277 C 
ENDBRANCH  28  33
ENDBRANCH  20  25
BRANCH  16  35
ATOM     35  O   LIG A   1      -6.833  -2.166 134.157  0.00  0.00    -0.506 OA
ATOM     36  H   LIG A   1      -7.285  -2.965 133.843  0.00  0.00    +0.292 HD
ENDBRANCH  16  35
ENDBRANCH  13  14
ENDBRANCH   5  13
BRANCH   3  37
ATOM     37  C   LIG A   1      -8.505   5.003 129.784  0.00  0.00    +0.197 C 
BRANCH  37  38
ATOM     38  O   LIG A   1      -8.842   6.341 129.384  0.00  0.00    -0.346 OA
BRANCH  38  39
ATOM     39  C   LIG A   1     -10.116   6.458 128.707  0.00  0.00    +0.282 C 
ATOM     40  O   LIG A   1     -10.111   7.613 127.851  0.00  0.00    -0.343 OA
ATOM     41  C   LIG A   1     -11.384   8.109 127.416  0.00  0.00    +0.149 C 
ATOM     42  C   LIG A   1     -11.999   7.223 126.335  0.00  0.00    +0.040 C 
ATOM     43  C   LIG A   1     -12.364   8.376 128.579  0.00  0.00    +0.174 C 
ATOM     44  C   LIG A   1     -11.804   7.852 129.897  0.00  0.00    +0.179 C 
ATOM     45  C   LIG A   1     -11.293   6.427 129.718  0.00  0.00    +0.201 C 
BRANCH  43  46
ATOM     46  O   LIG A   1     -12.592   9.784 128.780  0.00  0.00    -0.387 OA
ATOM     47  H   LIG A   1     -13.230   9.884 129.508  0.00  0.00    +0.210 HD
ENDBRANCH  43  46
BRANCH  44  48
ATOM     48  O   LIG A   1     -12.831   7.918 130.895  0.00  0.00    -0.386 OA
ATOM     49  H   LIG A   1     -12.717   8.810 131.286  0.00  0.00    +0.210 HD
ENDBRANCH  44  48
BRANCH  45  50
ATOM     50  O   LIG A   1     -12.373   5.605 129.229  0.00  0.00    -0.384 OA
ATOM     51  H   LIG A   1     -12.074   4.682 129.352  0.00  0.00    +0.210 HD
ENDBRANCH  45  50
ENDBRANCH  38  39
ENDBRANCH  37  38
ENDBRANCH   3  37
TORSDOF 15
ENDMDL
MODEL 3
REMARK VINA RESULT:      -8.8      2.032      5.539
REMARK  Name = NuBBE_1166
REMARK  17 active torsions:
REMARK  status: ('A' for Active; 'I' for Inactive)
REMARK    1  A    between atoms: O_1  and  C_2
REMARK    2  A    between atoms: C_4  and  O_54
REMARK    3  A    between atoms: C_6  and  C_37
REMARK    4  A    between atoms: C_9  and  O_11
REMARK    5  A    between atoms: O_11  and  C_12
REMARK    6  A    between atoms: C_14  and  O_15
REMARK    7  A    between atoms: C_19  and  C_21
REMARK    8  A    between atoms: C_23  and  O_24
REMARK    9  A    between atoms: C_25  and  O_28
REMARK   10  A    between atoms: O_28  and  C_29
REMARK   11  A    between atoms: C_34  and  O_36
REMARK   12  A    between atoms: C_37  and  O_38
REMARK   13  A    between atoms: O_38  and  C_39
REMARK   14  A    between atoms: C_42  and  C_44
REMARK   15  A    between atoms: C_45  and  O_47
REMARK   16  A    between atoms: C_48  and  O_50
REMARK   17  A    between atoms: C_51  and  O_53
REMARK                            x       y       z     vdW  Elec       q    Type
REMARK                         _______ _______ _______ _____ _____    ______ ____
ROOT
ATOM      1  C   LIG A   1      -5.033   4.836 130.875  0.00  0.00    +0.180 C 
ATOM      2  C   LIG A   1      -6.178   5.844 130.727  0.00  0.00    +0.177 C 
ATOM      3  C   LIG A   1      -7.482   5.227 131.259  0.00  0.00    +0.179 C 
ATOM      4  O   LIG A   1      -7.857   4.021 130.578  0.00  0.00    -0.331 OA
ATOM      5  C   LIG A   1      -6.850   3.374 129.785  0.00  0.00    +0.339 C 
ATOM      6  C   LIG A   1      -5.464   3.416 130.471  0.00  0.00    +0.214 C 
ENDROOT
BRANCH   1   7
ATOM      7  O   LIG A   1      -3.934   5.312 130.078  0.00  0.00    -0.386 OA
ATOM      8  H   LIG A   1      -3.113   4.961 130.471  0.00  0.00    +0.210 HD
ENDBRANCH   1   7
BRANCH   6   9
ATOM      9  O   LIG A   1      -5.497   2.604 131.665  0.00  0.00    -0.383 OA
ATOM     10  H   LIG A   1      -4.582   2.312 131.853  0.00  0.00    +0.210 HD
ENDBRANCH   6   9
BRANCH   2  11
ATOM     11  O   LIG A   1      -5.832   7.045 131.423  0.00  0.00    -0.387 OA
ATOM     12  H   LIG A   1      -6.678   7.519 131.559  0.00  0.00    +0.210 HD
ENDBRANCH   2  11
BRANCH   5  13
ATOM     13  O   LIG A   1      -6.776   3.883 128.444  0.00  0.00    -0.461 OA
BRANCH  13  14
ATOM     14  C   LIG A   1      -7.185   3.046 127.432  0.00  0.00    +0.131 A 
ATOM     15  C   LIG A   1      -8.304   2.210 127.475  0.00  0.00    +0.092 A 
ATOM     16  C   LIG A   1      -8.698   1.493 126.337  0.00  0.00    +0.134 A 
ATOM     17  C   LIG A   1      -7.992   1.629 125.156  0.00  0.00    +0.101 A 
ATOM     18  C   LIG A   1      -6.851   2.429 125.107  0.00  0.00    +0.139 A 
ATOM     19  O   LIG A   1      -6.120   2.655 123.975  0.00  0.00    -0.483 OA
ATOM     20  C   LIG A   1      -6.670   2.261 122.697  0.00  0.00    +0.211 C 
ATOM     21  C   LIG A   1      -8.169   1.995 122.720  0.00  0.00    +0.129 C 
ATOM     22  C   LIG A   1      -8.461   1.081 123.878  0.00  0.00    +0.174 C 
ATOM     23  O   LIG A   1      -9.063   0.043 123.756  0.00  0.00    -0.292 OA
ATOM     24  C   LIG A   1      -6.423   3.100 126.258  0.00  0.00    +0.092 A 
BRANCH  20  25
ATOM     25  C   LIG A   1      -6.309   3.364 121.700  0.00  0.00    -0.003 A 
ATOM     26  C   LIG A   1      -5.261   4.270 121.939  0.00  0.00    +0.056 A 
ATOM     27  C   LIG A   1      -4.924   5.253 121.004  0.00  0.00    +0.159 A 
ATOM     28  C   LIG A   1      -5.656   5.387 119.821  0.00  0.00    +0.161 A 
ATOM     29  C   LIG A   1      -6.699   4.491 119.573  0.00  0.00    +0.050 A 
ATOM     30  C   LIG A   1      -7.031   3.502 120.503  0.00  0.00    +0.011 A 
BRANCH  27  31
ATOM     31  O   LIG A   1      -3.845   6.049 121.271  0.00  0.00    -0.503 OA
ATOM     32  H   LIG A   1      -3.071   5.725 120.783  0.00  0.00    +0.292 HD
ENDBRANCH  27  31
BRANCH  28  33
ATOM     33  O   LIG A   1      -5.443   6.295 118.820  0.00  0.00    -0.491 OA
ATOM     34  C   LIG A   1      -6.019   5.967 117.560  0.00  0.00    +0.277 C 
ENDBRANCH  28  33
ENDBRANCH  20  25
BRANCH  16  35
ATOM     35  O   LIG A   1      -9.829   0.734 126.387  0.00  0.00    -0.506 OA
ATOM     36  H   LIG A   1      -9.608  -0.201 126.253  0.00  0.00    +0.292 HD
ENDBRANCH  16  35
ENDBRANCH  13  14
ENDBRANCH   5  13
BRANCH   3  37
ATOM     37  C   LIG A   1      -8.629   6.260 131.216  0.00  0.00    +0.197 C 
BRANCH  37  38
ATOM     38  O   LIG A   1      -8.628   7.029 130.003  0.00  0.00    -0.346 OA
BRANCH  38  39
ATOM     39  C   LIG A   1      -9.824   6.879 129.200  0.00  0.00    +0.282 C 
ATOM     40  O   LIG A   1     -10.090   8.100 128.487  0.00  0.00    -0.343 OA
ATOM     41  C   LIG A   1     -11.414   8.277 127.967  0.00  0.00    +0.149 C 
ATOM     42  C   LIG A   1     -11.656   7.416 126.728  0.00  0.00    +0.040 C 
ATOM     43  C   LIG A   1     -12.517   8.091 129.031  0.00  0.00    +0.174 C 
ATOM     44  C   LIG A   1     -11.933   7.562 130.337  0.00  0.00    +0.179 C 
ATOM     45  C   LIG A   1     -11.015   6.377 130.058  0.00  0.00    +0.201 C 
BRANCH  43  46
ATOM     46  O   LIG A   1     -13.162   9.335 129.362  0.00  0.00    -0.387 OA
ATOM     47  H   LIG A   1     -12.545   9.858 129.903  0.00  0.00    +0.210 HD
ENDBRANCH  43  46
BRANCH  44  48
ATOM     48  O   LIG A   1     -13.009   7.195 131.211  0.00  0.00    -0.386 OA
ATOM     49  H   LIG A   1     -13.790   7.169 130.617  0.00  0.00    +0.210 HD
ENDBRANCH  44  48
BRANCH  45  50
ATOM     50  O   LIG A   1     -11.766   5.364 129.356  0.00  0.00    -0.384 OA
ATOM     51  H   LIG A   1     -11.124   4.653 129.164  0.00  0.00    +0.210 HD
ENDBRANCH  45  50
ENDBRANCH  38  39
ENDBRANCH  37  38
ENDBRANCH   3  37
TORSDOF 15
ENDMDL
MODEL 4
REMARK VINA RESULT:      -8.7      3.311      8.730
REMARK  Name = NuBBE_1166
REMARK  17 active torsions:
REMARK  status: ('A' for Active; 'I' for Inactive)
REMARK    1  A    between atoms: O_1  and  C_2
REMARK    2  A    between atoms: C_4  and  O_54
REMARK    3  A    between atoms: C_6  and  C_37
REMARK    4  A    between atoms: C_9  and  O_11
REMARK    5  A    between atoms: O_11  and  C_12
REMARK    6  A    between atoms: C_14  and  O_15
REMARK    7  A    between atoms: C_19  and  C_21
REMARK    8  A    between atoms: C_23  and  O_24
REMARK    9  A    between atoms: C_25  and  O_28
REMARK   10  A    between atoms: O_28  and  C_29
REMARK   11  A    between atoms: C_34  and  O_36
REMARK   12  A    between atoms: C_37  and  O_38
REMARK   13  A    between atoms: O_38  and  C_39
REMARK   14  A    between atoms: C_42  and  C_44
REMARK   15  A    between atoms: C_45  and  O_47
REMARK   16  A    between atoms: C_48  and  O_50
REMARK   17  A    between atoms: C_51  and  O_53
REMARK                            x       y       z     vdW  Elec       q    Type
REMARK                         _______ _______ _______ _____ _____    ______ ____
ROOT
ATOM      1  C   LIG A   1      -8.818  -2.780 124.287  0.00  0.00    +0.180 C 
ATOM      2  C   LIG A   1      -8.755  -1.274 124.013  0.00  0.00    +0.177 C 
ATOM      3  C   LIG A   1      -7.311  -0.870 123.673  0.00  0.00    +0.179 C 
ATOM      4  O   LIG A   1      -6.376  -1.174 124.718  0.00  0.00    -0.331 OA
ATOM      5  C   LIG A   1      -6.805  -2.091 125.737  0.00  0.00    +0.339 C 
ATOM      6  C   LIG A   1      -7.635  -3.256 125.147  0.00  0.00    +0.214 C 
ENDROOT
BRANCH   1   7
ATOM      7  O   LIG A   1     -10.083  -3.052 124.915  0.00  0.00    -0.386 OA
ATOM      8  H   LIG A   1     -10.388  -2.225 125.332  0.00  0.00    +0.210 HD
ENDBRANCH   1   7
BRANCH   6   9
ATOM      9  O   LIG A   1      -6.784  -4.078 124.319  0.00  0.00    -0.383 OA
ATOM     10  H   LIG A   1      -6.100  -4.473 124.894  0.00  0.00    +0.210 HD
ENDBRANCH   6   9
BRANCH   2  11
ATOM     11  O   LIG A   1      -9.663  -0.956 122.954  0.00  0.00    -0.387 OA
ATOM     12  H   LIG A   1     -10.203  -1.763 122.824  0.00  0.00    +0.210 HD
ENDBRANCH   2  11
BRANCH   5  13
ATOM     13  O   LIG A   1      -7.509  -1.450 126.812  0.00  0.00    -0.461 OA
BRANCH  13  14
ATOM     14  C   LIG A   1      -6.812  -1.232 127.977  0.00  0.00    +0.131 A 
ATOM     15  C   LIG A   1      -5.471  -1.564 128.193  0.00  0.00    +0.092 A 
ATOM     16  C   LIG A   1      -4.828  -1.182 129.377  0.00  0.00    +0.134 A 
ATOM     17  C   LIG A   1      -5.512  -0.452 130.332  0.00  0.00    +0.101 A 
ATOM     18  C   LIG A   1      -6.859  -0.146 130.149  0.00  0.00    +0.139 A 
ATOM     19  O   LIG A   1      -7.600   0.606 131.017  0.00  0.00    -0.483 OA
ATOM     20  C   LIG A   1      -6.921   1.344 132.057  0.00  0.00    +0.211 C 
ATOM     21  C   LIG A   1      -5.425   1.510 131.828  0.00  0.00    +0.129 C 
ATOM     22  C   LIG A   1      -4.854   0.161 131.491  0.00  0.00    +0.174 C 
ATOM     23  O   LIG A   1      -3.923  -0.322 132.086  0.00  0.00    -0.292 OA
ATOM     24  C   LIG A   1      -7.519  -0.578 128.992  0.00  0.00    +0.092 A 
BRANCH  20  25
ATOM     25  C   LIG A   1      -7.627   2.697 132.175  0.00  0.00    -0.003 A 
ATOM     26  C   LIG A   1      -7.396   3.739 131.261  0.00  0.00    +0.056 A 
ATOM     27  C   LIG A   1      -8.071   4.959 131.364  0.00  0.00    +0.159 A 
ATOM     28  C   LIG A   1      -8.966   5.186 132.414  0.00  0.00    +0.161 A 
ATOM     29  C   LIG A   1      -9.204   4.157 133.328  0.00  0.00    +0.050 A 
ATOM     30  C   LIG A   1      -8.536   2.934 133.219  0.00  0.00    +0.011 A 
BRANCH  27  31
ATOM     31  O   LIG A   1      -7.853   5.897 130.394  0.00  0.00    -0.503 OA
ATOM     32  H   LIG A   1      -7.315   5.514 129.684  0.00  0.00    +0.292 HD
ENDBRANCH  27  31
BRANCH  28  33
ATOM     33  O   LIG A   1      -9.695   6.322 132.641  0.00  0.00    -0.491 OA
ATOM     34  C   LIG A   1     -10.996   6.342 132.064  0.00  0.00    +0.277 C 
ENDBRANCH  28  33
ENDBRANCH  20  25
BRANCH  16  35
ATOM     35  O   LIG A   1      -3.503  -1.462 129.535  0.00  0.00    -0.506 OA
ATOM     36  H   LIG A   1      -3.072  -1.529 128.668  0.00  0.00    +0.292 HD
ENDBRANCH  16  35
ENDBRANCH  13  14
ENDBRANCH   5  13
BRANCH   3  37
ATOM     37  C   LIG A   1      -7.240   0.625 123.292  0.00  0.00    +0.197 C 
BRANCH  37  38
ATOM     38  O   LIG A   1      -8.013   1.452 124.176  0.00  0.00    -0.346 OA
BRANCH  38  39
ATOM     39  C   LIG A   1      -7.229   2.178 125.153  0.00  0.00    +0.282 C 
ATOM     40  O   LIG A   1      -7.753   1.945 126.472  0.00  0.00    -0.343 OA
ATOM     41  C   LIG A   1      -7.370   2.868 127.500  0.00  0.00    +0.149 C 
ATOM     42  C   LIG A   1      -5.930   2.645 127.955  0.00  0.00    +0.040 C 
ATOM     43  C   LIG A   1      -7.642   4.342 127.127  0.00  0.00    +0.174 C 
ATOM     44  C   LIG A   1      -8.067   4.468 125.667  0.00  0.00    +0.179 C 
ATOM     45  C   LIG A   1      -7.114   3.679 124.776  0.00  0.00    +0.201 C 
BRANCH  43  46
ATOM     46  O   LIG A   1      -8.719   4.904 127.901  0.00  0.00    -0.387 OA
ATOM     47  H   LIG A   1      -8.808   5.841 127.655  0.00  0.00    +0.210 HD
ENDBRANCH  43  46
BRANCH  44  48
ATOM     48  O   LIG A   1      -8.089   5.856 125.310  0.00  0.00    -0.386 OA
ATOM     49  H   LIG A   1      -8.412   5.851 124.383  0.00  0.00    +0.210 HD
ENDBRANCH  44  48
BRANCH  45  50
ATOM     50  O   LIG A   1      -5.772   4.164 124.989  0.00  0.00    -0.384 OA
ATOM     51  H   LIG A   1      -5.870   5.108 125.220  0.00  0.00    +0.210 HD
ENDBRANCH  45  50
ENDBRANCH  38  39
ENDBRANCH  37  38
ENDBRANCH   3  37
TORSDOF 15
ENDMDL
MODEL 5
REMARK VINA RESULT:      -8.5      2.883      7.172
REMARK  Name = NuBBE_1166
REMARK  17 active torsions:
REMARK  status: ('A' for Active; 'I' for Inactive)
REMARK    1  A    between atoms: O_1  and  C_2
REMARK    2  A    between atoms: C_4  and  O_54
REMARK    3  A    between atoms: C_6  and  C_37
REMARK    4  A    between atoms: C_9  and  O_11
REMARK    5  A    between atoms: O_11  and  C_12
REMARK    6  A    between atoms: C_14  and  O_15
REMARK    7  A    between atoms: C_19  and  C_21
REMARK    8  A    between atoms: C_23  and  O_24
REMARK    9  A    between atoms: C_25  and  O_28
REMARK   10  A    between atoms: O_28  and  C_29
REMARK   11  A    between atoms: C_34  and  O_36
REMARK   12  A    between atoms: C_37  and  O_38
REMARK   13  A    between atoms: O_38  and  C_39
REMARK   14  A    between atoms: C_42  and  C_44
REMARK   15  A    between atoms: C_45  and  O_47
REMARK   16  A    between atoms: C_48  and  O_50
REMARK   17  A    between atoms: C_51  and  O_53
REMARK                            x       y       z     vdW  Elec       q    Type
REMARK                         _______ _______ _______ _____ _____    ______ ____
ROOT
ATOM      1  C   LIG A   1      -3.647   7.253 129.507  0.00  0.00    +0.180 C 
ATOM      2  C   LIG A   1      -4.474   6.255 130.323  0.00  0.00    +0.177 C 
ATOM      3  C   LIG A   1      -3.805   4.871 130.282  0.00  0.00    +0.179 C 
ATOM      4  O   LIG A   1      -3.662   4.351 128.952  0.00  0.00    -0.331 OA
ATOM      5  C   LIG A   1      -3.813   5.277 127.865  0.00  0.00    +0.339 C 
ATOM      6  C   LIG A   1      -3.161   6.645 128.181  0.00  0.00    +0.214 C 
ENDROOT
BRANCH   1   7
ATOM      7  O   LIG A   1      -4.462   8.420 129.296  0.00  0.00    -0.386 OA
ATOM      8  H   LIG A   1      -3.883   9.124 128.950  0.00  0.00    +0.210 HD
ENDBRANCH   1   7
BRANCH   6   9
ATOM      9  O   LIG A   1      -1.728   6.483 128.263  0.00  0.00    -0.383 OA
ATOM     10  H   LIG A   1      -1.457   6.684 129.181  0.00  0.00    +0.210 HD
ENDBRANCH   6   9
BRANCH   2  11
ATOM     11  O   LIG A   1      -4.605   6.746 131.661  0.00  0.00    -0.387 OA
ATOM     12  H   LIG A   1      -3.905   6.292 132.174  0.00  0.00    +0.210 HD
ENDBRANCH   2  11
BRANCH   5  13
ATOM     13  O   LIG A   1      -5.177   5.441 127.449  0.00  0.00    -0.461 OA
BRANCH  13  14
ATOM     14  C   LIG A   1      -5.692   4.492 126.597  0.00  0.00    +0.131 A 
ATOM     15  C   LIG A   1      -5.606   4.524 125.202  0.00  0.00    +0.092 A 
ATOM     16  C   LIG A   1      -6.057   3.440 124.439  0.00  0.00    +0.134 A 
ATOM     17  C   LIG A   1      -6.572   2.319 125.066  0.00  0.00    +0.101 A 
ATOM     18  C   LIG A   1      -6.701   2.288 126.453  0.00  0.00    +0.139 A 
ATOM     19  O   LIG A   1      -7.155   1.208 127.157  0.00  0.00    -0.483 OA
ATOM     20  C   LIG A   1      -7.282  -0.063 126.483  0.00  0.00    +0.211 C 
ATOM     21  C   LIG A   1      -6.524  -0.147 125.164  0.00  0.00    +0.129 C 
ATOM     22  C   LIG A   1      -6.866   1.071 124.353  0.00  0.00    +0.174 C 
ATOM     23  O   LIG A   1      -7.285   1.008 123.224  0.00  0.00    -0.292 OA
ATOM     24  C   LIG A   1      -6.303   3.394 127.213  0.00  0.00    +0.092 A 
BRANCH  20  25
ATOM     25  C   LIG A   1      -6.818  -1.137 127.469  0.00  0.00    -0.003 A 
ATOM     26  C   LIG A   1      -5.471  -1.270 127.845  0.00  0.00    +0.056 A 
ATOM     27  C   LIG A   1      -5.067  -2.237 128.771  0.00  0.00    +0.159 A 
ATOM     28  C   LIG A   1      -5.996  -3.129 129.313  0.00  0.00    +0.161 A 
ATOM     29  C   LIG A   1      -7.338  -3.006 128.947  0.00  0.00    +0.050 A 
ATOM     30  C   LIG A   1      -7.744  -2.033 128.029  0.00  0.00    +0.011 A 
BRANCH  27  31
ATOM     31  O   LIG A   1      -3.753  -2.257 129.146  0.00  0.00    -0.503 OA
ATOM     32  H   LIG A   1      -3.575  -1.521 129.753  0.00  0.00    +0.292 HD
ENDBRANCH  27  31
BRANCH  28  33
ATOM     33  O   LIG A   1      -5.749  -4.120 130.224  0.00  0.00    -0.491 OA
ATOM     34  C   LIG A   1      -5.854  -3.738 131.591  0.00  0.00    +0.277 C 
ENDBRANCH  28  33
ENDBRANCH  20  25
BRANCH  16  35
ATOM     35  O   LIG A   1      -5.903   3.469 123.085  0.00  0.00    -0.506 OA
ATOM     36  H   LIG A   1      -6.456   4.169 122.702  0.00  0.00    +0.292 HD
ENDBRANCH  16  35
ENDBRANCH  13  14
ENDBRANCH   5  13
BRANCH   3  37
ATOM     37  C   LIG A   1      -4.564   3.872 131.182  0.00  0.00    +0.197 C 
BRANCH  37  38
ATOM     38  O   LIG A   1      -5.960   4.190 131.296  0.00  0.00    -0.346 OA
BRANCH  38  39
ATOM     39  C   LIG A   1      -6.815   3.046 131.536  0.00  0.00    +0.282 C 
ATOM     40  O   LIG A   1      -7.630   2.793 130.379  0.00  0.00    -0.343 OA
ATOM     41  C   LIG A   1      -8.792   1.974 130.565  0.00  0.00    +0.149 C 
ATOM     42  C   LIG A   1      -8.427   0.499 130.719  0.00  0.00    +0.040 C 
ATOM     43  C   LIG A   1      -9.711   2.469 131.702  0.00  0.00    +0.174 C 
ATOM     44  C   LIG A   1      -9.051   3.599 132.487  0.00  0.00    +0.179 C 
ATOM     45  C   LIG A   1      -7.621   3.216 132.851  0.00  0.00    +0.201 C 
BRANCH  43  46
ATOM     46  O   LIG A   1     -10.948   3.009 131.200  0.00  0.00    -0.387 OA
ATOM     47  H   LIG A   1     -10.816   3.240 130.264  0.00  0.00    +0.210 HD
ENDBRANCH  43  46
BRANCH  44  48
ATOM     48  O   LIG A   1      -9.834   3.870 133.657  0.00  0.00    -0.386 OA
ATOM     49  H   LIG A   1      -9.775   4.845 133.754  0.00  0.00    +0.210 HD
ENDBRANCH  44  48
BRANCH  45  50
ATOM     50  O   LIG A   1      -7.648   1.985 133.603  0.00  0.00    -0.384 OA
ATOM     51  H   LIG A   1      -8.572   1.671 133.554  0.00  0.00    +0.210 HD
ENDBRANCH  45  50
ENDBRANCH  38  39
ENDBRANCH  37  38
ENDBRANCH   3  37
TORSDOF 15
ENDMDL
MODEL 6
REMARK VINA RESULT:      -8.5      2.661      5.677
REMARK  Name = NuBBE_1166
REMARK  17 active torsions:
REMARK  status: ('A' for Active; 'I' for Inactive)
REMARK    1  A    between atoms: O_1  and  C_2
REMARK    2  A    between atoms: C_4  and  O_54
REMARK    3  A    between atoms: C_6  and  C_37
REMARK    4  A    between atoms: C_9  and  O_11
REMARK    5  A    between atoms: O_11  and  C_12
REMARK    6  A    between atoms: C_14  and  O_15
REMARK    7  A    between atoms: C_19  and  C_21
REMARK    8  A    between atoms: C_23  and  O_24
REMARK    9  A    between atoms: C_25  and  O_28
REMARK   10  A    between atoms: O_28  and  C_29
REMARK   11  A    between atoms: C_34  and  O_36
REMARK   12  A    between atoms: C_37  and  O_38
REMARK   13  A    between atoms: O_38  and  C_39
REMARK   14  A    between atoms: C_42  and  C_44
REMARK   15  A    between atoms: C_45  and  O_47
REMARK   16  A    between atoms: C_48  and  O_50
REMARK   17  A    between atoms: C_51  and  O_53
REMARK                            x       y       z     vdW  Elec       q    Type
REMARK                         _______ _______ _______ _____ _____    ______ ____
ROOT
ATOM      1  C   LIG A   1      -7.946   3.083 133.714  0.00  0.00    +0.180 C 
ATOM      2  C   LIG A   1      -8.118   4.526 133.231  0.00  0.00    +0.177 C 
ATOM      3  C   LIG A   1      -9.291   4.604 132.239  0.00  0.00    +0.179 C 
ATOM      4  O   LIG A   1      -9.116   3.765 131.089  0.00  0.00    -0.331 OA
ATOM      5  C   LIG A   1      -8.111   2.743 131.168  0.00  0.00    +0.339 C 
ATOM      6  C   LIG A   1      -8.082   2.073 132.562  0.00  0.00    +0.214 C 
ENDROOT
BRANCH   1   7
ATOM      7  O   LIG A   1      -6.664   2.993 134.360  0.00  0.00    -0.386 OA
ATOM      8  H   LIG A   1      -6.509   2.055 134.577  0.00  0.00    +0.210 HD
ENDBRANCH   1   7
BRANCH   6   9
ATOM      9  O   LIG A   1      -9.306   1.331 132.762  0.00  0.00    -0.383 OA
ATOM     10  H   LIG A   1     -10.050   1.963 132.710  0.00  0.00    +0.210 HD
ENDBRANCH   6   9
BRANCH   2  11
ATOM     11  O   LIG A   1      -8.319   5.375 134.365  0.00  0.00    -0.387 OA
ATOM     12  H   LIG A   1      -9.211   5.150 134.703  0.00  0.00    +0.210 HD
ENDBRANCH   2  11
BRANCH   5  13
ATOM     13  O   LIG A   1      -6.805   3.206 130.792  0.00  0.00    -0.461 OA
BRANCH  13  14
ATOM     14  C   LIG A   1      -6.678   3.786 129.551  0.00  0.00    +0.131 A 
ATOM     15  C   LIG A   1      -5.717   4.737 129.196  0.00  0.00    +0.092 A 
ATOM     16  C   LIG A   1      -5.601   5.166 127.868  0.00  0.00    +0.134 A 
ATOM     17  C   LIG A   1      -6.425   4.632 126.894  0.00  0.00    +0.101 A 
ATOM     18  C   LIG A   1      -7.414   3.712 127.238  0.00  0.00    +0.139 A 
ATOM     19  O   LIG A   1      -8.241   3.101 126.338  0.00  0.00    -0.483 OA
ATOM     20  C   LIG A   1      -7.938   3.204 124.928  0.00  0.00    +0.211 C 
ATOM     21  C   LIG A   1      -6.514   3.653 124.629  0.00  0.00    +0.129 C 
ATOM     22  C   LIG A   1      -6.225   4.872 125.461  0.00  0.00    +0.174 C 
ATOM     23  O   LIG A   1      -5.825   5.906 124.987  0.00  0.00    -0.292 OA
ATOM     24  C   LIG A   1      -7.569   3.325 128.574  0.00  0.00    +0.092 A 
BRANCH  20  25
ATOM     25  C   LIG A   1      -8.241   1.839 124.308  0.00  0.00    -0.003 A 
ATOM     26  C   LIG A   1      -9.471   1.558 123.690  0.00  0.00    +0.056 A 
ATOM     27  C   LIG A   1      -9.721   0.315 123.101  0.00  0.00    +0.159 A 
ATOM     28  C   LIG A   1      -8.762  -0.700 123.155  0.00  0.00    +0.161 A 
ATOM     29  C   LIG A   1      -7.535  -0.432 123.766  0.00  0.00    +0.050 A 
ATOM     30  C   LIG A   1      -7.281   0.814 124.347  0.00  0.00    +0.011 A 
BRANCH  27  31
ATOM     31  O   LIG A   1     -10.911   0.141 122.451  0.00  0.00    -0.503 OA
ATOM     32  H   LIG A   1     -11.629   0.059 123.098  0.00  0.00    +0.292 HD
ENDBRANCH  27  31
BRANCH  28  33
ATOM     33  O   LIG A   1      -8.866  -1.958 122.626  0.00  0.00    -0.491 OA
ATOM     34  C   LIG A   1      -9.291  -2.971 123.530  0.00  0.00    +0.277 C 
ENDBRANCH  28  33
ENDBRANCH  20  25
BRANCH  16  35
ATOM     35  O   LIG A   1      -4.614   6.046 127.536  0.00  0.00    -0.506 OA
ATOM     36  H   LIG A   1      -4.441   6.008 126.582  0.00  0.00    +0.292 HD
ENDBRANCH  16  35
ENDBRANCH  13  14
ENDBRANCH   5  13
BRANCH   3  37
ATOM     37  C   LIG A   1      -9.550   6.067 131.817  0.00  0.00    +0.197 C 
BRANCH  37  38
ATOM     38  O   LIG A   1      -8.975   6.377 130.537  0.00  0.00    -0.346 OA
BRANCH  38  39
ATOM     39  C   LIG A   1      -9.943   6.562 129.477  0.00  0.00    +0.282 C 
ATOM     40  O   LIG A   1      -9.709   7.816 128.814  0.00  0.00    -0.343 OA
ATOM     41  C   LIG A   1     -10.781   8.347 128.023  0.00  0.00    +0.149 C 
ATOM     42  C   LIG A   1     -10.936   7.596 126.702  0.00  0.00    +0.040 C 
ATOM     43  C   LIG A   1     -12.113   8.452 128.795  0.00  0.00    +0.174 C 
ATOM     44  C   LIG A   1     -12.012   7.773 130.157  0.00  0.00    +0.179 C 
ATOM     45  C   LIG A   1     -11.392   6.389 130.005  0.00  0.00    +0.201 C 
BRANCH  43  46
ATOM     46  O   LIG A   1     -12.475   9.821 129.063  0.00  0.00    -0.387 OA
ATOM     47  H   LIG A   1     -11.656  10.344 129.108  0.00  0.00    +0.210 HD
ENDBRANCH  43  46
BRANCH  44  48
ATOM     48  O   LIG A   1     -13.322   7.699 130.736  0.00  0.00    -0.386 OA
ATOM     49  H   LIG A   1     -13.709   6.893 130.332  0.00  0.00    +0.210 HD
ENDBRANCH  44  48
BRANCH  45  50
ATOM     50  O   LIG A   1     -12.191   5.621 129.080  0.00  0.00    -0.384 OA
ATOM     51  H   LIG A   1     -11.721   5.676 128.225  0.00  0.00    +0.210 HD
ENDBRANCH  45  50
ENDBRANCH  38  39
ENDBRANCH  37  38
ENDBRANCH   3  37
TORSDOF 15
ENDMDL
MODEL 7
REMARK VINA RESULT:      -8.5      3.006      7.254
REMARK  Name = NuBBE_1166
REMARK  17 active torsions:
REMARK  status: ('A' for Active; 'I' for Inactive)
REMARK    1  A    between atoms: O_1  and  C_2
REMARK    2  A    between atoms: C_4  and  O_54
REMARK    3  A    between atoms: C_6  and  C_37
REMARK    4  A    between atoms: C_9  and  O_11
REMARK    5  A    between atoms: O_11  and  C_12
REMARK    6  A    between atoms: C_14  and  O_15
REMARK    7  A    between atoms: C_19  and  C_21
REMARK    8  A    between atoms: C_23  and  O_24
REMARK    9  A    between atoms: C_25  and  O_28
REMARK   10  A    between atoms: O_28  and  C_29
REMARK   11  A    between atoms: C_34  and  O_36
REMARK   12  A    between atoms: C_37  and  O_38
REMARK   13  A    between atoms: O_38  and  C_39
REMARK   14  A    between atoms: C_42  and  C_44
REMARK   15  A    between atoms: C_45  and  O_47
REMARK   16  A    between atoms: C_48  and  O_50
REMARK   17  A    between atoms: C_51  and  O_53
REMARK                            x       y       z     vdW  Elec       q    Type
REMARK                         _______ _______ _______ _____ _____    ______ ____
ROOT
ATOM      1  C   LIG A   1      -6.512   0.085 126.507  0.00  0.00    +0.180 C 
ATOM      2  C   LIG A   1      -6.473   1.615 126.571  0.00  0.00    +0.177 C 
ATOM      3  C   LIG A   1      -5.240   2.069 127.370  0.00  0.00    +0.179 C 
ATOM      4  O   LIG A   1      -5.219   1.565 128.713  0.00  0.00    -0.331 OA
ATOM      5  C   LIG A   1      -6.099   0.472 129.018  0.00  0.00    +0.339 C 
ATOM      6  C   LIG A   1      -6.163  -0.554 127.862  0.00  0.00    +0.214 C 
ENDROOT
BRANCH   1   7
ATOM      7  O   LIG A   1      -7.823  -0.296 126.055  0.00  0.00    -0.386 OA
ATOM      8  H   LIG A   1      -8.043  -1.148 126.474  0.00  0.00    +0.210 HD
ENDBRANCH   1   7
BRANCH   6   9
ATOM      9  O   LIG A   1      -4.881  -1.207 127.730  0.00  0.00    -0.383 OA
ATOM     10  H   LIG A   1      -4.590  -1.476 128.624  0.00  0.00    +0.210 HD
ENDBRANCH   6   9
BRANCH   2  11
ATOM     11  O   LIG A   1      -6.468   2.135 125.237  0.00  0.00    -0.387 OA
ATOM     12  H   LIG A   1      -5.617   2.613 125.149  0.00  0.00    +0.210 HD
ENDBRANCH   2  11
BRANCH   5  13
ATOM     13  O   LIG A   1      -7.415   0.899 129.402  0.00  0.00    -0.461 OA
BRANCH  13  14
ATOM     14  C   LIG A   1      -7.510   1.759 130.470  0.00  0.00    +0.131 A 
ATOM     15  C   LIG A   1      -6.515   1.972 131.429  0.00  0.00    +0.092 A 
ATOM     16  C   LIG A   1      -6.672   2.966 132.404  0.00  0.00    +0.134 A 
ATOM     17  C   LIG A   1      -7.806   3.758 132.409  0.00  0.00    +0.101 A 
ATOM     18  C   LIG A   1      -8.824   3.532 131.484  0.00  0.00    +0.139 A 
ATOM     19  O   LIG A   1      -9.956   4.292 131.388  0.00  0.00    -0.483 OA
ATOM     20  C   LIG A   1     -10.017   5.548 132.099  0.00  0.00    +0.211 C 
ATOM     21  C   LIG A   1      -8.662   6.069 132.561  0.00  0.00    +0.129 C 
ATOM     22  C   LIG A   1      -7.945   4.946 133.258  0.00  0.00    +0.174 C 
ATOM     23  O   LIG A   1      -7.497   5.049 134.373  0.00  0.00    -0.292 OA
ATOM     24  C   LIG A   1      -8.694   2.501 130.546  0.00  0.00    +0.092 A 
BRANCH  20  25
ATOM     25  C   LIG A   1     -10.719   6.546 131.176  0.00  0.00    -0.003 A 
ATOM     26  C   LIG A   1     -10.081   7.097 130.052  0.00  0.00    +0.056 A 
ATOM     27  C   LIG A   1     -10.747   7.985 129.201  0.00  0.00    +0.159 A 
ATOM     28  C   LIG A   1     -12.058   8.382 129.478  0.00  0.00    +0.161 A 
ATOM     29  C   LIG A   1     -12.703   7.840 130.593  0.00  0.00    +0.050 A 
ATOM     30  C   LIG A   1     -12.041   6.945 131.438  0.00  0.00    +0.011 A 
BRANCH  27  31
ATOM     31  O   LIG A   1     -10.088   8.420 128.085  0.00  0.00    -0.503 OA
ATOM     32  H   LIG A   1      -9.495   7.724 127.764  0.00  0.00    +0.292 HD
ENDBRANCH  27  31
BRANCH  28  33
ATOM     33  O   LIG A   1     -12.831   9.237 128.741  0.00  0.00    -0.491 OA
ATOM     34  C   LIG A   1     -13.439  10.298 129.469  0.00  0.00    +0.277 C 
ENDBRANCH  28  33
ENDBRANCH  20  25
BRANCH  16  35
ATOM     35  O   LIG A   1      -5.659   3.197 133.287  0.00  0.00    -0.506 OA
ATOM     36  H   LIG A   1      -5.419   4.137 133.278  0.00  0.00    +0.292 HD
ENDBRANCH  16  35
ENDBRANCH  13  14
ENDBRANCH   5  13
BRANCH   3  37
ATOM     37  C   LIG A   1      -5.123   3.609 127.360  0.00  0.00    +0.197 C 
BRANCH  37  38
ATOM     38  O   LIG A   1      -5.924   4.225 128.381  0.00  0.00    -0.346 OA
BRANCH  38  39
ATOM     39  C   LIG A   1      -5.162   4.887 129.419  0.00  0.00    +0.282 C 
ATOM     40  O   LIG A   1      -5.920   5.984 129.958  0.00  0.00    -0.343 OA
ATOM     41  C   LIG A   1      -5.196   6.978 130.695  0.00  0.00    +0.149 C 
ATOM     42  C   LIG A   1      -4.798   6.479 132.082  0.00  0.00    +0.040 C 
ATOM     43  C   LIG A   1      -3.996   7.559 129.917  0.00  0.00    +0.174 C 
ATOM     44  C   LIG A   1      -3.752   6.783 128.627  0.00  0.00    +0.179 C 
ATOM     45  C   LIG A   1      -3.750   5.285 128.910  0.00  0.00    +0.201 C 
BRANCH  43  46
ATOM     46  O   LIG A   1      -4.221   8.925 129.518  0.00  0.00    -0.387 OA
ATOM     47  H   LIG A   1      -3.729   9.501 130.129  0.00  0.00    +0.210 HD
ENDBRANCH  43  46
BRANCH  44  48
ATOM     48  O   LIG A   1      -2.507   7.209 128.058  0.00  0.00    -0.386 OA
ATOM     49  H   LIG A   1      -2.396   6.624 127.278  0.00  0.00    +0.210 HD
ENDBRANCH  44  48
BRANCH  45  50
ATOM     50  O   LIG A   1      -2.744   5.003 129.906  0.00  0.00    -0.384 OA
ATOM     51  H   LIG A   1      -1.999   4.604 129.415  0.00  0.00    +0.210 HD
ENDBRANCH  45  50
ENDBRANCH  38  39
ENDBRANCH  37  38
ENDBRANCH   3  37
TORSDOF 15
ENDMDL
MODEL 8
REMARK VINA RESULT:      -8.5      3.492      6.967
REMARK  Name = NuBBE_1166
REMARK  17 active torsions:
REMARK  status: ('A' for Active; 'I' for Inactive)
REMARK    1  A    between atoms: O_1  and  C_2
REMARK    2  A    between atoms: C_4  and  O_54
REMARK    3  A    between atoms: C_6  and  C_37
REMARK    4  A    between atoms: C_9  and  O_11
REMARK    5  A    between atoms: O_11  and  C_12
REMARK    6  A    between atoms: C_14  and  O_15
REMARK    7  A    between atoms: C_19  and  C_21
REMARK    8  A    between atoms: C_23  and  O_24
REMARK    9  A    between atoms: C_25  and  O_28
REMARK   10  A    between atoms: O_28  and  C_29
REMARK   11  A    between atoms: C_34  and  O_36
REMARK   12  A    between atoms: C_37  and  O_38
REMARK   13  A    between atoms: O_38  and  C_39
REMARK   14  A    between atoms: C_42  and  C_44
REMARK   15  A    between atoms: C_45  and  O_47
REMARK   16  A    between atoms: C_48  and  O_50
REMARK   17  A    between atoms: C_51  and  O_53
REMARK                            x       y       z     vdW  Elec       q    Type
REMARK                         _______ _______ _______ _____ _____    ______ ____
ROOT
ATOM      1  C   LIG A   1      -5.540  -2.429 131.905  0.00  0.00    +0.180 C 
ATOM      2  C   LIG A   1      -5.511  -1.221 130.964  0.00  0.00    +0.177 C 
ATOM      3  C   LIG A   1      -6.913  -0.596 130.879  0.00  0.00    +0.179 C 
ATOM      4  O   LIG A   1      -7.912  -1.509 130.403  0.00  0.00    -0.331 OA
ATOM      5  C   LIG A   1      -7.582  -2.907 130.412  0.00  0.00    +0.339 C 
ATOM      6  C   LIG A   1      -6.787  -3.301 131.680  0.00  0.00    +0.214 C 
ENDROOT
BRANCH   1   7
ATOM      7  O   LIG A   1      -4.323  -3.167 131.699  0.00  0.00    -0.386 OA
ATOM      8  H   LIG A   1      -4.302  -3.888 132.355  0.00  0.00    +0.210 HD
ENDBRANCH   1   7
BRANCH   6   9
ATOM      9  O   LIG A   1      -7.639  -3.169 132.839  0.00  0.00    -0.383 OA
ATOM     10  H   LIG A   1      -8.248  -3.934 132.850  0.00  0.00    +0.210 HD
ENDBRANCH   6   9
BRANCH   2  11
ATOM     11  O   LIG A   1      -4.536  -0.286 131.438  0.00  0.00    -0.387 OA
ATOM     12  H   LIG A   1      -3.897  -0.818 131.956  0.00  0.00    +0.210 HD
ENDBRANCH   2  11
BRANCH   5  13
ATOM     13  O   LIG A   1      -6.899  -3.332 129.223  0.00  0.00    -0.461 OA
BRANCH  13  14
ATOM     14  C   LIG A   1      -7.349  -2.827 128.026  0.00  0.00    +0.131 A 
ATOM     15  C   LIG A   1      -8.548  -3.176 127.399  0.00  0.00    +0.092 A 
ATOM     16  C   LIG A   1      -8.966  -2.504 126.242  0.00  0.00    +0.134 A 
ATOM     17  C   LIG A   1      -8.201  -1.474 125.727  0.00  0.00    +0.101 A 
ATOM     18  C   LIG A   1      -6.984  -1.139 126.318  0.00  0.00    +0.139 A 
ATOM     19  O   LIG A   1      -6.188  -0.109 125.904  0.00  0.00    -0.483 OA
ATOM     20  C   LIG A   1      -6.721   0.855 124.969  0.00  0.00    +0.211 C 
ATOM     21  C   LIG A   1      -8.240   0.835 124.852  0.00  0.00    +0.129 C 
ATOM     22  C   LIG A   1      -8.672  -0.591 124.653  0.00  0.00    +0.174 C 
ATOM     23  O   LIG A   1      -9.371  -0.941 123.735  0.00  0.00    -0.292 OA
ATOM     24  C   LIG A   1      -6.538  -1.848 127.439  0.00  0.00    +0.092 A 
BRANCH  20  25
ATOM     25  C   LIG A   1      -6.208   2.229 125.407  0.00  0.00    -0.003 A 
ATOM     26  C   LIG A   1      -6.808   3.422 124.969  0.00  0.00    +0.056 A 
ATOM     27  C   LIG A   1      -6.347   4.669 125.402  0.00  0.00    +0.159 A 
ATOM     28  C   LIG A   1      -5.241   4.758 126.252  0.00  0.00    +0.161 A 
ATOM     29  C   LIG A   1      -4.637   3.579 126.695  0.00  0.00    +0.050 A 
ATOM     30  C   LIG A   1      -5.104   2.332 126.269  0.00  0.00    +0.011 A 
BRANCH  27  31
ATOM     31  O   LIG A   1      -7.028   5.782 124.995  0.00  0.00    -0.503 OA
ATOM     32  H   LIG A   1      -6.435   6.549 125.001  0.00  0.00    +0.292 HD
ENDBRANCH  27  31
BRANCH  28  33
ATOM     33  O   LIG A   1      -4.682   5.901 126.756  0.00  0.00    -0.491 OA
ATOM     34  C   LIG A   1      -3.774   5.716 127.836  0.00  0.00    +0.277 C 
ENDBRANCH  28  33
ENDBRANCH  20  25
BRANCH  16  35
ATOM     35  O   LIG A   1     -10.170  -2.821 125.687  0.00  0.00    -0.506 OA
ATOM     36  H   LIG A   1     -10.144  -2.670 124.729  0.00  0.00    +0.292 HD
ENDBRANCH  16  35
ENDBRANCH  13  14
ENDBRANCH   5  13
BRANCH   3  37
ATOM     37  C   LIG A   1      -6.886   0.685 130.017  0.00  0.00    +0.197 C 
BRANCH  37  38
ATOM     38  O   LIG A   1      -6.343   1.811 130.725  0.00  0.00    -0.346 OA
BRANCH  38  39
ATOM     39  C   LIG A   1      -7.172   2.997 130.687  0.00  0.00    +0.282 C 
ATOM     40  O   LIG A   1      -6.940   3.794 131.861  0.00  0.00    -0.343 OA
ATOM     41  C   LIG A   1      -7.932   4.776 132.190  0.00  0.00    +0.149 C 
ATOM     42  C   LIG A   1      -7.856   5.990 131.264  0.00  0.00    +0.040 C 
ATOM     43  C   LIG A   1      -9.360   4.196 132.275  0.00  0.00    +0.174 C 
ATOM     44  C   LIG A   1      -9.394   2.751 131.788  0.00  0.00    +0.179 C 
ATOM     45  C   LIG A   1      -8.663   2.631 130.456  0.00  0.00    +0.201 C 
BRANCH  43  46
ATOM     46  O   LIG A   1      -9.850   4.167 133.630  0.00  0.00    -0.387 OA
ATOM     47  H   LIG A   1      -9.644   3.293 134.004  0.00  0.00    +0.210 HD
ENDBRANCH  43  46
BRANCH  44  48
ATOM     48  O   LIG A   1     -10.760   2.332 131.674  0.00  0.00    -0.386 OA
ATOM     49  H   LIG A   1     -11.196   3.085 131.222  0.00  0.00    +0.210 HD
ENDBRANCH  44  48
BRANCH  45  50
ATOM     50  O   LIG A   1      -9.274   3.532 129.509  0.00  0.00    -0.384 OA
ATOM     51  H   LIG A   1     -10.180   3.684 129.843  0.00  0.00    +0.210 HD
ENDBRANCH  45  50
ENDBRANCH  38  39
ENDBRANCH  37  38
ENDBRANCH   3  37
TORSDOF 15
ENDMDL
MODEL 9
REMARK VINA RESULT:      -8.5      3.178      8.074
REMARK  Name = NuBBE_1166
REMARK  17 active torsions:
REMARK  status: ('A' for Active; 'I' for Inactive)
REMARK    1  A    between atoms: O_1  and  C_2
REMARK    2  A    between atoms: C_4  and  O_54
REMARK    3  A    between atoms: C_6  and  C_37
REMARK    4  A    between atoms: C_9  and  O_11
REMARK    5  A    between atoms: O_11  and  C_12
REMARK    6  A    between atoms: C_14  and  O_15
REMARK    7  A    between atoms: C_19  and  C_21
REMARK    8  A    between atoms: C_23  and  O_24
REMARK    9  A    between atoms: C_25  and  O_28
REMARK   10  A    between atoms: O_28  and  C_29
REMARK   11  A    between atoms: C_34  and  O_36
REMARK   12  A    between atoms: C_37  and  O_38
REMARK   13  A    between atoms: O_38  and  C_39
REMARK   14  A    between atoms: C_42  and  C_44
REMARK   15  A    between atoms: C_45  and  O_47
REMARK   16  A    between atoms: C_48  and  O_50
REMARK   17  A    between atoms: C_51  and  O_53
REMARK                            x       y       z     vdW  Elec       q    Type
REMARK                         _______ _______ _______ _____ _____    ______ ____
ROOT
ATOM      1  C   LIG A   1      -8.597  -1.374 123.446  0.00  0.00    +0.180 C 
ATOM      2  C   LIG A   1      -8.782  -0.267 124.489  0.00  0.00    +0.177 C 
ATOM      3  C   LIG A   1      -7.461   0.496 124.675  0.00  0.00    +0.179 C 
ATOM      4  O   LIG A   1      -6.378  -0.343 125.101  0.00  0.00    -0.331 OA
ATOM      5  C   LIG A   1      -6.550  -1.761 124.959  0.00  0.00    +0.339 C 
ATOM      6  C   LIG A   1      -7.267  -2.122 123.636  0.00  0.00    +0.214 C 
ENDROOT
BRANCH   1   7
ATOM      7  O   LIG A   1      -9.729  -2.256 123.546  0.00  0.00    -0.386 OA
ATOM      8  H   LIG A   1     -10.410  -1.800 124.075  0.00  0.00    +0.210 HD
ENDBRANCH   1   7
BRANCH   6   9
ATOM      9  O   LIG A   1      -6.408  -1.794 122.522  0.00  0.00    -0.383 OA
ATOM     10  H   LIG A   1      -6.957  -1.788 121.713  0.00  0.00    +0.210 HD
ENDBRANCH   6   9
BRANCH   2  11
ATOM     11  O   LIG A   1      -9.843   0.596 124.067  0.00  0.00    -0.387 OA
ATOM     12  H   LIG A   1      -9.420   1.263 123.487  0.00  0.00    +0.210 HD
ENDBRANCH   2  11
BRANCH   5  13
ATOM     13  O   LIG A   1      -7.209  -2.365 126.083  0.00  0.00    -0.461 OA
BRANCH  13  14
ATOM     14  C   LIG A   1      -6.671  -2.131 127.326  0.00  0.00    +0.131 A 
ATOM     15  C   LIG A   1      -5.345  -2.378 127.694  0.00  0.00    +0.092 A 
ATOM     16  C   LIG A   1      -4.873  -1.983 128.953  0.00  0.00    +0.134 A 
ATOM     17  C   LIG A   1      -5.714  -1.326 129.832  0.00  0.00    +0.101 A 
ATOM     18  C   LIG A   1      -7.049  -1.106 129.496  0.00  0.00    +0.139 A 
ATOM     19  O   LIG A   1      -7.937  -0.428 130.282  0.00  0.00    -0.483 OA
ATOM     20  C   LIG A   1      -7.439   0.327 131.409  0.00  0.00    +0.211 C 
ATOM     21  C   LIG A   1      -5.941   0.599 131.363  0.00  0.00    +0.129 C 
ATOM     22  C   LIG A   1      -5.241  -0.700 131.072  0.00  0.00    +0.174 C 
ATOM     23  O   LIG A   1      -4.356  -1.135 131.765  0.00  0.00    -0.292 OA
ATOM     24  C   LIG A   1      -7.537  -1.551 128.261  0.00  0.00    +0.092 A 
BRANCH  20  25
ATOM     25  C   LIG A   1      -8.245   1.626 131.465  0.00  0.00    -0.003 A 
ATOM     26  C   LIG A   1      -8.713   2.160 132.678  0.00  0.00    +0.056 A 
ATOM     27  C   LIG A   1      -9.423   3.364 132.716  0.00  0.00    +0.159 A 
ATOM     28  C   LIG A   1      -9.725   4.046 131.533  0.00  0.00    +0.161 A 
ATOM     29  C   LIG A   1      -9.264   3.525 130.322  0.00  0.00    +0.050 A 
ATOM     30  C   LIG A   1      -8.546   2.326 130.284  0.00  0.00    +0.011 A 
BRANCH  27  31
ATOM     31  O   LIG A   1      -9.779   3.861 133.938  0.00  0.00    -0.503 OA
ATOM     32  H   LIG A   1     -10.742   3.813 134.043  0.00  0.00    +0.292 HD
ENDBRANCH  27  31
BRANCH  28  33
ATOM     33  O   LIG A   1     -10.406   5.226 131.416  0.00  0.00    -0.491 OA
ATOM     34  C   LIG A   1      -9.600   6.388 131.254  0.00  0.00    +0.277 C 
ENDBRANCH  28  33
ENDBRANCH  20  25
BRANCH  16  35
ATOM     35  O   LIG A   1      -3.560  -2.178 129.263  0.00  0.00    -0.506 OA
ATOM     36  H   LIG A   1      -3.257  -1.490 129.876  0.00  0.00    +0.292 HD
ENDBRANCH  16  35
ENDBRANCH  13  14
ENDBRANCH   5  13
BRANCH   3  37
ATOM     37  C   LIG A   1      -7.649   1.683 125.645  0.00  0.00    +0.197 C 
BRANCH  37  38
ATOM     38  O   LIG A   1      -6.547   2.603 125.605  0.00  0.00    -0.346 OA
BRANCH  38  39
ATOM     39  C   LIG A   1      -5.839   2.741 126.860  0.00  0.00    +0.282 C 
ATOM     40  O   LIG A   1      -5.725   4.132 127.207  0.00  0.00    -0.343 OA
ATOM     41  C   LIG A   1      -4.735   4.483 128.184  0.00  0.00    +0.149 C 
ATOM     42  C   LIG A   1      -5.168   4.093 129.596  0.00  0.00    +0.040 C 
ATOM     43  C   LIG A   1      -3.326   3.956 127.839  0.00  0.00    +0.174 C 
ATOM     44  C   LIG A   1      -3.372   3.013 126.640  0.00  0.00    +0.179 C 
ATOM     45  C   LIG A   1      -4.483   1.987 126.825  0.00  0.00    +0.201 C 
BRANCH  43  46
ATOM     46  O   LIG A   1      -2.427   5.019 127.470  0.00  0.00    -0.387 OA
ATOM     47  H   LIG A   1      -1.872   4.701 126.737  0.00  0.00    +0.210 HD
ENDBRANCH  43  46
BRANCH  44  48
ATOM     48  O   LIG A   1      -2.093   2.380 126.499  0.00  0.00    -0.386 OA
ATOM     49  H   LIG A   1      -1.561   3.040 126.006  0.00  0.00    +0.210 HD
ENDBRANCH  44  48
BRANCH  45  50
ATOM     50  O   LIG A   1      -4.257   1.275 128.060  0.00  0.00    -0.384 OA
ATOM     51  H   LIG A   1      -4.248   1.960 128.757  0.00  0.00    +0.210 HD
ENDBRANCH  45  50
ENDBRANCH  38  39
ENDBRANCH  37  38
ENDBRANCH   3  37
TORSDOF 15
ENDMDL
