MODEL 1
REMARK VINA RESULT:      -8.4      0.000      0.000
REMARK  Name = NuBBE_2400
REMARK  7 active torsions:
REMARK  status: ('A' for Active; 'I' for Inactive)
REMARK    1  A    between atoms: O_1  and  C_2
REMARK    2  A    between atoms: C_7  and  C_8
REMARK    3  A    between atoms: C_8  and  C_10
REMARK    4  A    between atoms: C_11  and  C_12
REMARK    5  A    between atoms: C_15  and  O_18
REMARK    6  A    between atoms: C_20  and  C_23
REMARK    7  A    between atoms: C_20  and  C_24
REMARK                            x       y       z     vdW  Elec       q    Type
REMARK                         _______ _______ _______ _____ _____    ______ ____
ROOT
ATOM      1  C   LIG A   1      -9.284   6.780 130.645  0.00  0.00    +0.138 A 
ATOM      2  C   LIG A   1     -10.384   7.352 129.968  0.00  0.00    +0.059 A 
ATOM      3  C   LIG A   1     -11.659   7.255 130.535  0.00  0.00    +0.132 A 
ATOM      4  C   LIG A   1     -11.831   6.642 131.777  0.00  0.00    +0.047 A 
ATOM      5  C   LIG A   1     -10.733   6.116 132.459  0.00  0.00    +0.019 A 
ATOM      6  C   LIG A   1      -9.442   6.184 131.908  0.00  0.00    +0.064 A 
ATOM      7  O   LIG A   1     -12.799   7.736 129.952  0.00  0.00    -0.481 OA
ATOM      8  C   LIG A   1     -12.736   8.233 128.600  0.00  0.00    +0.123 C 
ATOM      9  C   LIG A   1     -11.344   8.466 128.066  0.00  0.00    +0.020 C 
ATOM     10  C   LIG A   1     -10.239   8.071 128.704  0.00  0.00    +0.015 C 
ATOM     11  C   LIG A   1     -13.466   7.228 127.702  0.00  0.00    +0.060 C 
ATOM     12  C   LIG A   1     -13.491   9.568 128.603  0.00  0.00    +0.060 C 
ENDROOT
BRANCH   1  13
ATOM     13  O   LIG A   1      -8.054   6.753 130.036  0.00  0.00    -0.505 OA
ATOM     14  H   LIG A   1      -7.950   7.581 129.535  0.00  0.00    +0.292 HD
ENDBRANCH   1  13
BRANCH   6  15
ATOM     15  C   LIG A   1      -8.345   5.551 132.700  0.00  0.00    +0.190 C 
ATOM     16  O   LIG A   1      -7.513   4.846 132.123  0.00  0.00    -0.287 OA
BRANCH  15  17
ATOM     17  C   LIG A   1      -8.302   5.735 134.173  0.00  0.00    +0.052 C 
ATOM     18  C   LIG A   1      -7.152   5.595 134.857  0.00  0.00    +0.012 C 
BRANCH  18  19
ATOM     19  C   LIG A   1      -7.043   5.784 136.312  0.00  0.00    -0.025 A 
ATOM     20  C   LIG A   1      -5.972   5.261 137.055  0.00  0.00    +0.011 A 
ATOM     21  C   LIG A   1      -5.899   5.445 138.439  0.00  0.00    +0.046 A 
ATOM     22  C   LIG A   1      -6.910   6.141 139.088  0.00  0.00    +0.117 A 
ATOM     23  C   LIG A   1      -7.993   6.645 138.379  0.00  0.00    +0.046 A 
ATOM     24  C   LIG A   1      -8.063   6.462 136.994  0.00  0.00    +0.011 A 
BRANCH  22  25
ATOM     25  O   LIG A   1      -6.877   6.346 140.436  0.00  0.00    -0.507 OA
ATOM     26  H   LIG A   1      -7.659   6.864 140.688  0.00  0.00    +0.292 HD
ENDBRANCH  22  25
ENDBRANCH  18  19
ENDBRANCH  15  17
ENDBRANCH   6  15
TORSDOF 5
ENDMDL
MODEL 2
REMARK VINA RESULT:      -8.3      9.410     13.260
REMARK  Name = NuBBE_2400
REMARK  7 active torsions:
REMARK  status: ('A' for Active; 'I' for Inactive)
REMARK    1  A    between atoms: O_1  and  C_2
REMARK    2  A    between atoms: C_7  and  C_8
REMARK    3  A    between atoms: C_8  and  C_10
REMARK    4  A    between atoms: C_11  and  C_12
REMARK    5  A    between atoms: C_15  and  O_18
REMARK    6  A    between atoms: C_20  and  C_23
REMARK    7  A    between atoms: C_20  and  C_24
REMARK                            x       y       z     vdW  Elec       q    Type
REMARK                         _______ _______ _______ _____ _____    ______ ____
ROOT
ATOM      1  C   LIG A   1      -8.958  -1.161 125.706  0.00  0.00    +0.138 A 
ATOM      2  C   LIG A   1      -8.432  -1.689 126.907  0.00  0.00    +0.059 A 
ATOM      3  C   LIG A   1      -7.723  -0.846 127.769  0.00  0.00    +0.132 A 
ATOM      4  C   LIG A   1      -7.579   0.509 127.468  0.00  0.00    +0.047 A 
ATOM      5  C   LIG A   1      -8.137   1.032 126.300  0.00  0.00    +0.019 A 
ATOM      6  C   LIG A   1      -8.841   0.208 125.406  0.00  0.00    +0.064 A 
ATOM      7  O   LIG A   1      -7.139  -1.256 128.936  0.00  0.00    -0.481 OA
ATOM      8  C   LIG A   1      -7.096  -2.665 129.240  0.00  0.00    +0.123 C 
ATOM      9  C   LIG A   1      -7.986  -3.532 128.384  0.00  0.00    +0.020 C 
ATOM     10  C   LIG A   1      -8.626  -3.083 127.301  0.00  0.00    +0.015 C 
ATOM     11  C   LIG A   1      -5.642  -3.127 129.097  0.00  0.00    +0.060 C 
ATOM     12  C   LIG A   1      -7.540  -2.797 130.702  0.00  0.00    +0.060 C 
ENDROOT
BRANCH   1  13
ATOM     13  O   LIG A   1      -9.539  -2.004 124.793  0.00  0.00    -0.505 OA
ATOM     14  H   LIG A   1      -8.847  -2.301 124.177  0.00  0.00    +0.292 HD
ENDBRANCH   1  13
BRANCH   6  15
ATOM     15  C   LIG A   1      -9.359   0.859 124.166  0.00  0.00    +0.190 C 
ATOM     16  O   LIG A   1     -10.570   0.837 123.932  0.00  0.00    -0.287 OA
BRANCH  15  17
ATOM     17  C   LIG A   1      -8.406   1.474 123.207  0.00  0.00    +0.052 C 
ATOM     18  C   LIG A   1      -8.653   2.678 122.659  0.00  0.00    +0.012 C 
BRANCH  18  19
ATOM     19  C   LIG A   1      -7.738   3.347 121.720  0.00  0.00    -0.025 A 
ATOM     20  C   LIG A   1      -6.382   3.558 122.021  0.00  0.00    +0.011 A 
ATOM     21  C   LIG A   1      -5.537   4.206 121.115  0.00  0.00    +0.046 A 
ATOM     22  C   LIG A   1      -6.052   4.662 119.909  0.00  0.00    +0.117 A 
ATOM     23  C   LIG A   1      -7.395   4.489 119.600  0.00  0.00    +0.046 A 
ATOM     24  C   LIG A   1      -8.239   3.837 120.506  0.00  0.00    +0.011 A 
BRANCH  22  25
ATOM     25  O   LIG A   1      -5.262   5.296 118.996  0.00  0.00    -0.507 OA
ATOM     26  H   LIG A   1      -4.413   5.507 119.417  0.00  0.00    +0.292 HD
ENDBRANCH  22  25
ENDBRANCH  18  19
ENDBRANCH  15  17
ENDBRANCH   6  15
TORSDOF 5
ENDMDL
MODEL 3
REMARK VINA RESULT:      -8.3      3.446      4.688
REMARK  Name = NuBBE_2400
REMARK  7 active torsions:
REMARK  status: ('A' for Active; 'I' for Inactive)
REMARK    1  A    between atoms: O_1  and  C_2
REMARK    2  A    between atoms: C_7  and  C_8
REMARK    3  A    between atoms: C_8  and  C_10
REMARK    4  A    between atoms: C_11  and  C_12
REMARK    5  A    between atoms: C_15  and  O_18
REMARK    6  A    between atoms: C_20  and  C_23
REMARK    7  A    between atoms: C_20  and  C_24
REMARK                            x       y       z     vdW  Elec       q    Type
REMARK                         _______ _______ _______ _____ _____    ______ ____
ROOT
ATOM      1  C   LIG A   1     -10.034   6.062 132.032  0.00  0.00    +0.138 A 
ATOM      2  C   LIG A   1     -10.899   6.666 131.090  0.00  0.00    +0.059 A 
ATOM      3  C   LIG A   1     -10.351   7.424 130.050  0.00  0.00    +0.132 A 
ATOM      4  C   LIG A   1      -8.967   7.541 129.919  0.00  0.00    +0.047 A 
ATOM      5  C   LIG A   1      -8.118   6.907 130.828  0.00  0.00    +0.019 A 
ATOM      6  C   LIG A   1      -8.638   6.152 131.893  0.00  0.00    +0.064 A 
ATOM      7  O   LIG A   1     -11.091   8.083 129.107  0.00  0.00    -0.481 OA
ATOM      8  C   LIG A   1     -12.522   8.152 129.265  0.00  0.00    +0.123 C 
ATOM      9  C   LIG A   1     -13.101   7.214 130.296  0.00  0.00    +0.020 C 
ATOM     10  C   LIG A   1     -12.350   6.505 131.144  0.00  0.00    +0.015 C 
ATOM     11  C   LIG A   1     -12.880   9.597 129.631  0.00  0.00    +0.060 C 
ATOM     12  C   LIG A   1     -13.117   7.802 127.895  0.00  0.00    +0.060 C 
ENDROOT
BRANCH   1  13
ATOM     13  O   LIG A   1     -10.564   5.429 133.128  0.00  0.00    -0.505 OA
ATOM     14  H   LIG A   1     -11.528   5.557 133.112  0.00  0.00    +0.292 HD
ENDBRANCH   1  13
BRANCH   6  15
ATOM     15  C   LIG A   1      -7.645   5.554 132.833  0.00  0.00    +0.190 C 
ATOM     16  O   LIG A   1      -8.016   4.700 133.643  0.00  0.00    -0.287 OA
BRANCH  15  17
ATOM     17  C   LIG A   1      -6.238   6.032 132.818  0.00  0.00    +0.052 C 
ATOM     18  C   LIG A   1      -5.230   5.210 132.473  0.00  0.00    +0.012 C 
BRANCH  18  19
ATOM     19  C   LIG A   1      -3.821   5.632 132.420  0.00  0.00    -0.025 A 
ATOM     20  C   LIG A   1      -2.763   4.713 132.517  0.00  0.00    +0.011 A 
ATOM     21  C   LIG A   1      -1.433   5.141 132.475  0.00  0.00    +0.046 A 
ATOM     22  C   LIG A   1      -1.156   6.497 132.354  0.00  0.00    +0.117 A 
ATOM     23  C   LIG A   1      -2.186   7.427 132.283  0.00  0.00    +0.046 A 
ATOM     24  C   LIG A   1      -3.516   6.997 132.322  0.00  0.00    +0.011 A 
BRANCH  22  25
ATOM     25  O   LIG A   1       0.126   6.957 132.306  0.00  0.00    -0.507 OA
ATOM     26  H   LIG A   1       0.656   6.461 132.951  0.00  0.00    +0.292 HD
ENDBRANCH  22  25
ENDBRANCH  18  19
ENDBRANCH  15  17
ENDBRANCH   6  15
TORSDOF 5
ENDMDL
MODEL 4
REMARK VINA RESULT:      -8.1      9.180     13.060
REMARK  Name = NuBBE_2400
REMARK  7 active torsions:
REMARK  status: ('A' for Active; 'I' for Inactive)
REMARK    1  A    between atoms: O_1  and  C_2
REMARK    2  A    between atoms: C_7  and  C_8
REMARK    3  A    between atoms: C_8  and  C_10
REMARK    4  A    between atoms: C_11  and  C_12
REMARK    5  A    between atoms: C_15  and  O_18
REMARK    6  A    between atoms: C_20  and  C_23
REMARK    7  A    between atoms: C_20  and  C_24
REMARK                            x       y       z     vdW  Elec       q    Type
REMARK                         _______ _______ _______ _____ _____    ______ ____
ROOT
ATOM      1  C   LIG A   1      -8.710   0.739 126.188  0.00  0.00    +0.138 A 
ATOM      2  C   LIG A   1      -7.937  -0.174 126.941  0.00  0.00    +0.059 A 
ATOM      3  C   LIG A   1      -7.602  -1.410 126.377  0.00  0.00    +0.132 A 
ATOM      4  C   LIG A   1      -7.988  -1.715 125.072  0.00  0.00    +0.047 A 
ATOM      5  C   LIG A   1      -8.715  -0.792 124.320  0.00  0.00    +0.019 A 
ATOM      6  C   LIG A   1      -9.081   0.451 124.863  0.00  0.00    +0.064 A 
ATOM      7  O   LIG A   1      -6.892  -2.383 127.026  0.00  0.00    -0.481 OA
ATOM      8  C   LIG A   1      -6.600  -2.218 128.428  0.00  0.00    +0.123 C 
ATOM      9  C   LIG A   1      -6.835  -0.831 128.974  0.00  0.00    +0.020 C 
ATOM     10  C   LIG A   1      -7.446   0.135 128.282  0.00  0.00    +0.015 C 
ATOM     11  C   LIG A   1      -7.459  -3.224 129.203  0.00  0.00    +0.060 C 
ATOM     12  C   LIG A   1      -5.116  -2.567 128.596  0.00  0.00    +0.060 C 
ENDROOT
BRANCH   1  13
ATOM     13  O   LIG A   1      -9.155   1.895 126.778  0.00  0.00    -0.505 OA
ATOM     14  H   LIG A   1      -9.154   1.761 127.742  0.00  0.00    +0.292 HD
ENDBRANCH   1  13
BRANCH   6  15
ATOM     15  C   LIG A   1      -9.897   1.346 123.990  0.00  0.00    +0.190 C 
ATOM     16  O   LIG A   1     -11.124   1.364 124.120  0.00  0.00    -0.287 OA
BRANCH  15  17
ATOM     17  C   LIG A   1      -9.228   2.161 122.943  0.00  0.00    +0.052 C 
ATOM     18  C   LIG A   1      -7.925   2.482 123.040  0.00  0.00    +0.012 C 
BRANCH  18  19
ATOM     19  C   LIG A   1      -7.204   3.267 122.026  0.00  0.00    -0.025 A 
ATOM     20  C   LIG A   1      -7.756   3.546 120.766  0.00  0.00    +0.011 A 
ATOM     21  C   LIG A   1      -7.045   4.285 119.816  0.00  0.00    +0.046 A 
ATOM     22  C   LIG A   1      -5.766   4.734 120.119  0.00  0.00    +0.117 A 
ATOM     23  C   LIG A   1      -5.188   4.448 121.350  0.00  0.00    +0.046 A 
ATOM     24  C   LIG A   1      -5.902   3.710 122.300  0.00  0.00    +0.011 A 
BRANCH  22  25
ATOM     25  O   LIG A   1      -5.039   5.460 119.224  0.00  0.00    -0.507 OA
ATOM     26  H   LIG A   1      -5.513   5.468 118.376  0.00  0.00    +0.292 HD
ENDBRANCH  22  25
ENDBRANCH  18  19
ENDBRANCH  15  17
ENDBRANCH   6  15
TORSDOF 5
ENDMDL
MODEL 5
REMARK VINA RESULT:      -8.0      9.487     12.937
REMARK  Name = NuBBE_2400
REMARK  7 active torsions:
REMARK  status: ('A' for Active; 'I' for Inactive)
REMARK    1  A    between atoms: O_1  and  C_2
REMARK    2  A    between atoms: C_7  and  C_8
REMARK    3  A    between atoms: C_8  and  C_10
REMARK    4  A    between atoms: C_11  and  C_12
REMARK    5  A    between atoms: C_15  and  O_18
REMARK    6  A    between atoms: C_20  and  C_23
REMARK    7  A    between atoms: C_20  and  C_24
REMARK                            x       y       z     vdW  Elec       q    Type
REMARK                         _______ _______ _______ _____ _____    ______ ____
ROOT
ATOM      1  C   LIG A   1      -7.760   1.620 125.663  0.00  0.00    +0.138 A 
ATOM      2  C   LIG A   1      -7.986   0.231 125.789  0.00  0.00    +0.059 A 
ATOM      3  C   LIG A   1      -6.897  -0.618 126.011  0.00  0.00    +0.132 A 
ATOM      4  C   LIG A   1      -5.612  -0.093 126.154  0.00  0.00    +0.047 A 
ATOM      5  C   LIG A   1      -5.403   1.284 126.070  0.00  0.00    +0.019 A 
ATOM      6  C   LIG A   1      -6.474   2.162 125.832  0.00  0.00    +0.064 A 
ATOM      7  O   LIG A   1      -6.992  -1.979 126.111  0.00  0.00    -0.481 OA
ATOM      8  C   LIG A   1      -8.251  -2.616 125.810  0.00  0.00    +0.123 C 
ATOM      9  C   LIG A   1      -9.435  -1.686 125.721  0.00  0.00    +0.020 C 
ATOM     10  C   LIG A   1      -9.323  -0.354 125.724  0.00  0.00    +0.015 C 
ATOM     11  C   LIG A   1      -8.088  -3.365 124.483  0.00  0.00    +0.060 C 
ATOM     12  C   LIG A   1      -8.499  -3.619 126.945  0.00  0.00    +0.060 C 
ENDROOT
BRANCH   1  13
ATOM     13  O   LIG A   1      -8.799   2.446 125.314  0.00  0.00    -0.505 OA
ATOM     14  H   LIG A   1      -9.631   1.967 125.478  0.00  0.00    +0.292 HD
ENDBRANCH   1  13
BRANCH   6  15
ATOM     15  C   LIG A   1      -6.134   3.612 125.715  0.00  0.00    +0.190 C 
ATOM     16  O   LIG A   1      -5.972   4.279 126.740  0.00  0.00    -0.287 OA
BRANCH  15  17
ATOM     17  C   LIG A   1      -6.049   4.241 124.372  0.00  0.00    +0.052 C 
ATOM     18  C   LIG A   1      -5.921   3.491 123.261  0.00  0.00    +0.012 C 
BRANCH  18  19
ATOM     19  C   LIG A   1      -5.853   4.056 121.904  0.00  0.00    -0.025 A 
ATOM     20  C   LIG A   1      -4.814   4.911 121.503  0.00  0.00    +0.011 A 
ATOM     21  C   LIG A   1      -4.779   5.443 120.211  0.00  0.00    +0.046 A 
ATOM     22  C   LIG A   1      -5.796   5.133 119.318  0.00  0.00    +0.117 A 
ATOM     23  C   LIG A   1      -6.849   4.311 119.700  0.00  0.00    +0.046 A 
ATOM     24  C   LIG A   1      -6.881   3.778 120.993  0.00  0.00    +0.011 A 
BRANCH  22  25
ATOM     25  O   LIG A   1      -5.799   5.628 118.047  0.00  0.00    -0.507 OA
ATOM     26  H   LIG A   1      -6.586   6.187 117.936  0.00  0.00    +0.292 HD
ENDBRANCH  22  25
ENDBRANCH  18  19
ENDBRANCH  15  17
ENDBRANCH   6  15
TORSDOF 5
ENDMDL
MODEL 6
REMARK VINA RESULT:      -7.7      9.951     10.900
REMARK  Name = NuBBE_2400
REMARK  7 active torsions:
REMARK  status: ('A' for Active; 'I' for Inactive)
REMARK    1  A    between atoms: O_1  and  C_2
REMARK    2  A    between atoms: C_7  and  C_8
REMARK    3  A    between atoms: C_8  and  C_10
REMARK    4  A    between atoms: C_11  and  C_12
REMARK    5  A    between atoms: C_15  and  O_18
REMARK    6  A    between atoms: C_20  and  C_23
REMARK    7  A    between atoms: C_20  and  C_24
REMARK                            x       y       z     vdW  Elec       q    Type
REMARK                         _______ _______ _______ _____ _____    ______ ____
ROOT
ATOM      1  C   LIG A   1      -9.005  -0.047 124.965  0.00  0.00    +0.138 A 
ATOM      2  C   LIG A   1      -8.463   0.980 124.159  0.00  0.00    +0.059 A 
ATOM      3  C   LIG A   1      -7.301   0.726 123.422  0.00  0.00    +0.132 A 
ATOM      4  C   LIG A   1      -6.714  -0.539 123.448  0.00  0.00    +0.047 A 
ATOM      5  C   LIG A   1      -7.279  -1.561 124.213  0.00  0.00    +0.019 A 
ATOM      6  C   LIG A   1      -8.437  -1.333 124.976  0.00  0.00    +0.064 A 
ATOM      7  O   LIG A   1      -6.668   1.654 122.641  0.00  0.00    -0.481 OA
ATOM      8  C   LIG A   1      -7.109   3.026 122.689  0.00  0.00    +0.123 C 
ATOM      9  C   LIG A   1      -8.440   3.249 123.364  0.00  0.00    +0.020 C 
ATOM     10  C   LIG A   1      -9.087   2.296 124.041  0.00  0.00    +0.015 C 
ATOM     11  C   LIG A   1      -6.027   3.836 123.411  0.00  0.00    +0.060 C 
ATOM     12  C   LIG A   1      -7.215   3.488 121.230  0.00  0.00    +0.060 C 
ENDROOT
BRANCH   1  13
ATOM     13  O   LIG A   1     -10.064   0.230 125.791  0.00  0.00    -0.505 OA
ATOM     14  H   LIG A   1     -10.771  -0.410 125.598  0.00  0.00    +0.292 HD
ENDBRANCH   1  13
BRANCH   6  15
ATOM     15  C   LIG A   1      -8.933  -2.479 125.794  0.00  0.00    +0.190 C 
ATOM     16  O   LIG A   1     -10.080  -2.898 125.616  0.00  0.00    -0.287 OA
BRANCH  15  17
ATOM     17  C   LIG A   1      -8.060  -3.065 126.844  0.00  0.00    +0.052 C 
ATOM     18  C   LIG A   1      -7.376  -2.279 127.696  0.00  0.00    +0.012 C 
BRANCH  18  19
ATOM     19  C   LIG A   1      -6.513  -2.800 128.768  0.00  0.00    -0.025 A 
ATOM     20  C   LIG A   1      -5.114  -2.697 128.716  0.00  0.00    +0.011 A 
ATOM     21  C   LIG A   1      -4.316  -3.211 129.743  0.00  0.00    +0.046 A 
ATOM     22  C   LIG A   1      -4.918  -3.848 130.820  0.00  0.00    +0.117 A 
ATOM     23  C   LIG A   1      -6.299  -3.986 130.880  0.00  0.00    +0.046 A 
ATOM     24  C   LIG A   1      -7.096  -3.469 129.853  0.00  0.00    +0.011 A 
BRANCH  22  25
ATOM     25  O   LIG A   1      -4.179  -4.361 131.843  0.00  0.00    -0.507 OA
ATOM     26  H   LIG A   1      -3.888  -5.254 131.596  0.00  0.00    +0.292 HD
ENDBRANCH  22  25
ENDBRANCH  18  19
ENDBRANCH  15  17
ENDBRANCH   6  15
TORSDOF 5
ENDMDL
MODEL 7
REMARK VINA RESULT:      -7.6      3.592      8.919
REMARK  Name = NuBBE_2400
REMARK  7 active torsions:
REMARK  status: ('A' for Active; 'I' for Inactive)
REMARK    1  A    between atoms: O_1  and  C_2
REMARK    2  A    between atoms: C_7  and  C_8
REMARK    3  A    between atoms: C_8  and  C_10
REMARK    4  A    between atoms: C_11  and  C_12
REMARK    5  A    between atoms: C_15  and  O_18
REMARK    6  A    between atoms: C_20  and  C_23
REMARK    7  A    between atoms: C_20  and  C_24
REMARK                            x       y       z     vdW  Elec       q    Type
REMARK                         _______ _______ _______ _____ _____    ______ ____
ROOT
ATOM      1  C   LIG A   1      -5.533   5.937 133.187  0.00  0.00    +0.138 A 
ATOM      2  C   LIG A   1      -4.227   6.475 133.158  0.00  0.00    +0.059 A 
ATOM      3  C   LIG A   1      -3.801   7.169 132.021  0.00  0.00    +0.132 A 
ATOM      4  C   LIG A   1      -4.672   7.367 130.950  0.00  0.00    +0.047 A 
ATOM      5  C   LIG A   1      -5.975   6.869 131.003  0.00  0.00    +0.019 A 
ATOM      6  C   LIG A   1      -6.428   6.154 132.124  0.00  0.00    +0.064 A 
ATOM      7  O   LIG A   1      -2.549   7.698 131.868  0.00  0.00    -0.481 OA
ATOM      8  C   LIG A   1      -1.537   7.397 132.851  0.00  0.00    +0.123 C 
ATOM      9  C   LIG A   1      -2.049   6.780 134.130  0.00  0.00    +0.020 C 
ATOM     10  C   LIG A   1      -3.307   6.359 134.288  0.00  0.00    +0.015 C 
ATOM     11  C   LIG A   1      -0.522   6.452 132.198  0.00  0.00    +0.060 C 
ATOM     12  C   LIG A   1      -0.861   8.732 133.187  0.00  0.00    +0.060 C 
ENDROOT
BRANCH   1  13
ATOM     13  O   LIG A   1      -5.915   5.142 134.238  0.00  0.00    -0.505 OA
ATOM     14  H   LIG A   1      -6.816   4.819 134.059  0.00  0.00    +0.292 HD
ENDBRANCH   1  13
BRANCH   6  15
ATOM     15  C   LIG A   1      -7.823   5.626 132.059  0.00  0.00    +0.190 C 
ATOM     16  O   LIG A   1      -8.041   4.452 132.372  0.00  0.00    -0.287 OA
BRANCH  15  17
ATOM     17  C   LIG A   1      -8.918   6.501 131.569  0.00  0.00    +0.052 C 
ATOM     18  C   LIG A   1      -9.418   6.358 130.327  0.00  0.00    +0.012 C 
BRANCH  18  19
ATOM     19  C   LIG A   1     -10.515   7.182 129.793  0.00  0.00    -0.025 A 
ATOM     20  C   LIG A   1     -10.413   7.856 128.566  0.00  0.00    +0.011 A 
ATOM     21  C   LIG A   1     -11.466   8.641 128.087  0.00  0.00    +0.046 A 
ATOM     22  C   LIG A   1     -12.621   8.769 128.846  0.00  0.00    +0.117 A 
ATOM     23  C   LIG A   1     -12.735   8.134 130.077  0.00  0.00    +0.046 A 
ATOM     24  C   LIG A   1     -11.682   7.346 130.553  0.00  0.00    +0.011 A 
BRANCH  22  25
ATOM     25  O   LIG A   1     -13.673   9.522 128.416  0.00  0.00    -0.507 OA
ATOM     26  H   LIG A   1     -14.197   8.992 127.793  0.00  0.00    +0.292 HD
ENDBRANCH  22  25
ENDBRANCH  18  19
ENDBRANCH  15  17
ENDBRANCH   6  15
TORSDOF 5
ENDMDL
MODEL 8
REMARK VINA RESULT:      -7.5      3.076      4.326
REMARK  Name = NuBBE_2400
REMARK  7 active torsions:
REMARK  status: ('A' for Active; 'I' for Inactive)
REMARK    1  A    between atoms: O_1  and  C_2
REMARK    2  A    between atoms: C_7  and  C_8
REMARK    3  A    between atoms: C_8  and  C_10
REMARK    4  A    between atoms: C_11  and  C_12
REMARK    5  A    between atoms: C_15  and  O_18
REMARK    6  A    between atoms: C_20  and  C_23
REMARK    7  A    between atoms: C_20  and  C_24
REMARK                            x       y       z     vdW  Elec       q    Type
REMARK                         _______ _______ _______ _____ _____    ______ ____
ROOT
ATOM      1  C   LIG A   1      -9.158   6.752 130.685  0.00  0.00    +0.138 A 
ATOM      2  C   LIG A   1     -10.262   7.323 130.013  0.00  0.00    +0.059 A 
ATOM      3  C   LIG A   1     -11.535   7.217 130.581  0.00  0.00    +0.132 A 
ATOM      4  C   LIG A   1     -11.704   6.596 131.819  0.00  0.00    +0.047 A 
ATOM      5  C   LIG A   1     -10.602   6.072 132.497  0.00  0.00    +0.019 A 
ATOM      6  C   LIG A   1      -9.313   6.148 131.945  0.00  0.00    +0.064 A 
ATOM      7  O   LIG A   1     -12.678   7.697 130.002  0.00  0.00    -0.481 OA
ATOM      8  C   LIG A   1     -12.619   8.201 128.652  0.00  0.00    +0.123 C 
ATOM      9  C   LIG A   1     -11.229   8.444 128.118  0.00  0.00    +0.020 C 
ATOM     10  C   LIG A   1     -10.121   8.050 128.753  0.00  0.00    +0.015 C 
ATOM     11  C   LIG A   1     -13.345   7.198 127.749  0.00  0.00    +0.060 C 
ATOM     12  C   LIG A   1     -13.380   9.533 128.664  0.00  0.00    +0.060 C 
ENDROOT
BRANCH   1  13
ATOM     13  O   LIG A   1      -7.929   6.735 130.075  0.00  0.00    -0.505 OA
ATOM     14  H   LIG A   1      -7.255   6.583 130.761  0.00  0.00    +0.292 HD
ENDBRANCH   1  13
BRANCH   6  15
ATOM     15  C   LIG A   1      -8.212   5.516 132.732  0.00  0.00    +0.190 C 
ATOM     16  O   LIG A   1      -8.484   4.639 133.557  0.00  0.00    -0.287 OA
BRANCH  15  17
ATOM     17  C   LIG A   1      -6.815   5.987 132.550  0.00  0.00    +0.052 C 
ATOM     18  C   LIG A   1      -5.802   5.114 132.403  0.00  0.00    +0.012 C 
BRANCH  18  19
ATOM     19  C   LIG A   1      -4.402   5.520 132.200  0.00  0.00    -0.025 A 
ATOM     20  C   LIG A   1      -3.957   6.089 130.995  0.00  0.00    +0.011 A 
ATOM     21  C   LIG A   1      -2.619   6.456 130.824  0.00  0.00    +0.046 A 
ATOM     22  C   LIG A   1      -1.715   6.237 131.855  0.00  0.00    +0.117 A 
ATOM     23  C   LIG A   1      -2.125   5.650 133.045  0.00  0.00    +0.046 A 
ATOM     24  C   LIG A   1      -3.465   5.287 133.216  0.00  0.00    +0.011 A 
BRANCH  22  25
ATOM     25  O   LIG A   1      -0.402   6.582 131.731  0.00  0.00    -0.507 OA
ATOM     26  H   LIG A   1       0.138   5.779 131.820  0.00  0.00    +0.292 HD
ENDBRANCH  22  25
ENDBRANCH  18  19
ENDBRANCH  15  17
ENDBRANCH   6  15
TORSDOF 5
ENDMDL
MODEL 9
REMARK VINA RESULT:      -7.5      8.295      9.424
REMARK  Name = NuBBE_2400
REMARK  7 active torsions:
REMARK  status: ('A' for Active; 'I' for Inactive)
REMARK    1  A    between atoms: O_1  and  C_2
REMARK    2  A    between atoms: C_7  and  C_8
REMARK    3  A    between atoms: C_8  and  C_10
REMARK    4  A    between atoms: C_11  and  C_12
REMARK    5  A    between atoms: C_15  and  O_18
REMARK    6  A    between atoms: C_20  and  C_23
REMARK    7  A    between atoms: C_20  and  C_24
REMARK                            x       y       z     vdW  Elec       q    Type
REMARK                         _______ _______ _______ _____ _____    ______ ____
ROOT
ATOM      1  C   LIG A   1      -8.136  -2.823 127.675  0.00  0.00    +0.138 A 
ATOM      2  C   LIG A   1      -7.991  -2.595 126.288  0.00  0.00    +0.059 A 
ATOM      3  C   LIG A   1      -7.529  -1.351 125.847  0.00  0.00    +0.132 A 
ATOM      4  C   LIG A   1      -7.170  -0.367 126.768  0.00  0.00    +0.047 A 
ATOM      5  C   LIG A   1      -7.275  -0.615 128.138  0.00  0.00    +0.019 A 
ATOM      6  C   LIG A   1      -7.752  -1.848 128.612  0.00  0.00    +0.064 A 
ATOM      7  O   LIG A   1      -7.387  -1.007 124.531  0.00  0.00    -0.481 OA
ATOM      8  C   LIG A   1      -7.891  -1.899 123.516  0.00  0.00    +0.123 C 
ATOM      9  C   LIG A   1      -8.245  -3.285 123.999  0.00  0.00    +0.020 C 
ATOM     10  C   LIG A   1      -8.282  -3.623 125.291  0.00  0.00    +0.015 C 
ATOM     11  C   LIG A   1      -9.127  -1.243 122.892  0.00  0.00    +0.060 C 
ATOM     12  C   LIG A   1      -6.779  -2.016 122.465  0.00  0.00    +0.060 C 
ENDROOT
BRANCH   1  13
ATOM     13  O   LIG A   1      -8.713  -3.989 128.113  0.00  0.00    -0.505 OA
ATOM     14  H   LIG A   1      -8.506  -4.687 127.467  0.00  0.00    +0.292 HD
ENDBRANCH   1  13
BRANCH   6  15
ATOM     15  C   LIG A   1      -7.868  -1.992 130.094  0.00  0.00    +0.190 C 
ATOM     16  O   LIG A   1      -7.641  -3.088 130.615  0.00  0.00    -0.287 OA
BRANCH  15  17
ATOM     17  C   LIG A   1      -8.305  -0.833 130.913  0.00  0.00    +0.052 C 
ATOM     18  C   LIG A   1      -7.408  -0.021 131.502  0.00  0.00    +0.012 C 
BRANCH  18  19
ATOM     19  C   LIG A   1      -7.780   1.153 132.308  0.00  0.00    -0.025 A 
ATOM     20  C   LIG A   1      -6.880   1.767 133.192  0.00  0.00    +0.011 A 
ATOM     21  C   LIG A   1      -7.263   2.875 133.955  0.00  0.00    +0.046 A 
ATOM     22  C   LIG A   1      -8.559   3.362 133.847  0.00  0.00    +0.117 A 
ATOM     23  C   LIG A   1      -9.476   2.754 132.998  0.00  0.00    +0.046 A 
ATOM     24  C   LIG A   1      -9.090   1.648 132.234  0.00  0.00    +0.011 A 
BRANCH  22  25
ATOM     25  O   LIG A   1      -8.973   4.441 134.569  0.00  0.00    -0.507 OA
ATOM     26  H   LIG A   1      -9.386   5.077 133.963  0.00  0.00    +0.292 HD
ENDBRANCH  22  25
ENDBRANCH  18  19
ENDBRANCH  15  17
ENDBRANCH   6  15
TORSDOF 5
ENDMDL
