MODEL 1
REMARK VINA RESULT:      -5.9      0.000      0.000
REMARK  Name = NuBBE_1801
REMARK  21 active torsions:
REMARK  status: ('A' for Active; 'I' for Inactive)
REMARK    1  A    between atoms: C_4  and  C_5
REMARK    2  A    between atoms: C_5  and  C_6
REMARK    3  A    between atoms: C_6  and  O_7
REMARK    4  A    between atoms: C_6  and  C_11
REMARK    5  A    between atoms: O_7  and  C_8
REMARK    6  A    between atoms: C_8  and  C_9
REMARK    7  A    between atoms: C_8  and  C_10
REMARK    8  A    between atoms: C_11  and  O_12
REMARK    9  A    between atoms: O_12  and  C_13
REMARK   10  A    between atoms: C_13  and  C_14
REMARK   11  A    between atoms: C_13  and  C_15
REMARK   12  A    between atoms: C_17  and  C_18
REMARK   13  A    between atoms: C_18  and  C_19
REMARK   14  A    between atoms: C_19  and  C_20
REMARK   15  A    between atoms: C_20  and  C_21
REMARK   16  A    between atoms: C_21  and  C_22
REMARK   17  A    between atoms: C_22  and  C_23
REMARK   18  A    between atoms: C_23  and  C_24
REMARK   19  A    between atoms: C_24  and  C_25
REMARK   20  A    between atoms: C_25  and  C_26
REMARK   21  A    between atoms: C_26  and  C_27
REMARK                            x       y       z     vdW  Elec       q    Type
REMARK                         _______ _______ _______ _____ _____    ______ ____
ROOT
ATOM      1  O   LIG A   1     -10.487   1.023 122.048  0.00  0.00    -0.251 OA
ATOM      2  C   LIG A   1      -9.724   0.251 122.631  0.00  0.00    +0.311 C 
ATOM      3  O   LIG A   1     -10.067  -1.012 123.014  0.00  0.00    -0.461 OA
ATOM      4  C   LIG A   1      -8.315   0.572 123.049  0.00  0.00    +0.104 C 
ATOM      5  C   LIG A   1      -7.771  -0.828 123.229  0.00  0.00    +0.059 C 
ATOM      6  C   LIG A   1      -8.976  -1.570 123.754  0.00  0.00    +0.177 C 
ENDROOT
BRANCH   6   7
ATOM      7  C   LIG A   1      -8.853  -3.066 123.514  0.00  0.00    +0.045 C 
BRANCH   7   8
ATOM      8  C   LIG A   1      -8.742  -3.867 124.814  0.00  0.00    +0.003 C 
BRANCH   8   9
ATOM      9  C   LIG A   1      -9.169  -3.047 126.037  0.00  0.00    +0.000 C 
BRANCH   9  10
ATOM     10  C   LIG A   1      -8.021  -2.881 127.035  0.00  0.00    -0.000 C 
BRANCH  10  11
ATOM     11  C   LIG A   1      -7.601  -1.427 127.232  0.00  0.00    -0.000 C 
BRANCH  11  12
ATOM     12  C   LIG A   1      -6.338  -1.132 126.411  0.00  0.00    -0.000 C 
BRANCH  12  13
ATOM     13  C   LIG A   1      -5.599  -2.410 125.998  0.00  0.00    -0.000 C 
BRANCH  13  14
ATOM     14  C   LIG A   1      -5.029  -2.321 124.574  0.00  0.00    -0.000 C 
BRANCH  14  15
ATOM     15  C   LIG A   1      -5.295  -3.604 123.778  0.00  0.00    -0.003 C 
ATOM     16  C   LIG A   1      -4.054  -4.475 123.629  0.00  0.00    +0.004 C 
ENDBRANCH  14  15
ENDBRANCH  13  14
ENDBRANCH  12  13
ENDBRANCH  11  12
ENDBRANCH  10  11
ENDBRANCH   9  10
ENDBRANCH   8   9
ENDBRANCH   7   8
ENDBRANCH   6   7
BRANCH   4  17
ATOM     17  C   LIG A   1      -8.353   1.458 124.301  0.00  0.00    +0.048 C 
BRANCH  17  18
ATOM     18  C   LIG A   1      -7.735   2.862 124.169  0.00  0.00    +0.145 C 
BRANCH  18  19
ATOM     19  C   LIG A   1      -7.513   3.277 122.700  0.00  0.00    +0.191 C 
BRANCH  19  20
ATOM     20  O   LIG A   1      -6.149   3.206 122.287  0.00  0.00    -0.375 OA
BRANCH  20  21
ATOM     21  C   LIG A   1      -5.941   3.608 120.925  0.00  0.00    +0.112 C 
ATOM     22  C   LIG A   1      -7.300   3.971 120.332  0.00  0.00    +0.037 C 
ATOM     23  C   LIG A   1      -4.998   4.805 120.806  0.00  0.00    +0.037 C 
ENDBRANCH  20  21
ENDBRANCH  19  20
ENDBRANCH  18  19
BRANCH  18  24
ATOM     24  O   LIG A   1      -6.578   2.941 125.008  0.00  0.00    -0.372 OA
BRANCH  24  25
ATOM     25  C   LIG A   1      -6.769   2.759 126.412  0.00  0.00    +0.112 C 
ATOM     26  C   LIG A   1      -5.461   2.435 127.123  0.00  0.00    +0.037 C 
ATOM     27  C   LIG A   1      -7.348   4.055 126.978  0.00  0.00    +0.037 C 
ENDBRANCH  24  25
ENDBRANCH  18  24
ENDBRANCH  17  18
ENDBRANCH   4  17
TORSDOF 16
ENDMDL
MODEL 2
REMARK VINA RESULT:      -5.8      2.321      3.619
REMARK  Name = NuBBE_1801
REMARK  21 active torsions:
REMARK  status: ('A' for Active; 'I' for Inactive)
REMARK    1  A    between atoms: C_4  and  C_5
REMARK    2  A    between atoms: C_5  and  C_6
REMARK    3  A    between atoms: C_6  and  O_7
REMARK    4  A    between atoms: C_6  and  C_11
REMARK    5  A    between atoms: O_7  and  C_8
REMARK    6  A    between atoms: C_8  and  C_9
REMARK    7  A    between atoms: C_8  and  C_10
REMARK    8  A    between atoms: C_11  and  O_12
REMARK    9  A    between atoms: O_12  and  C_13
REMARK   10  A    between atoms: C_13  and  C_14
REMARK   11  A    between atoms: C_13  and  C_15
REMARK   12  A    between atoms: C_17  and  C_18
REMARK   13  A    between atoms: C_18  and  C_19
REMARK   14  A    between atoms: C_19  and  C_20
REMARK   15  A    between atoms: C_20  and  C_21
REMARK   16  A    between atoms: C_21  and  C_22
REMARK   17  A    between atoms: C_22  and  C_23
REMARK   18  A    between atoms: C_23  and  C_24
REMARK   19  A    between atoms: C_24  and  C_25
REMARK   20  A    between atoms: C_25  and  C_26
REMARK   21  A    between atoms: C_26  and  C_27
REMARK                            x       y       z     vdW  Elec       q    Type
REMARK                         _______ _______ _______ _____ _____    ______ ____
ROOT
ATOM      1  O   LIG A   1      -8.446   2.114 126.960  0.00  0.00    -0.251 OA
ATOM      2  C   LIG A   1      -7.520   1.313 127.097  0.00  0.00    +0.311 C 
ATOM      3  O   LIG A   1      -7.505   0.322 128.034  0.00  0.00    -0.461 OA
ATOM      4  C   LIG A   1      -6.247   1.311 126.296  0.00  0.00    +0.104 C 
ATOM      5  C   LIG A   1      -5.781  -0.105 126.552  0.00  0.00    +0.059 C 
ATOM      6  C   LIG A   1      -6.234  -0.336 127.973  0.00  0.00    +0.177 C 
ENDROOT
BRANCH   6   7
ATOM      7  C   LIG A   1      -6.364  -1.819 128.280  0.00  0.00    +0.045 C 
BRANCH   7   8
ATOM      8  C   LIG A   1      -7.788  -2.218 128.676  0.00  0.00    +0.003 C 
BRANCH   8   9
ATOM      9  C   LIG A   1      -8.079  -3.694 128.378  0.00  0.00    +0.000 C 
BRANCH   9  10
ATOM     10  C   LIG A   1      -9.106  -3.851 127.254  0.00  0.00    -0.000 C 
BRANCH  10  11
ATOM     11  C   LIG A   1      -9.144  -2.659 126.302  0.00  0.00    -0.000 C 
BRANCH  11  12
ATOM     12  C   LIG A   1      -9.029  -3.146 124.850  0.00  0.00    -0.000 C 
BRANCH  12  13
ATOM     13  C   LIG A   1      -7.692  -3.840 124.572  0.00  0.00    -0.000 C 
BRANCH  13  14
ATOM     14  C   LIG A   1      -6.639  -2.875 124.006  0.00  0.00    -0.000 C 
BRANCH  14  15
ATOM     15  C   LIG A   1      -5.231  -3.212 124.514  0.00  0.00    -0.003 C 
ATOM     16  C   LIG A   1      -4.539  -4.277 123.674  0.00  0.00    +0.004 C 
ENDBRANCH  14  15
ENDBRANCH  13  14
ENDBRANCH  12  13
ENDBRANCH  11  12
ENDBRANCH  10  11
ENDBRANCH   9  10
ENDBRANCH   8   9
ENDBRANCH   7   8
ENDBRANCH   6   7
BRANCH   4  17
ATOM     17  C   LIG A   1      -5.333   2.435 126.801  0.00  0.00    +0.048 C 
BRANCH  17  18
ATOM     18  C   LIG A   1      -5.120   3.627 125.852  0.00  0.00    +0.145 C 
BRANCH  18  19
ATOM     19  C   LIG A   1      -5.800   3.425 124.482  0.00  0.00    +0.191 C 
BRANCH  19  20
ATOM     20  O   LIG A   1      -5.380   4.363 123.493  0.00  0.00    -0.375 OA
BRANCH  20  21
ATOM     21  C   LIG A   1      -5.932   4.112 122.192  0.00  0.00    +0.112 C 
ATOM     22  C   LIG A   1      -4.807   4.256 121.171  0.00  0.00    +0.037 C 
ATOM     23  C   LIG A   1      -6.546   2.716 122.078  0.00  0.00    +0.037 C 
ENDBRANCH  20  21
ENDBRANCH  19  20
ENDBRANCH  18  19
BRANCH  18  24
ATOM     24  O   LIG A   1      -3.724   3.938 125.802  0.00  0.00    -0.372 OA
BRANCH  24  25
ATOM     25  C   LIG A   1      -2.925   3.565 126.926  0.00  0.00    +0.112 C 
ATOM     26  C   LIG A   1      -1.596   2.957 126.498  0.00  0.00    +0.037 C 
ATOM     27  C   LIG A   1      -2.666   4.824 127.753  0.00  0.00    +0.037 C 
ENDBRANCH  24  25
ENDBRANCH  18  24
ENDBRANCH  17  18
ENDBRANCH   4  17
TORSDOF 16
ENDMDL
MODEL 3
REMARK VINA RESULT:      -5.6      2.002      3.943
REMARK  Name = NuBBE_1801
REMARK  21 active torsions:
REMARK  status: ('A' for Active; 'I' for Inactive)
REMARK    1  A    between atoms: C_4  and  C_5
REMARK    2  A    between atoms: C_5  and  C_6
REMARK    3  A    between atoms: C_6  and  O_7
REMARK    4  A    between atoms: C_6  and  C_11
REMARK    5  A    between atoms: O_7  and  C_8
REMARK    6  A    between atoms: C_8  and  C_9
REMARK    7  A    between atoms: C_8  and  C_10
REMARK    8  A    between atoms: C_11  and  O_12
REMARK    9  A    between atoms: O_12  and  C_13
REMARK   10  A    between atoms: C_13  and  C_14
REMARK   11  A    between atoms: C_13  and  C_15
REMARK   12  A    between atoms: C_17  and  C_18
REMARK   13  A    between atoms: C_18  and  C_19
REMARK   14  A    between atoms: C_19  and  C_20
REMARK   15  A    between atoms: C_20  and  C_21
REMARK   16  A    between atoms: C_21  and  C_22
REMARK   17  A    between atoms: C_22  and  C_23
REMARK   18  A    between atoms: C_23  and  C_24
REMARK   19  A    between atoms: C_24  and  C_25
REMARK   20  A    between atoms: C_25  and  C_26
REMARK   21  A    between atoms: C_26  and  C_27
REMARK                            x       y       z     vdW  Elec       q    Type
REMARK                         _______ _______ _______ _____ _____    ______ ____
ROOT
ATOM      1  O   LIG A   1     -11.036   0.734 122.622  0.00  0.00    -0.251 OA
ATOM      2  C   LIG A   1      -9.910   0.507 123.065  0.00  0.00    +0.311 C 
ATOM      3  O   LIG A   1      -9.501  -0.717 123.507  0.00  0.00    -0.461 OA
ATOM      4  C   LIG A   1      -8.818   1.527 123.230  0.00  0.00    +0.104 C 
ATOM      5  C   LIG A   1      -7.616   0.611 123.318  0.00  0.00    +0.059 C 
ATOM      6  C   LIG A   1      -8.182  -0.583 124.048  0.00  0.00    +0.177 C 
ENDROOT
BRANCH   6   7
ATOM      7  C   LIG A   1      -7.351  -1.831 123.796  0.00  0.00    +0.045 C 
BRANCH   7   8
ATOM      8  C   LIG A   1      -8.206  -3.094 123.665  0.00  0.00    +0.003 C 
BRANCH   8   9
ATOM      9  C   LIG A   1      -8.205  -3.929 124.951  0.00  0.00    +0.000 C 
BRANCH   9  10
ATOM     10  C   LIG A   1      -9.279  -3.454 125.933  0.00  0.00    -0.000 C 
BRANCH  10  11
ATOM     11  C   LIG A   1      -8.810  -3.456 127.385  0.00  0.00    -0.000 C 
BRANCH  11  12
ATOM     12  C   LIG A   1      -7.676  -2.437 127.569  0.00  0.00    -0.000 C 
BRANCH  12  13
ATOM     13  C   LIG A   1      -7.316  -2.223 129.043  0.00  0.00    -0.000 C 
BRANCH  13  14
ATOM     14  C   LIG A   1      -7.172  -3.549 129.807  0.00  0.00    -0.000 C 
BRANCH  14  15
ATOM     15  C   LIG A   1      -5.703  -3.871 130.108  0.00  0.00    -0.003 C 
ATOM     16  C   LIG A   1      -5.537  -5.101 130.991  0.00  0.00    +0.004 C 
ENDBRANCH  14  15
ENDBRANCH  13  14
ENDBRANCH  12  13
ENDBRANCH  11  12
ENDBRANCH  10  11
ENDBRANCH   9  10
ENDBRANCH   8   9
ENDBRANCH   7   8
ENDBRANCH   6   7
BRANCH   4  17
ATOM     17  C   LIG A   1      -9.115   2.386 124.467  0.00  0.00    +0.048 C 
BRANCH  17  18
ATOM     18  C   LIG A   1      -7.901   2.846 125.293  0.00  0.00    +0.145 C 
BRANCH  18  19
ATOM     19  C   LIG A   1      -7.959   2.363 126.756  0.00  0.00    +0.191 C 
BRANCH  19  20
ATOM     20  O   LIG A   1      -7.311   1.110 126.970  0.00  0.00    -0.375 OA
BRANCH  20  21
ATOM     21  C   LIG A   1      -5.880   1.203 127.003  0.00  0.00    +0.112 C 
ATOM     22  C   LIG A   1      -5.430   0.985 128.446  0.00  0.00    +0.037 C 
ATOM     23  C   LIG A   1      -5.206   0.170 126.099  0.00  0.00    +0.037 C 
ENDBRANCH  20  21
ENDBRANCH  19  20
ENDBRANCH  18  19
BRANCH  18  24
ATOM     24  O   LIG A   1      -7.730   4.257 125.121  0.00  0.00    -0.372 OA
BRANCH  24  25
ATOM     25  C   LIG A   1      -6.426   4.725 124.773  0.00  0.00    +0.112 C 
ATOM     26  C   LIG A   1      -5.489   4.734 125.974  0.00  0.00    +0.037 C 
ATOM     27  C   LIG A   1      -5.866   3.793 123.698  0.00  0.00    +0.037 C 
ENDBRANCH  24  25
ENDBRANCH  18  24
ENDBRANCH  17  18
ENDBRANCH   4  17
TORSDOF 16
ENDMDL
MODEL 4
REMARK VINA RESULT:      -5.5      4.365      7.481
REMARK  Name = NuBBE_1801
REMARK  21 active torsions:
REMARK  status: ('A' for Active; 'I' for Inactive)
REMARK    1  A    between atoms: C_4  and  C_5
REMARK    2  A    between atoms: C_5  and  C_6
REMARK    3  A    between atoms: C_6  and  O_7
REMARK    4  A    between atoms: C_6  and  C_11
REMARK    5  A    between atoms: O_7  and  C_8
REMARK    6  A    between atoms: C_8  and  C_9
REMARK    7  A    between atoms: C_8  and  C_10
REMARK    8  A    between atoms: C_11  and  O_12
REMARK    9  A    between atoms: O_12  and  C_13
REMARK   10  A    between atoms: C_13  and  C_14
REMARK   11  A    between atoms: C_13  and  C_15
REMARK   12  A    between atoms: C_17  and  C_18
REMARK   13  A    between atoms: C_18  and  C_19
REMARK   14  A    between atoms: C_19  and  C_20
REMARK   15  A    between atoms: C_20  and  C_21
REMARK   16  A    between atoms: C_21  and  C_22
REMARK   17  A    between atoms: C_22  and  C_23
REMARK   18  A    between atoms: C_23  and  C_24
REMARK   19  A    between atoms: C_24  and  C_25
REMARK   20  A    between atoms: C_25  and  C_26
REMARK   21  A    between atoms: C_26  and  C_27
REMARK                            x       y       z     vdW  Elec       q    Type
REMARK                         _______ _______ _______ _____ _____    ______ ____
ROOT
ATOM      1  O   LIG A   1      -7.962  -3.471 130.077  0.00  0.00    -0.251 OA
ATOM      2  C   LIG A   1      -7.893  -3.011 128.936  0.00  0.00    +0.311 C 
ATOM      3  O   LIG A   1      -8.638  -3.465 127.888  0.00  0.00    -0.461 OA
ATOM      4  C   LIG A   1      -6.965  -1.912 128.496  0.00  0.00    +0.104 C 
ATOM      5  C   LIG A   1      -7.664  -1.473 127.228  0.00  0.00    +0.059 C 
ATOM      6  C   LIG A   1      -8.218  -2.777 126.705  0.00  0.00    +0.177 C 
ENDROOT
BRANCH   6   7
ATOM      7  C   LIG A   1      -9.384  -2.542 125.758  0.00  0.00    +0.045 C 
BRANCH   7   8
ATOM      8  C   LIG A   1      -9.402  -3.528 124.587  0.00  0.00    +0.003 C 
BRANCH   8   9
ATOM      9  C   LIG A   1      -9.312  -2.819 123.231  0.00  0.00    +0.000 C 
BRANCH   9  10
ATOM     10  C   LIG A   1      -8.799  -1.384 123.378  0.00  0.00    -0.000 C 
BRANCH  10  11
ATOM     11  C   LIG A   1      -7.341  -1.221 122.956  0.00  0.00    -0.000 C 
BRANCH  11  12
ATOM     12  C   LIG A   1      -6.525  -0.629 124.114  0.00  0.00    -0.000 C 
BRANCH  12  13
ATOM     13  C   LIG A   1      -5.421  -1.576 124.593  0.00  0.00    -0.000 C 
BRANCH  13  14
ATOM     14  C   LIG A   1      -5.639  -3.019 124.112  0.00  0.00    -0.000 C 
BRANCH  14  15
ATOM     15  C   LIG A   1      -4.464  -3.515 123.260  0.00  0.00    -0.003 C 
ATOM     16  C   LIG A   1      -4.206  -5.007 123.419  0.00  0.00    +0.004 C 
ENDBRANCH  14  15
ENDBRANCH  13  14
ENDBRANCH  12  13
ENDBRANCH  11  12
ENDBRANCH  10  11
ENDBRANCH   9  10
ENDBRANCH   8   9
ENDBRANCH   7   8
ENDBRANCH   6   7
BRANCH   4  17
ATOM     17  C   LIG A   1      -5.550  -2.484 128.335  0.00  0.00    +0.048 C 
BRANCH  17  18
ATOM     18  C   LIG A   1      -4.643  -2.435 129.577  0.00  0.00    +0.145 C 
BRANCH  18  19
ATOM     19  C   LIG A   1      -4.551  -3.794 130.301  0.00  0.00    +0.191 C 
BRANCH  19  20
ATOM     20  O   LIG A   1      -4.965  -3.743 131.665  0.00  0.00    -0.375 OA
BRANCH  20  21
ATOM     21  C   LIG A   1      -4.036  -4.358 132.570  0.00  0.00    +0.112 C 
ATOM     22  C   LIG A   1      -3.429  -3.258 133.436  0.00  0.00    +0.037 C 
ATOM     23  C   LIG A   1      -4.699  -5.404 133.467  0.00  0.00    +0.037 C 
ENDBRANCH  20  21
ENDBRANCH  19  20
ENDBRANCH  18  19
BRANCH  18  24
ATOM     24  O   LIG A   1      -5.040  -1.331 130.398  0.00  0.00    -0.372 OA
BRANCH  24  25
ATOM     25  C   LIG A   1      -4.149  -0.218 130.482  0.00  0.00    +0.112 C 
ATOM     26  C   LIG A   1      -4.688   0.996 129.737  0.00  0.00    +0.037 C 
ATOM     27  C   LIG A   1      -3.973   0.129 131.960  0.00  0.00    +0.037 C 
ENDBRANCH  24  25
ENDBRANCH  18  24
ENDBRANCH  17  18
ENDBRANCH   4  17
TORSDOF 16
ENDMDL
MODEL 5
REMARK VINA RESULT:      -5.5      2.224      4.121
REMARK  Name = NuBBE_1801
REMARK  21 active torsions:
REMARK  status: ('A' for Active; 'I' for Inactive)
REMARK    1  A    between atoms: C_4  and  C_5
REMARK    2  A    between atoms: C_5  and  C_6
REMARK    3  A    between atoms: C_6  and  O_7
REMARK    4  A    between atoms: C_6  and  C_11
REMARK    5  A    between atoms: O_7  and  C_8
REMARK    6  A    between atoms: C_8  and  C_9
REMARK    7  A    between atoms: C_8  and  C_10
REMARK    8  A    between atoms: C_11  and  O_12
REMARK    9  A    between atoms: O_12  and  C_13
REMARK   10  A    between atoms: C_13  and  C_14
REMARK   11  A    between atoms: C_13  and  C_15
REMARK   12  A    between atoms: C_17  and  C_18
REMARK   13  A    between atoms: C_18  and  C_19
REMARK   14  A    between atoms: C_19  and  C_20
REMARK   15  A    between atoms: C_20  and  C_21
REMARK   16  A    between atoms: C_21  and  C_22
REMARK   17  A    between atoms: C_22  and  C_23
REMARK   18  A    between atoms: C_23  and  C_24
REMARK   19  A    between atoms: C_24  and  C_25
REMARK   20  A    between atoms: C_25  and  C_26
REMARK   21  A    between atoms: C_26  and  C_27
REMARK                            x       y       z     vdW  Elec       q    Type
REMARK                         _______ _______ _______ _____ _____    ______ ____
ROOT
ATOM      1  O   LIG A   1     -10.325   1.052 123.290  0.00  0.00    -0.251 OA
ATOM      2  C   LIG A   1      -9.409   0.256 123.499  0.00  0.00    +0.311 C 
ATOM      3  O   LIG A   1      -9.596  -1.016 123.954  0.00  0.00    -0.461 OA
ATOM      4  C   LIG A   1      -7.944   0.553 123.330  0.00  0.00    +0.104 C 
ATOM      5  C   LIG A   1      -7.401  -0.856 123.241  0.00  0.00    +0.059 C 
ATOM      6  C   LIG A   1      -8.312  -1.606 124.183  0.00  0.00    +0.177 C 
ENDROOT
BRANCH   6   7
ATOM      7  C   LIG A   1      -8.324  -3.094 123.874  0.00  0.00    +0.045 C 
BRANCH   7   8
ATOM      8  C   LIG A   1      -8.290  -3.961 125.135  0.00  0.00    +0.003 C 
BRANCH   8   9
ATOM      9  C   LIG A   1      -8.481  -3.133 126.411  0.00  0.00    +0.000 C 
BRANCH   9  10
ATOM     10  C   LIG A   1      -9.009  -3.989 127.565  0.00  0.00    -0.000 C 
BRANCH  10  11
ATOM     11  C   LIG A   1      -8.547  -3.502 128.936  0.00  0.00    -0.000 C 
BRANCH  11  12
ATOM     12  C   LIG A   1      -7.685  -2.241 128.779  0.00  0.00    -0.000 C 
BRANCH  12  13
ATOM     13  C   LIG A   1      -6.298  -2.401 129.411  0.00  0.00    -0.000 C 
BRANCH  13  14
ATOM     14  C   LIG A   1      -6.337  -3.225 130.706  0.00  0.00    -0.000 C 
BRANCH  14  15
ATOM     15  C   LIG A   1      -5.451  -4.473 130.610  0.00  0.00    -0.003 C 
ATOM     16  C   LIG A   1      -5.341  -5.224 131.930  0.00  0.00    +0.004 C 
ENDBRANCH  14  15
ENDBRANCH  13  14
ENDBRANCH  12  13
ENDBRANCH  11  12
ENDBRANCH  10  11
ENDBRANCH   9  10
ENDBRANCH   8   9
ENDBRANCH   7   8
ENDBRANCH   6   7
BRANCH   4  17
ATOM     17  C   LIG A   1      -7.462   1.398 124.517  0.00  0.00    +0.048 C 
BRANCH  17  18
ATOM     18  C   LIG A   1      -6.409   2.478 124.209  0.00  0.00    +0.145 C 
BRANCH  18  19
ATOM     19  C   LIG A   1      -5.839   3.133 125.483  0.00  0.00    +0.191 C 
BRANCH  19  20
ATOM     20  O   LIG A   1      -4.518   2.702 125.804  0.00  0.00    -0.375 OA
BRANCH  20  21
ATOM     21  C   LIG A   1      -3.659   3.764 126.246  0.00  0.00    +0.112 C 
ATOM     22  C   LIG A   1      -4.532   4.821 126.917  0.00  0.00    +0.037 C 
ATOM     23  C   LIG A   1      -2.594   3.283 127.231  0.00  0.00    +0.037 C 
ENDBRANCH  20  21
ENDBRANCH  19  20
ENDBRANCH  18  19
BRANCH  18  24
ATOM     24  O   LIG A   1      -6.946   3.387 123.242  0.00  0.00    -0.372 OA
BRANCH  24  25
ATOM     25  C   LIG A   1      -6.390   3.353 121.926  0.00  0.00    +0.112 C 
ATOM     26  C   LIG A   1      -7.421   3.723 120.867  0.00  0.00    +0.037 C 
ATOM     27  C   LIG A   1      -5.234   4.352 121.882  0.00  0.00    +0.037 C 
ENDBRANCH  24  25
ENDBRANCH  18  24
ENDBRANCH  17  18
ENDBRANCH   4  17
TORSDOF 16
ENDMDL
MODEL 6
REMARK VINA RESULT:      -5.5      1.683      2.469
REMARK  Name = NuBBE_1801
REMARK  21 active torsions:
REMARK  status: ('A' for Active; 'I' for Inactive)
REMARK    1  A    between atoms: C_4  and  C_5
REMARK    2  A    between atoms: C_5  and  C_6
REMARK    3  A    between atoms: C_6  and  O_7
REMARK    4  A    between atoms: C_6  and  C_11
REMARK    5  A    between atoms: O_7  and  C_8
REMARK    6  A    between atoms: C_8  and  C_9
REMARK    7  A    between atoms: C_8  and  C_10
REMARK    8  A    between atoms: C_11  and  O_12
REMARK    9  A    between atoms: O_12  and  C_13
REMARK   10  A    between atoms: C_13  and  C_14
REMARK   11  A    between atoms: C_13  and  C_15
REMARK   12  A    between atoms: C_17  and  C_18
REMARK   13  A    between atoms: C_18  and  C_19
REMARK   14  A    between atoms: C_19  and  C_20
REMARK   15  A    between atoms: C_20  and  C_21
REMARK   16  A    between atoms: C_21  and  C_22
REMARK   17  A    between atoms: C_22  and  C_23
REMARK   18  A    between atoms: C_23  and  C_24
REMARK   19  A    between atoms: C_24  and  C_25
REMARK   20  A    between atoms: C_25  and  C_26
REMARK   21  A    between atoms: C_26  and  C_27
REMARK                            x       y       z     vdW  Elec       q    Type
REMARK                         _______ _______ _______ _____ _____    ______ ____
ROOT
ATOM      1  O   LIG A   1     -10.583   0.636 122.300  0.00  0.00    -0.251 OA
ATOM      2  C   LIG A   1      -9.725  -0.050 122.857  0.00  0.00    +0.311 C 
ATOM      3  O   LIG A   1      -9.930  -1.333 123.273  0.00  0.00    -0.461 OA
ATOM      4  C   LIG A   1      -8.336   0.409 123.207  0.00  0.00    +0.104 C 
ATOM      5  C   LIG A   1      -7.654  -0.930 123.381  0.00  0.00    +0.059 C 
ATOM      6  C   LIG A   1      -8.759  -1.773 123.971  0.00  0.00    +0.177 C 
ENDROOT
BRANCH   6   7
ATOM      7  C   LIG A   1      -8.506  -3.254 123.746  0.00  0.00    +0.045 C 
BRANCH   7   8
ATOM      8  C   LIG A   1      -8.061  -3.978 125.019  0.00  0.00    +0.003 C 
BRANCH   8   9
ATOM      9  C   LIG A   1      -8.523  -3.253 126.288  0.00  0.00    +0.000 C 
BRANCH   9  10
ATOM     10  C   LIG A   1      -7.377  -2.481 126.946  0.00  0.00    -0.000 C 
BRANCH  10  11
ATOM     11  C   LIG A   1      -7.721  -1.967 128.341  0.00  0.00    -0.000 C 
BRANCH  11  12
ATOM     12  C   LIG A   1      -8.255  -3.118 129.206  0.00  0.00    -0.000 C 
BRANCH  12  13
ATOM     13  C   LIG A   1      -7.388  -3.368 130.445  0.00  0.00    -0.000 C 
BRANCH  13  14
ATOM     14  C   LIG A   1      -6.126  -4.181 130.120  0.00  0.00    -0.000 C 
BRANCH  14  15
ATOM     15  C   LIG A   1      -4.854  -3.337 130.273  0.00  0.00    -0.003 C 
ATOM     16  C   LIG A   1      -3.931  -3.434 129.066  0.00  0.00    +0.004 C 
ENDBRANCH  14  15
ENDBRANCH  13  14
ENDBRANCH  12  13
ENDBRANCH  11  12
ENDBRANCH  10  11
ENDBRANCH   9  10
ENDBRANCH   8   9
ENDBRANCH   7   8
ENDBRANCH   6   7
BRANCH   4  17
ATOM     17  C   LIG A   1      -8.402   1.311 124.447  0.00  0.00    +0.048 C 
BRANCH  17  18
ATOM     18  C   LIG A   1      -7.587   2.615 124.393  0.00  0.00    +0.145 C 
BRANCH  18  19
ATOM     19  C   LIG A   1      -7.545   3.232 122.979  0.00  0.00    +0.191 C 
BRANCH  19  20
ATOM     20  O   LIG A   1      -6.225   3.376 122.459  0.00  0.00    -0.375 OA
BRANCH  20  21
ATOM     21  C   LIG A   1      -6.185   3.542 121.034  0.00  0.00    +0.112 C 
ATOM     22  C   LIG A   1      -7.601   3.861 120.561  0.00  0.00    +0.037 C 
ATOM     23  C   LIG A   1      -5.240   4.663 120.602  0.00  0.00    +0.037 C 
ENDBRANCH  20  21
ENDBRANCH  19  20
ENDBRANCH  18  19
BRANCH  18  24
ATOM     24  O   LIG A   1      -6.310   2.391 125.000  0.00  0.00    -0.372 OA
BRANCH  24  25
ATOM     25  C   LIG A   1      -5.895   3.305 126.016  0.00  0.00    +0.112 C 
ATOM     26  C   LIG A   1      -5.882   2.653 127.393  0.00  0.00    +0.037 C 
ATOM     27  C   LIG A   1      -4.486   3.784 125.667  0.00  0.00    +0.037 C 
ENDBRANCH  24  25
ENDBRANCH  18  24
ENDBRANCH  17  18
ENDBRANCH   4  17
TORSDOF 16
ENDMDL
MODEL 7
REMARK VINA RESULT:      -5.4      3.804      6.474
REMARK  Name = NuBBE_1801
REMARK  21 active torsions:
REMARK  status: ('A' for Active; 'I' for Inactive)
REMARK    1  A    between atoms: C_4  and  C_5
REMARK    2  A    between atoms: C_5  and  C_6
REMARK    3  A    between atoms: C_6  and  O_7
REMARK    4  A    between atoms: C_6  and  C_11
REMARK    5  A    between atoms: O_7  and  C_8
REMARK    6  A    between atoms: C_8  and  C_9
REMARK    7  A    between atoms: C_8  and  C_10
REMARK    8  A    between atoms: C_11  and  O_12
REMARK    9  A    between atoms: O_12  and  C_13
REMARK   10  A    between atoms: C_13  and  C_14
REMARK   11  A    between atoms: C_13  and  C_15
REMARK   12  A    between atoms: C_17  and  C_18
REMARK   13  A    between atoms: C_18  and  C_19
REMARK   14  A    between atoms: C_19  and  C_20
REMARK   15  A    between atoms: C_20  and  C_21
REMARK   16  A    between atoms: C_21  and  C_22
REMARK   17  A    between atoms: C_22  and  C_23
REMARK   18  A    between atoms: C_23  and  C_24
REMARK   19  A    between atoms: C_24  and  C_25
REMARK   20  A    between atoms: C_25  and  C_26
REMARK   21  A    between atoms: C_26  and  C_27
REMARK                            x       y       z     vdW  Elec       q    Type
REMARK                         _______ _______ _______ _____ _____    ______ ____
ROOT
ATOM      1  O   LIG A   1      -6.518  -0.031 129.200  0.00  0.00    -0.251 OA
ATOM      2  C   LIG A   1      -7.024   0.488 128.204  0.00  0.00    +0.311 C 
ATOM      3  O   LIG A   1      -6.527   0.352 126.941  0.00  0.00    -0.461 OA
ATOM      4  C   LIG A   1      -8.236   1.378 128.208  0.00  0.00    +0.104 C 
ATOM      5  C   LIG A   1      -8.640   1.277 126.754  0.00  0.00    +0.059 C 
ATOM      6  C   LIG A   1      -7.302   1.174 126.061  0.00  0.00    +0.177 C 
ENDROOT
BRANCH   6   7
ATOM      7  C   LIG A   1      -7.437   0.540 124.687  0.00  0.00    +0.045 C 
BRANCH   7   8
ATOM      8  C   LIG A   1      -6.481  -0.638 124.482  0.00  0.00    +0.003 C 
BRANCH   8   9
ATOM      9  C   LIG A   1      -6.995  -1.624 123.426  0.00  0.00    +0.000 C 
BRANCH   9  10
ATOM     10  C   LIG A   1      -6.517  -3.050 123.706  0.00  0.00    -0.000 C 
BRANCH  10  11
ATOM     11  C   LIG A   1      -7.478  -3.846 124.584  0.00  0.00    -0.000 C 
BRANCH  11  12
ATOM     12  C   LIG A   1      -8.909  -3.320 124.402  0.00  0.00    -0.000 C 
BRANCH  12  13
ATOM     13  C   LIG A   1      -9.573  -2.959 125.736  0.00  0.00    -0.000 C 
BRANCH  13  14
ATOM     14  C   LIG A   1      -8.545  -2.691 126.846  0.00  0.00    -0.000 C 
BRANCH  14  15
ATOM     15  C   LIG A   1      -8.740  -3.637 128.037  0.00  0.00    -0.003 C 
ATOM     16  C   LIG A   1      -7.736  -3.393 129.156  0.00  0.00    +0.004 C 
ENDBRANCH  14  15
ENDBRANCH  13  14
ENDBRANCH  12  13
ENDBRANCH  11  12
ENDBRANCH  10  11
ENDBRANCH   9  10
ENDBRANCH   8   9
ENDBRANCH   7   8
ENDBRANCH   6   7
BRANCH   4  17
ATOM     17  C   LIG A   1      -7.835   2.771 128.712  0.00  0.00    +0.048 C 
BRANCH  17  18
ATOM     18  C   LIG A   1      -8.798   3.445 129.706  0.00  0.00    +0.145 C 
BRANCH  18  19
ATOM     19  C   LIG A   1      -8.920   4.966 129.477  0.00  0.00    +0.191 C 
BRANCH  19  20
ATOM     20  O   LIG A   1     -10.256   5.453 129.584  0.00  0.00    -0.375 OA
BRANCH  20  21
ATOM     21  C   LIG A   1     -10.385   6.588 130.452  0.00  0.00    +0.112 C 
ATOM     22  C   LIG A   1     -11.489   7.482 129.893  0.00  0.00    +0.037 C 
ATOM     23  C   LIG A   1     -10.732   6.190 131.887  0.00  0.00    +0.037 C 
ENDBRANCH  20  21
ENDBRANCH  19  20
ENDBRANCH  18  19
BRANCH  18  24
ATOM     24  O   LIG A   1      -8.441   3.054 131.036  0.00  0.00    -0.372 OA
BRANCH  24  25
ATOM     25  C   LIG A   1      -9.457   2.455 131.842  0.00  0.00    +0.112 C 
ATOM     26  C   LIG A   1      -9.384   0.934 131.805  0.00  0.00    +0.037 C 
ATOM     27  C   LIG A   1      -9.261   2.939 133.278  0.00  0.00    +0.037 C 
ENDBRANCH  24  25
ENDBRANCH  18  24
ENDBRANCH  17  18
ENDBRANCH   4  17
TORSDOF 16
ENDMDL
MODEL 8
REMARK VINA RESULT:      -5.4      2.305      5.294
REMARK  Name = NuBBE_1801
REMARK  21 active torsions:
REMARK  status: ('A' for Active; 'I' for Inactive)
REMARK    1  A    between atoms: C_4  and  C_5
REMARK    2  A    between atoms: C_5  and  C_6
REMARK    3  A    between atoms: C_6  and  O_7
REMARK    4  A    between atoms: C_6  and  C_11
REMARK    5  A    between atoms: O_7  and  C_8
REMARK    6  A    between atoms: C_8  and  C_9
REMARK    7  A    between atoms: C_8  and  C_10
REMARK    8  A    between atoms: C_11  and  O_12
REMARK    9  A    between atoms: O_12  and  C_13
REMARK   10  A    between atoms: C_13  and  C_14
REMARK   11  A    between atoms: C_13  and  C_15
REMARK   12  A    between atoms: C_17  and  C_18
REMARK   13  A    between atoms: C_18  and  C_19
REMARK   14  A    between atoms: C_19  and  C_20
REMARK   15  A    between atoms: C_20  and  C_21
REMARK   16  A    between atoms: C_21  and  C_22
REMARK   17  A    between atoms: C_22  and  C_23
REMARK   18  A    between atoms: C_23  and  C_24
REMARK   19  A    between atoms: C_24  and  C_25
REMARK   20  A    between atoms: C_25  and  C_26
REMARK   21  A    between atoms: C_26  and  C_27
REMARK                            x       y       z     vdW  Elec       q    Type
REMARK                         _______ _______ _______ _____ _____    ______ ____
ROOT
ATOM      1  O   LIG A   1      -5.621   4.597 123.241  0.00  0.00    -0.251 OA
ATOM      2  C   LIG A   1      -6.104   3.616 123.809  0.00  0.00    +0.311 C 
ATOM      3  O   LIG A   1      -7.109   2.856 123.288  0.00  0.00    -0.461 OA
ATOM      4  C   LIG A   1      -5.704   3.114 125.169  0.00  0.00    +0.104 C 
ATOM      5  C   LIG A   1      -6.237   1.700 125.092  0.00  0.00    +0.059 C 
ATOM      6  C   LIG A   1      -7.486   1.878 124.263  0.00  0.00    +0.177 C 
ENDROOT
BRANCH   6   7
ATOM      7  C   LIG A   1      -7.904   0.573 123.606  0.00  0.00    +0.045 C 
BRANCH   7   8
ATOM      8  C   LIG A   1      -6.723  -0.366 123.351  0.00  0.00    +0.003 C 
BRANCH   8   9
ATOM      9  C   LIG A   1      -7.176  -1.743 122.850  0.00  0.00    +0.000 C 
BRANCH   9  10
ATOM     10  C   LIG A   1      -8.701  -1.861 122.827  0.00  0.00    -0.000 C 
BRANCH  10  11
ATOM     11  C   LIG A   1      -9.212  -3.172 123.418  0.00  0.00    -0.000 C 
BRANCH  11  12
ATOM     12  C   LIG A   1      -9.534  -2.984 124.907  0.00  0.00    -0.000 C 
BRANCH  12  13
ATOM     13  C   LIG A   1      -8.379  -3.422 125.814  0.00  0.00    -0.000 C 
BRANCH  13  14
ATOM     14  C   LIG A   1      -7.674  -2.231 126.480  0.00  0.00    -0.000 C 
BRANCH  14  15
ATOM     15  C   LIG A   1      -7.827  -2.264 128.006  0.00  0.00    -0.003 C 
ATOM     16  C   LIG A   1      -8.536  -3.517 128.502  0.00  0.00    +0.004 C 
ENDBRANCH  14  15
ENDBRANCH  13  14
ENDBRANCH  12  13
ENDBRANCH  11  12
ENDBRANCH  10  11
ENDBRANCH   9  10
ENDBRANCH   8   9
ENDBRANCH   7   8
ENDBRANCH   6   7
BRANCH   4  17
ATOM     17  C   LIG A   1      -6.322   4.021 126.241  0.00  0.00    +0.048 C 
BRANCH  17  18
ATOM     18  C   LIG A   1      -5.583   4.093 127.589  0.00  0.00    +0.145 C 
BRANCH  18  19
ATOM     19  C   LIG A   1      -6.522   3.878 128.794  0.00  0.00    +0.191 C 
BRANCH  19  20
ATOM     20  O   LIG A   1      -7.895   3.748 128.431  0.00  0.00    -0.375 OA
BRANCH  20  21
ATOM     21  C   LIG A   1      -8.529   2.587 128.987  0.00  0.00    +0.112 C 
ATOM     22  C   LIG A   1      -8.559   1.508 127.907  0.00  0.00    +0.037 C 
ATOM     23  C   LIG A   1      -7.795   2.054 130.218  0.00  0.00    +0.037 C 
ENDBRANCH  20  21
ENDBRANCH  19  20
ENDBRANCH  18  19
BRANCH  18  24
ATOM     24  O   LIG A   1      -4.804   5.294 127.629  0.00  0.00    -0.372 OA
BRANCH  24  25
ATOM     25  C   LIG A   1      -3.388   5.165 127.498  0.00  0.00    +0.112 C 
ATOM     26  C   LIG A   1      -2.645   6.162 128.378  0.00  0.00    +0.037 C 
ATOM     27  C   LIG A   1      -3.008   3.742 127.909  0.00  0.00    +0.037 C 
ENDBRANCH  24  25
ENDBRANCH  18  24
ENDBRANCH  17  18
ENDBRANCH   4  17
TORSDOF 16
ENDMDL
MODEL 9
REMARK VINA RESULT:      -5.4      2.848      5.798
REMARK  Name = NuBBE_1801
REMARK  21 active torsions:
REMARK  status: ('A' for Active; 'I' for Inactive)
REMARK    1  A    between atoms: C_4  and  C_5
REMARK    2  A    between atoms: C_5  and  C_6
REMARK    3  A    between atoms: C_6  and  O_7
REMARK    4  A    between atoms: C_6  and  C_11
REMARK    5  A    between atoms: O_7  and  C_8
REMARK    6  A    between atoms: C_8  and  C_9
REMARK    7  A    between atoms: C_8  and  C_10
REMARK    8  A    between atoms: C_11  and  O_12
REMARK    9  A    between atoms: O_12  and  C_13
REMARK   10  A    between atoms: C_13  and  C_14
REMARK   11  A    between atoms: C_13  and  C_15
REMARK   12  A    between atoms: C_17  and  C_18
REMARK   13  A    between atoms: C_18  and  C_19
REMARK   14  A    between atoms: C_19  and  C_20
REMARK   15  A    between atoms: C_20  and  C_21
REMARK   16  A    between atoms: C_21  and  C_22
REMARK   17  A    between atoms: C_22  and  C_23
REMARK   18  A    between atoms: C_23  and  C_24
REMARK   19  A    between atoms: C_24  and  C_25
REMARK   20  A    between atoms: C_25  and  C_26
REMARK   21  A    between atoms: C_26  and  C_27
REMARK                            x       y       z     vdW  Elec       q    Type
REMARK                         _______ _______ _______ _____ _____    ______ ____
ROOT
ATOM      1  O   LIG A   1      -8.348   5.668 125.936  0.00  0.00    -0.251 OA
ATOM      2  C   LIG A   1      -8.099   4.493 125.661  0.00  0.00    +0.311 C 
ATOM      3  O   LIG A   1      -8.989   3.647 125.068  0.00  0.00    -0.461 OA
ATOM      4  C   LIG A   1      -6.805   3.786 125.957  0.00  0.00    +0.104 C 
ATOM      5  C   LIG A   1      -6.914   2.626 124.992  0.00  0.00    +0.059 C 
ATOM      6  C   LIG A   1      -8.398   2.344 125.002  0.00  0.00    +0.177 C 
ENDROOT
BRANCH   6   7
ATOM      7  C   LIG A   1      -8.829   1.603 123.748  0.00  0.00    +0.045 C 
BRANCH   7   8
ATOM      8  C   LIG A   1      -7.969   0.370 123.464  0.00  0.00    +0.003 C 
BRANCH   8   9
ATOM      9  C   LIG A   1      -8.817  -0.878 123.195  0.00  0.00    +0.000 C 
BRANCH   9  10
ATOM     10  C   LIG A   1      -7.952  -2.072 122.785  0.00  0.00    -0.000 C 
BRANCH  10  11
ATOM     11  C   LIG A   1      -6.470  -1.728 122.664  0.00  0.00    -0.000 C 
BRANCH  11  12
ATOM     12  C   LIG A   1      -5.671  -2.470 123.746  0.00  0.00    -0.000 C 
BRANCH  12  13
ATOM     13  C   LIG A   1      -5.407  -1.597 124.977  0.00  0.00    -0.000 C 
BRANCH  13  14
ATOM     14  C   LIG A   1      -5.939  -2.235 126.270  0.00  0.00    -0.000 C 
BRANCH  14  15
ATOM     15  C   LIG A   1      -7.383  -1.806 126.560  0.00  0.00    -0.003 C 
ATOM     16  C   LIG A   1      -8.386  -2.933 126.356  0.00  0.00    +0.004 C 
ENDBRANCH  14  15
ENDBRANCH  13  14
ENDBRANCH  12  13
ENDBRANCH  11  12
ENDBRANCH  10  11
ENDBRANCH   9  10
ENDBRANCH   8   9
ENDBRANCH   7   8
ENDBRANCH   6   7
BRANCH   4  17
ATOM     17  C   LIG A   1      -6.757   3.431 127.450  0.00  0.00    +0.048 C 
BRANCH  17  18
ATOM     18  C   LIG A   1      -5.830   4.288 128.330  0.00  0.00    +0.145 C 
BRANCH  18  19
ATOM     19  C   LIG A   1      -6.570   4.933 129.521  0.00  0.00    +0.191 C 
BRANCH  19  20
ATOM     20  O   LIG A   1      -5.919   6.094 130.035  0.00  0.00    -0.375 OA
BRANCH  20  21
ATOM     21  C   LIG A   1      -6.598   6.683 131.154  0.00  0.00    +0.112 C 
ATOM     22  C   LIG A   1      -8.099   6.586 130.894  0.00  0.00    +0.037 C 
ATOM     23  C   LIG A   1      -6.264   5.987 132.474  0.00  0.00    +0.037 C 
ENDBRANCH  20  21
ENDBRANCH  19  20
ENDBRANCH  18  19
BRANCH  18  24
ATOM     24  O   LIG A   1      -5.107   5.198 127.495  0.00  0.00    -0.372 OA
BRANCH  24  25
ATOM     25  C   LIG A   1      -3.682   5.090 127.482  0.00  0.00    +0.112 C 
ATOM     26  C   LIG A   1      -3.016   6.342 128.037  0.00  0.00    +0.037 C 
ATOM     27  C   LIG A   1      -3.297   3.886 128.341  0.00  0.00    +0.037 C 
ENDBRANCH  24  25
ENDBRANCH  18  24
ENDBRANCH  17  18
ENDBRANCH   4  17
TORSDOF 16
ENDMDL
