MODEL 1
REMARK VINA RESULT:      -7.8      0.000      0.000
REMARK  Name = NuBBE_2379
REMARK  9 active torsions:
REMARK  status: ('A' for Active; 'I' for Inactive)
REMARK    1  A    between atoms: C_1  and  C_26
REMARK    2  A    between atoms: C_1  and  C_27
REMARK    3  A    between atoms: C_11  and  O_20
REMARK    4  A    between atoms: C_12  and  O_18
REMARK    5  A    between atoms: C_13  and  C_14
REMARK    6  A    between atoms: C_14  and  C_15
REMARK    7  A    between atoms: C_14  and  C_16
REMARK    8  A    between atoms: O_18  and  C_19
REMARK    9  A    between atoms: O_20  and  C_21
REMARK                            x       y       z     vdW  Elec       q    Type
REMARK                         _______ _______ _______ _____ _____    ______ ____
ROOT
ATOM      1  C   LIG A   1      -6.781  -2.617 123.982  0.00  0.00    -0.031 C 
ATOM      2  C   LIG A   1      -6.854  -1.613 125.209  0.00  0.00    +0.020 C 
ATOM      3  C   LIG A   1      -8.311  -1.101 125.586  0.00  0.00    +0.100 C 
ATOM      4  C   LIG A   1      -9.055  -2.359 126.096  0.00  0.00    +0.319 C 
ATOM      5  O   LIG A   1     -10.154  -2.784 125.678  0.00  0.00    -0.250 OA
ATOM      6  O   LIG A   1      -8.362  -3.006 127.085  0.00  0.00    -0.456 OA
ATOM      7  C   LIG A   1      -7.205  -2.285 127.594  0.00  0.00    +0.207 C 
ATOM      8  C   LIG A   1      -7.657  -0.891 127.926  0.00  0.00    +0.001 A 
ATOM      9  C   LIG A   1      -8.222  -0.173 126.852  0.00  0.00    +0.022 A 
ATOM     10  C   LIG A   1      -8.670   1.140 127.095  0.00  0.00    +0.166 A 
ATOM     11  C   LIG A   1      -8.503   1.704 128.402  0.00  0.00    +0.165 A 
ATOM     12  C   LIG A   1      -7.940   0.947 129.469  0.00  0.00    +0.001 A 
ATOM     13  C   LIG A   1      -7.501  -0.349 129.199  0.00  0.00    +0.015 A 
ATOM     14  C   LIG A   1      -6.159  -2.138 126.494  0.00  0.00    +0.055 C 
ATOM     15  C   LIG A   1      -8.993  -0.511 124.338  0.00  0.00    +0.023 C 
ATOM     16  C   LIG A   1      -8.723  -1.249 123.015  0.00  0.00    +0.002 C 
ATOM     17  C   LIG A   1      -8.087  -2.619 123.156  0.00  0.00    +0.007 C 
ATOM     18  C   LIG A   1      -5.608  -2.168 123.074  0.00  0.00    +0.011 C 
ATOM     19  C   LIG A   1      -6.496  -4.096 124.345  0.00  0.00    +0.011 C 
ENDROOT
BRANCH  12  20
ATOM     20  C   LIG A   1      -7.774   1.493 130.890  0.00  0.00    +0.017 C 
ATOM     21  C   LIG A   1      -6.467   0.999 131.518  0.00  0.00    +0.012 C 
ATOM     22  C   LIG A   1      -8.931   1.126 131.841  0.00  0.00    +0.012 C 
ENDBRANCH  12  20
BRANCH  11  23
ATOM     23  O   LIG A   1      -9.002   2.940 128.754  0.00  0.00    -0.491 OA
ATOM     24  C   LIG A   1      -8.084   4.023 128.635  0.00  0.00    +0.277 C 
ENDBRANCH  11  23
BRANCH  10  25
ATOM     25  O   LIG A   1      -9.159   1.844 126.029  0.00  0.00    -0.491 OA
ATOM     26  C   LIG A   1      -8.244   2.691 125.334  0.00  0.00    +0.277 C 
ENDBRANCH  10  25
TORSDOF 3
ENDMDL
MODEL 2
REMARK VINA RESULT:      -7.6      3.764      8.298
REMARK  Name = NuBBE_2379
REMARK  9 active torsions:
REMARK  status: ('A' for Active; 'I' for Inactive)
REMARK    1  A    between atoms: C_1  and  C_26
REMARK    2  A    between atoms: C_1  and  C_27
REMARK    3  A    between atoms: C_11  and  O_20
REMARK    4  A    between atoms: C_12  and  O_18
REMARK    5  A    between atoms: C_13  and  C_14
REMARK    6  A    between atoms: C_14  and  C_15
REMARK    7  A    between atoms: C_14  and  C_16
REMARK    8  A    between atoms: O_18  and  C_19
REMARK    9  A    between atoms: O_20  and  C_21
REMARK                            x       y       z     vdW  Elec       q    Type
REMARK                         _______ _______ _______ _____ _____    ______ ____
ROOT
ATOM      1  C   LIG A   1     -12.282   7.509 129.218  0.00  0.00    -0.031 C 
ATOM      2  C   LIG A   1     -11.523   6.153 129.542  0.00  0.00    +0.020 C 
ATOM      3  C   LIG A   1      -9.972   6.140 129.199  0.00  0.00    +0.100 C 
ATOM      4  C   LIG A   1      -9.339   7.158 130.180  0.00  0.00    +0.319 C 
ATOM      5  O   LIG A   1      -8.610   8.124 129.867  0.00  0.00    -0.250 OA
ATOM      6  O   LIG A   1      -9.677   6.902 131.483  0.00  0.00    -0.456 OA
ATOM      7  C   LIG A   1     -10.363   5.638 131.699  0.00  0.00    +0.207 C 
ATOM      8  C   LIG A   1      -9.558   4.568 131.018  0.00  0.00    +0.001 A 
ATOM      9  C   LIG A   1      -9.356   4.760 129.635  0.00  0.00    +0.022 A 
ATOM     10  C   LIG A   1      -8.607   3.796 128.935  0.00  0.00    +0.166 A 
ATOM     11  C   LIG A   1      -8.114   2.648 129.638  0.00  0.00    +0.165 A 
ATOM     12  C   LIG A   1      -8.324   2.490 131.038  0.00  0.00    +0.001 A 
ATOM     13  C   LIG A   1      -9.074   3.459 131.706  0.00  0.00    +0.015 A 
ATOM     14  C   LIG A   1     -11.719   5.656 131.000  0.00  0.00    +0.055 C 
ATOM     15  C   LIG A   1      -9.760   6.564 127.734  0.00  0.00    +0.023 C 
ATOM     16  C   LIG A   1     -10.682   7.683 127.220  0.00  0.00    +0.002 C 
ATOM     17  C   LIG A   1     -11.454   8.429 128.293  0.00  0.00    +0.007 C 
ATOM     18  C   LIG A   1     -13.614   7.148 128.514  0.00  0.00    +0.011 C 
ATOM     19  C   LIG A   1     -12.670   8.368 130.448  0.00  0.00    +0.011 C 
ENDROOT
BRANCH  12  20
ATOM     20  C   LIG A   1      -7.788   1.301 131.839  0.00  0.00    +0.017 C 
ATOM     21  C   LIG A   1      -8.844   0.198 131.956  0.00  0.00    +0.012 C 
ATOM     22  C   LIG A   1      -7.318   1.666 133.262  0.00  0.00    +0.012 C 
ENDBRANCH  12  20
BRANCH  11  23
ATOM     23  O   LIG A   1      -7.288   1.710 129.056  0.00  0.00    -0.491 OA
ATOM     24  C   LIG A   1      -7.953   0.700 128.303  0.00  0.00    +0.277 C 
ENDBRANCH  11  23
BRANCH  10  25
ATOM     25  O   LIG A   1      -8.471   3.965 127.584  0.00  0.00    -0.491 OA
ATOM     26  C   LIG A   1      -7.151   4.178 127.085  0.00  0.00    +0.277 C 
ENDBRANCH  10  25
TORSDOF 3
ENDMDL
MODEL 3
REMARK VINA RESULT:      -7.3      2.681      3.848
REMARK  Name = NuBBE_2379
REMARK  9 active torsions:
REMARK  status: ('A' for Active; 'I' for Inactive)
REMARK    1  A    between atoms: C_1  and  C_26
REMARK    2  A    between atoms: C_1  and  C_27
REMARK    3  A    between atoms: C_11  and  O_20
REMARK    4  A    between atoms: C_12  and  O_18
REMARK    5  A    between atoms: C_13  and  C_14
REMARK    6  A    between atoms: C_14  and  C_15
REMARK    7  A    between atoms: C_14  and  C_16
REMARK    8  A    between atoms: O_18  and  C_19
REMARK    9  A    between atoms: O_20  and  C_21
REMARK                            x       y       z     vdW  Elec       q    Type
REMARK                         _______ _______ _______ _____ _____    ______ ____
ROOT
ATOM      1  C   LIG A   1      -7.882  -2.770 124.861  0.00  0.00    -0.031 C 
ATOM      2  C   LIG A   1      -7.092  -1.395 124.946  0.00  0.00    +0.020 C 
ATOM      3  C   LIG A   1      -7.958  -0.093 124.666  0.00  0.00    +0.100 C 
ATOM      4  C   LIG A   1      -8.956  -0.016 125.847  0.00  0.00    +0.319 C 
ATOM      5  O   LIG A   1     -10.199   0.079 125.754  0.00  0.00    -0.250 OA
ATOM      6  O   LIG A   1      -8.327  -0.078 127.062  0.00  0.00    -0.456 OA
ATOM      7  C   LIG A   1      -6.876   0.011 127.005  0.00  0.00    +0.207 C 
ATOM      8  C   LIG A   1      -6.534   1.205 126.161  0.00  0.00    +0.001 A 
ATOM      9  C   LIG A   1      -7.053   1.180 124.850  0.00  0.00    +0.022 A 
ATOM     10  C   LIG A   1      -6.772   2.271 124.005  0.00  0.00    +0.166 A 
ATOM     11  C   LIG A   1      -5.947   3.338 124.492  0.00  0.00    +0.165 A 
ATOM     12  C   LIG A   1      -5.449   3.339 125.826  0.00  0.00    +0.001 A 
ATOM     13  C   LIG A   1      -5.738   2.243 126.640  0.00  0.00    +0.015 A 
ATOM     14  C   LIG A   1      -6.309  -1.201 126.272  0.00  0.00    +0.055 C 
ATOM     15  C   LIG A   1      -8.690  -0.235 123.318  0.00  0.00    +0.023 C 
ATOM     16  C   LIG A   1      -9.232  -1.639 122.996  0.00  0.00    +0.002 C 
ATOM     17  C   LIG A   1      -9.251  -2.609 124.163  0.00  0.00    +0.007 C 
ATOM     18  C   LIG A   1      -7.013  -3.764 124.052  0.00  0.00    +0.011 C 
ATOM     19  C   LIG A   1      -8.167  -3.461 126.218  0.00  0.00    +0.011 C 
ENDROOT
BRANCH  12  20
ATOM     20  C   LIG A   1      -4.594   4.470 126.402  0.00  0.00    +0.017 C 
ATOM     21  C   LIG A   1      -3.121   4.058 126.484  0.00  0.00    +0.012 C 
ATOM     22  C   LIG A   1      -5.038   4.940 127.802  0.00  0.00    +0.012 C 
ENDBRANCH  12  20
BRANCH  11  23
ATOM     23  O   LIG A   1      -5.707   4.488 123.771  0.00  0.00    -0.491 OA
ATOM     24  C   LIG A   1      -4.857   4.328 122.638  0.00  0.00    +0.277 C 
ENDBRANCH  11  23
BRANCH  10  25
ATOM     25  O   LIG A   1      -7.232   2.204 122.718  0.00  0.00    -0.491 OA
ATOM     26  C   LIG A   1      -8.359   3.015 122.387  0.00  0.00    +0.277 C 
ENDBRANCH  10  25
TORSDOF 3
ENDMDL
MODEL 4
REMARK VINA RESULT:      -7.3      2.365      3.295
REMARK  Name = NuBBE_2379
REMARK  9 active torsions:
REMARK  status: ('A' for Active; 'I' for Inactive)
REMARK    1  A    between atoms: C_1  and  C_26
REMARK    2  A    between atoms: C_1  and  C_27
REMARK    3  A    between atoms: C_11  and  O_20
REMARK    4  A    between atoms: C_12  and  O_18
REMARK    5  A    between atoms: C_13  and  C_14
REMARK    6  A    between atoms: C_14  and  C_15
REMARK    7  A    between atoms: C_14  and  C_16
REMARK    8  A    between atoms: O_18  and  C_19
REMARK    9  A    between atoms: O_20  and  C_21
REMARK                            x       y       z     vdW  Elec       q    Type
REMARK                         _______ _______ _______ _____ _____    ______ ____
ROOT
ATOM      1  C   LIG A   1      -7.520  -1.653 123.263  0.00  0.00    -0.031 C 
ATOM      2  C   LIG A   1      -7.021  -1.890 124.751  0.00  0.00    +0.020 C 
ATOM      3  C   LIG A   1      -7.469  -0.788 125.805  0.00  0.00    +0.100 C 
ATOM      4  C   LIG A   1      -9.007  -0.935 125.905  0.00  0.00    +0.319 C 
ATOM      5  O   LIG A   1      -9.845  -0.019 125.755  0.00  0.00    -0.250 OA
ATOM      6  O   LIG A   1      -9.388  -2.223 126.173  0.00  0.00    -0.456 OA
ATOM      7  C   LIG A   1      -8.299  -3.125 126.513  0.00  0.00    +0.207 C 
ATOM      8  C   LIG A   1      -7.482  -2.458 127.583  0.00  0.00    +0.001 A 
ATOM      9  C   LIG A   1      -6.954  -1.198 127.233  0.00  0.00    +0.022 A 
ATOM     10  C   LIG A   1      -6.180  -0.514 128.191  0.00  0.00    +0.166 A 
ATOM     11  C   LIG A   1      -5.930  -1.136 129.458  0.00  0.00    +0.165 A 
ATOM     12  C   LIG A   1      -6.489  -2.404 129.785  0.00  0.00    +0.001 A 
ATOM     13  C   LIG A   1      -7.247  -3.061 128.815  0.00  0.00    +0.015 A 
ATOM     14  C   LIG A   1      -7.370  -3.294 125.316  0.00  0.00    +0.055 C 
ATOM     15  C   LIG A   1      -7.069   0.610 125.296  0.00  0.00    +0.023 C 
ATOM     16  C   LIG A   1      -7.224   0.841 123.783  0.00  0.00    +0.002 C 
ATOM     17  C   LIG A   1      -8.032  -0.212 123.047  0.00  0.00    +0.007 C 
ATOM     18  C   LIG A   1      -6.321  -1.914 122.317  0.00  0.00    +0.011 C 
ATOM     19  C   LIG A   1      -8.655  -2.592 122.781  0.00  0.00    +0.011 C 
ENDROOT
BRANCH  12  20
ATOM     20  C   LIG A   1      -6.279  -3.092 131.137  0.00  0.00    +0.017 C 
ATOM     21  C   LIG A   1      -5.873  -4.557 130.950  0.00  0.00    +0.012 C 
ATOM     22  C   LIG A   1      -7.515  -3.051 132.058  0.00  0.00    +0.012 C 
ENDBRANCH  12  20
BRANCH  11  23
ATOM     23  O   LIG A   1      -5.271  -0.498 130.488  0.00  0.00    -0.491 OA
ATOM     24  C   LIG A   1      -3.853  -0.641 130.482  0.00  0.00    +0.277 C 
ENDBRANCH  11  23
BRANCH  10  25
ATOM     25  O   LIG A   1      -5.626   0.679 127.816  0.00  0.00    -0.491 OA
ATOM     26  C   LIG A   1      -6.146   1.859 128.428  0.00  0.00    +0.277 C 
ENDBRANCH  10  25
TORSDOF 3
ENDMDL
MODEL 5
REMARK VINA RESULT:      -7.2      2.732      5.078
REMARK  Name = NuBBE_2379
REMARK  9 active torsions:
REMARK  status: ('A' for Active; 'I' for Inactive)
REMARK    1  A    between atoms: C_1  and  C_26
REMARK    2  A    between atoms: C_1  and  C_27
REMARK    3  A    between atoms: C_11  and  O_20
REMARK    4  A    between atoms: C_12  and  O_18
REMARK    5  A    between atoms: C_13  and  C_14
REMARK    6  A    between atoms: C_14  and  C_15
REMARK    7  A    between atoms: C_14  and  C_16
REMARK    8  A    between atoms: O_18  and  C_19
REMARK    9  A    between atoms: O_20  and  C_21
REMARK                            x       y       z     vdW  Elec       q    Type
REMARK                         _______ _______ _______ _____ _____    ______ ____
ROOT
ATOM      1  C   LIG A   1      -7.009   2.846 122.853  0.00  0.00    -0.031 C 
ATOM      2  C   LIG A   1      -6.949   1.594 123.828  0.00  0.00    +0.020 C 
ATOM      3  C   LIG A   1      -6.874   1.940 125.377  0.00  0.00    +0.100 C 
ATOM      4  C   LIG A   1      -8.238   2.595 125.706  0.00  0.00    +0.319 C 
ATOM      5  O   LIG A   1      -8.407   3.704 126.258  0.00  0.00    -0.250 OA
ATOM      6  O   LIG A   1      -9.295   1.821 125.305  0.00  0.00    -0.456 OA
ATOM      7  C   LIG A   1      -8.939   0.483 124.861  0.00  0.00    +0.207 C 
ATOM      8  C   LIG A   1      -8.060  -0.122 125.919  0.00  0.00    +0.001 A 
ATOM      9  C   LIG A   1      -6.886   0.604 126.207  0.00  0.00    +0.022 A 
ATOM     10  C   LIG A   1      -6.017   0.095 127.192  0.00  0.00    +0.166 A 
ATOM     11  C   LIG A   1      -6.339  -1.147 127.831  0.00  0.00    +0.165 A 
ATOM     12  C   LIG A   1      -7.540  -1.849 127.526  0.00  0.00    +0.001 A 
ATOM     13  C   LIG A   1      -8.379  -1.324 126.543  0.00  0.00    +0.015 A 
ATOM     14  C   LIG A   1      -8.086   0.563 123.599  0.00  0.00    +0.055 C 
ATOM     15  C   LIG A   1      -5.706   2.909 125.638  0.00  0.00    +0.023 C 
ATOM     16  C   LIG A   1      -5.482   3.991 124.567  0.00  0.00    +0.002 C 
ATOM     17  C   LIG A   1      -6.613   4.157 123.568  0.00  0.00    +0.007 C 
ATOM     18  C   LIG A   1      -6.022   2.584 121.688  0.00  0.00    +0.011 C 
ATOM     19  C   LIG A   1      -8.385   3.113 122.192  0.00  0.00    +0.011 C 
ENDROOT
BRANCH  12  20
ATOM     20  C   LIG A   1      -7.943  -3.160 128.207  0.00  0.00    +0.017 C 
ATOM     21  C   LIG A   1      -9.102  -3.830 127.464  0.00  0.00    +0.012 C 
ATOM     22  C   LIG A   1      -8.353  -2.997 129.685  0.00  0.00    +0.012 C 
ENDBRANCH  12  20
BRANCH  11  23
ATOM     23  O   LIG A   1      -5.600  -1.666 128.874  0.00  0.00    -0.491 OA
ATOM     24  C   LIG A   1      -4.583  -2.590 128.499  0.00  0.00    +0.277 C 
ENDBRANCH  11  23
BRANCH  10  25
ATOM     25  O   LIG A   1      -4.854   0.777 127.417  0.00  0.00    -0.491 OA
ATOM     26  C   LIG A   1      -4.734   1.467 128.661  0.00  0.00    +0.277 C 
ENDBRANCH  10  25
TORSDOF 3
ENDMDL
MODEL 6
REMARK VINA RESULT:      -7.0      1.954      4.003
REMARK  Name = NuBBE_2379
REMARK  9 active torsions:
REMARK  status: ('A' for Active; 'I' for Inactive)
REMARK    1  A    between atoms: C_1  and  C_26
REMARK    2  A    between atoms: C_1  and  C_27
REMARK    3  A    between atoms: C_11  and  O_20
REMARK    4  A    between atoms: C_12  and  O_18
REMARK    5  A    between atoms: C_13  and  C_14
REMARK    6  A    between atoms: C_14  and  C_15
REMARK    7  A    between atoms: C_14  and  C_16
REMARK    8  A    between atoms: O_18  and  C_19
REMARK    9  A    between atoms: O_20  and  C_21
REMARK                            x       y       z     vdW  Elec       q    Type
REMARK                         _______ _______ _______ _____ _____    ______ ____
ROOT
ATOM      1  C   LIG A   1      -8.027  -0.158 123.965  0.00  0.00    -0.031 C 
ATOM      2  C   LIG A   1      -8.323  -0.185 125.524  0.00  0.00    +0.020 C 
ATOM      3  C   LIG A   1      -7.125  -0.693 126.437  0.00  0.00    +0.100 C 
ATOM      4  C   LIG A   1      -6.027   0.389 126.291  0.00  0.00    +0.319 C 
ATOM      5  O   LIG A   1      -4.837   0.190 125.963  0.00  0.00    -0.250 OA
ATOM      6  O   LIG A   1      -6.502   1.647 126.553  0.00  0.00    -0.456 OA
ATOM      7  C   LIG A   1      -7.845   1.692 127.109  0.00  0.00    +0.207 C 
ATOM      8  C   LIG A   1      -7.883   0.733 128.265  0.00  0.00    +0.001 A 
ATOM      9  C   LIG A   1      -7.551  -0.600 127.948  0.00  0.00    +0.022 A 
ATOM     10  C   LIG A   1      -7.564  -1.552 128.986  0.00  0.00    +0.166 A 
ATOM     11  C   LIG A   1      -7.946  -1.140 130.305  0.00  0.00    +0.165 A 
ATOM     12  C   LIG A   1      -8.263   0.217 130.595  0.00  0.00    +0.001 A 
ATOM     13  C   LIG A   1      -8.247   1.137 129.546  0.00  0.00    +0.015 A 
ATOM     14  C   LIG A   1      -8.847   1.162 126.088  0.00  0.00    +0.055 C 
ATOM     15  C   LIG A   1      -6.635  -2.064 125.936  0.00  0.00    +0.023 C 
ATOM     16  C   LIG A   1      -6.608  -2.248 124.408  0.00  0.00    +0.002 C 
ATOM     17  C   LIG A   1      -6.766  -0.974 123.600  0.00  0.00    +0.007 C 
ATOM     18  C   LIG A   1      -9.253  -0.767 123.240  0.00  0.00    +0.011 C 
ATOM     19  C   LIG A   1      -7.824   1.249 123.348  0.00  0.00    +0.011 C 
ENDROOT
BRANCH  12  20
ATOM     20  C   LIG A   1      -8.643   0.711 131.994  0.00  0.00    +0.017 C 
ATOM     21  C   LIG A   1      -9.889   1.600 131.942  0.00  0.00    +0.012 C 
ATOM     22  C   LIG A   1      -7.523   1.498 132.705  0.00  0.00    +0.012 C 
ENDBRANCH  12  20
BRANCH  11  23
ATOM     23  O   LIG A   1      -7.888  -1.979 131.398  0.00  0.00    -0.491 OA
ATOM     24  C   LIG A   1      -6.582  -2.214 131.916  0.00  0.00    +0.277 C 
ENDBRANCH  11  23
BRANCH  10  25
ATOM     25  O   LIG A   1      -7.298  -2.851 128.651  0.00  0.00    -0.491 OA
ATOM     26  C   LIG A   1      -8.416  -3.727 128.505  0.00  0.00    +0.277 C 
ENDBRANCH  10  25
TORSDOF 3
ENDMDL
MODEL 7
REMARK VINA RESULT:      -7.0      3.487      5.480
REMARK  Name = NuBBE_2379
REMARK  9 active torsions:
REMARK  status: ('A' for Active; 'I' for Inactive)
REMARK    1  A    between atoms: C_1  and  C_26
REMARK    2  A    between atoms: C_1  and  C_27
REMARK    3  A    between atoms: C_11  and  O_20
REMARK    4  A    between atoms: C_12  and  O_18
REMARK    5  A    between atoms: C_13  and  C_14
REMARK    6  A    between atoms: C_14  and  C_15
REMARK    7  A    between atoms: C_14  and  C_16
REMARK    8  A    between atoms: O_18  and  C_19
REMARK    9  A    between atoms: O_20  and  C_21
REMARK                            x       y       z     vdW  Elec       q    Type
REMARK                         _______ _______ _______ _____ _____    ______ ____
ROOT
ATOM      1  C   LIG A   1      -6.056  -3.076 130.809  0.00  0.00    -0.031 C 
ATOM      2  C   LIG A   1      -5.412  -1.917 129.936  0.00  0.00    +0.020 C 
ATOM      3  C   LIG A   1      -6.441  -0.870 129.326  0.00  0.00    +0.100 C 
ATOM      4  C   LIG A   1      -7.024  -0.125 130.551  0.00  0.00    +0.319 C 
ATOM      5  O   LIG A   1      -8.237   0.011 130.820  0.00  0.00    -0.250 OA
ATOM      6  O   LIG A   1      -6.044   0.385 131.362  0.00  0.00    -0.456 OA
ATOM      7  C   LIG A   1      -4.699   0.315 130.815  0.00  0.00    +0.207 C 
ATOM      8  C   LIG A   1      -4.750   0.885 129.425  0.00  0.00    +0.001 A 
ATOM      9  C   LIG A   1      -5.647   0.242 128.548  0.00  0.00    +0.022 A 
ATOM     10  C   LIG A   1      -5.747   0.728 127.229  0.00  0.00    +0.166 A 
ATOM     11  C   LIG A   1      -4.916   1.823 126.824  0.00  0.00    +0.165 A 
ATOM     12  C   LIG A   1      -4.029   2.459 127.739  0.00  0.00    +0.001 A 
ATOM     13  C   LIG A   1      -3.946   1.954 129.037  0.00  0.00    +0.015 A 
ATOM     14  C   LIG A   1      -4.277  -1.142 130.657  0.00  0.00    +0.055 C 
ATOM     15  C   LIG A   1      -7.539  -1.616 128.545  0.00  0.00    +0.023 C 
ATOM     16  C   LIG A   1      -8.020  -2.940 129.164  0.00  0.00    +0.002 C 
ATOM     17  C   LIG A   1      -7.583  -3.180 130.597  0.00  0.00    +0.007 C 
ATOM     18  C   LIG A   1      -5.393  -4.410 130.386  0.00  0.00    +0.011 C 
ATOM     19  C   LIG A   1      -5.839  -2.959 132.339  0.00  0.00    +0.011 C 
ENDROOT
BRANCH  12  20
ATOM     20  C   LIG A   1      -3.147   3.652 127.363  0.00  0.00    +0.017 C 
ATOM     21  C   LIG A   1      -1.812   3.184 126.776  0.00  0.00    +0.012 C 
ATOM     22  C   LIG A   1      -2.847   4.604 128.539  0.00  0.00    +0.012 C 
ENDBRANCH  12  20
BRANCH  11  23
ATOM     23  O   LIG A   1      -5.021   2.425 125.588  0.00  0.00    -0.491 OA
ATOM     24  C   LIG A   1      -6.155   3.270 125.418  0.00  0.00    +0.277 C 
ENDBRANCH  11  23
BRANCH  10  25
ATOM     25  O   LIG A   1      -6.576   0.056 126.374  0.00  0.00    -0.491 OA
ATOM     26  C   LIG A   1      -5.962  -0.799 125.410  0.00  0.00    +0.277 C 
ENDBRANCH  10  25
TORSDOF 3
ENDMDL
MODEL 8
REMARK VINA RESULT:      -6.9      1.915      3.561
REMARK  Name = NuBBE_2379
REMARK  9 active torsions:
REMARK  status: ('A' for Active; 'I' for Inactive)
REMARK    1  A    between atoms: C_1  and  C_26
REMARK    2  A    between atoms: C_1  and  C_27
REMARK    3  A    between atoms: C_11  and  O_20
REMARK    4  A    between atoms: C_12  and  O_18
REMARK    5  A    between atoms: C_13  and  C_14
REMARK    6  A    between atoms: C_14  and  C_15
REMARK    7  A    between atoms: C_14  and  C_16
REMARK    8  A    between atoms: O_18  and  C_19
REMARK    9  A    between atoms: O_20  and  C_21
REMARK                            x       y       z     vdW  Elec       q    Type
REMARK                         _______ _______ _______ _____ _____    ______ ____
ROOT
ATOM      1  C   LIG A   1      -8.600  -1.655 123.526  0.00  0.00    -0.031 C 
ATOM      2  C   LIG A   1      -8.439  -1.231 125.047  0.00  0.00    +0.020 C 
ATOM      3  C   LIG A   1      -7.097  -0.457 125.401  0.00  0.00    +0.100 C 
ATOM      4  C   LIG A   1      -7.207   0.894 124.654  0.00  0.00    +0.319 C 
ATOM      5  O   LIG A   1      -6.360   1.371 123.867  0.00  0.00    -0.250 OA
ATOM      6  O   LIG A   1      -8.379   1.548 124.933  0.00  0.00    -0.456 OA
ATOM      7  C   LIG A   1      -9.163   0.963 126.010  0.00  0.00    +0.207 C 
ATOM      8  C   LIG A   1      -8.240   0.761 127.178  0.00  0.00    +0.001 A 
ATOM      9  C   LIG A   1      -7.118  -0.053 126.920  0.00  0.00    +0.022 A 
ATOM     10  C   LIG A   1      -6.209  -0.281 127.972  0.00  0.00    +0.166 A 
ATOM     11  C   LIG A   1      -6.476   0.287 129.261  0.00  0.00    +0.165 A 
ATOM     12  C   LIG A   1      -7.613   1.116 129.485  0.00  0.00    +0.001 A 
ATOM     13  C   LIG A   1      -8.498   1.321 128.426  0.00  0.00    +0.015 A 
ATOM     14  C   LIG A   1      -9.644  -0.427 125.607  0.00  0.00    +0.055 C 
ATOM     15  C   LIG A   1      -5.884  -1.272 124.915  0.00  0.00    +0.023 C 
ATOM     16  C   LIG A   1      -6.058  -1.993 123.567  0.00  0.00    +0.002 C 
ATOM     17  C   LIG A   1      -7.265  -1.562 122.754  0.00  0.00    +0.007 C 
ATOM     18  C   LIG A   1      -9.105  -3.119 123.494  0.00  0.00    +0.011 C 
ATOM     19  C   LIG A   1      -9.629  -0.833 122.708  0.00  0.00    +0.011 C 
ENDROOT
BRANCH  12  20
ATOM     20  C   LIG A   1      -7.921   1.773 130.833  0.00  0.00    +0.017 C 
ATOM     21  C   LIG A   1      -8.853   0.893 131.671  0.00  0.00    +0.012 C 
ATOM     22  C   LIG A   1      -8.559   3.172 130.716  0.00  0.00    +0.012 C 
ENDBRANCH  12  20
BRANCH  11  23
ATOM     23  O   LIG A   1      -5.592   0.200 130.316  0.00  0.00    -0.491 OA
ATOM     24  C   LIG A   1      -4.431   1.017 130.204  0.00  0.00    +0.277 C 
ENDBRANCH  11  23
BRANCH  10  25
ATOM     25  O   LIG A   1      -5.159  -1.121 127.724  0.00  0.00    -0.491 OA
ATOM     26  C   LIG A   1      -5.230  -2.434 128.281  0.00  0.00    +0.277 C 
ENDBRANCH  10  25
TORSDOF 3
ENDMDL
MODEL 9
REMARK VINA RESULT:      -6.8      4.441      8.879
REMARK  Name = NuBBE_2379
REMARK  9 active torsions:
REMARK  status: ('A' for Active; 'I' for Inactive)
REMARK    1  A    between atoms: C_1  and  C_26
REMARK    2  A    between atoms: C_1  and  C_27
REMARK    3  A    between atoms: C_11  and  O_20
REMARK    4  A    between atoms: C_12  and  O_18
REMARK    5  A    between atoms: C_13  and  C_14
REMARK    6  A    between atoms: C_14  and  C_15
REMARK    7  A    between atoms: C_14  and  C_16
REMARK    8  A    between atoms: O_18  and  C_19
REMARK    9  A    between atoms: O_20  and  C_21
REMARK                            x       y       z     vdW  Elec       q    Type
REMARK                         _______ _______ _______ _____ _____    ______ ____
ROOT
ATOM      1  C   LIG A   1      -2.461   5.686 131.645  0.00  0.00    -0.031 C 
ATOM      2  C   LIG A   1      -3.316   4.982 130.508  0.00  0.00    +0.020 C 
ATOM      3  C   LIG A   1      -4.733   5.640 130.214  0.00  0.00    +0.100 C 
ATOM      4  C   LIG A   1      -4.410   7.033 129.621  0.00  0.00    +0.319 C 
ATOM      5  O   LIG A   1      -4.853   8.128 130.032  0.00  0.00    -0.250 OA
ATOM      6  O   LIG A   1      -3.542   6.958 128.563  0.00  0.00    -0.456 OA
ATOM      7  C   LIG A   1      -3.275   5.611 128.086  0.00  0.00    +0.207 C 
ATOM      8  C   LIG A   1      -4.602   4.936 127.882  0.00  0.00    +0.001 A 
ATOM      9  C   LIG A   1      -5.423   4.873 129.027  0.00  0.00    +0.022 A 
ATOM     10  C   LIG A   1      -6.683   4.256 128.906  0.00  0.00    +0.166 A 
ATOM     11  C   LIG A   1      -7.064   3.689 127.645  0.00  0.00    +0.165 A 
ATOM     12  C   LIG A   1      -6.217   3.781 126.505  0.00  0.00    +0.001 A 
ATOM     13  C   LIG A   1      -4.972   4.393 126.655  0.00  0.00    +0.015 A 
ATOM     14  C   LIG A   1      -2.555   4.809 129.166  0.00  0.00    +0.055 C 
ATOM     15  C   LIG A   1      -5.533   5.757 131.524  0.00  0.00    +0.023 C 
ATOM     16  C   LIG A   1      -4.720   6.138 132.774  0.00  0.00    +0.002 C 
ATOM     17  C   LIG A   1      -3.317   6.646 132.502  0.00  0.00    +0.007 C 
ATOM     18  C   LIG A   1      -1.880   4.575 132.555  0.00  0.00    +0.011 C 
ATOM     19  C   LIG A   1      -1.246   6.512 131.154  0.00  0.00    +0.011 C 
ENDROOT
BRANCH  12  20
ATOM     20  C   LIG A   1      -6.594   3.222 125.130  0.00  0.00    +0.017 C 
ATOM     21  C   LIG A   1      -6.217   1.742 125.018  0.00  0.00    +0.012 C 
ATOM     22  C   LIG A   1      -5.945   3.972 123.950  0.00  0.00    +0.012 C 
ENDBRANCH  12  20
BRANCH  11  23
ATOM     23  O   LIG A   1      -8.315   3.158 127.411  0.00  0.00    -0.491 OA
ATOM     24  C   LIG A   1      -8.514   1.833 127.895  0.00  0.00    +0.277 C 
ENDBRANCH  11  23
BRANCH  10  25
ATOM     25  O   LIG A   1      -7.442   4.149 130.038  0.00  0.00    -0.491 OA
ATOM     26  C   LIG A   1      -8.627   4.942 130.105  0.00  0.00    +0.277 C 
ENDBRANCH  10  25
TORSDOF 3
ENDMDL
