MODEL 1
REMARK VINA RESULT:      -5.9      0.000      0.000
REMARK  Name = NuBBE_195
REMARK  4 active torsions:
REMARK  status: ('A' for Active; 'I' for Inactive)
REMARK    1  A    between atoms: O_1  and  C_2
REMARK    2  A    between atoms: C_2  and  C_3
REMARK    3  A    between atoms: C_5  and  O_6
REMARK    4  A    between atoms: C_7  and  O_8
REMARK                            x       y       z     vdW  Elec       q    Type
REMARK                         _______ _______ _______ _____ _____    ______ ____
ROOT
ATOM      1  C   LIG A   1     -12.979   9.218 129.721  0.00  0.00    +0.062 A 
ATOM      2  C   LIG A   1     -12.845   8.452 130.888  0.00  0.00    +0.064 A 
ATOM      3  C   LIG A   1     -12.472   7.120 130.769  0.00  0.00    +0.159 A 
ATOM      4  C   LIG A   1     -12.239   6.559 129.514  0.00  0.00    +0.158 A 
ATOM      5  C   LIG A   1     -12.391   7.309 128.356  0.00  0.00    +0.050 A 
ATOM      6  C   LIG A   1     -12.772   8.647 128.457  0.00  0.00    +0.019 A 
ENDROOT
BRANCH   1   7
ATOM      7  C   LIG A   1     -13.376  10.641 129.795  0.00  0.00    +0.337 C 
ATOM      8  O   LIG A   1     -13.347  11.291 130.824  0.00  0.00    -0.245 OA
BRANCH   7   9
ATOM      9  O   LIG A   1     -13.806  11.118 128.608  0.00  0.00    -0.477 OA
ATOM     10  H   LIG A   1     -13.099  11.453 128.025  0.00  0.00    +0.295 HD
ENDBRANCH   7   9
ENDBRANCH   1   7
BRANCH   3  11
ATOM     11  O   LIG A   1     -12.323   6.309 131.860  0.00  0.00    -0.503 OA
ATOM     12  H   LIG A   1     -13.193   6.173 132.276  0.00  0.00    +0.292 HD
ENDBRANCH   3  11
BRANCH   4  13
ATOM     13  O   LIG A   1     -11.866   5.250 129.411  0.00  0.00    -0.503 OA
ATOM     14  H   LIG A   1     -12.059   5.005 128.485  0.00  0.00    +0.292 HD
ENDBRANCH   4  13
TORSDOF 4
ENDMDL
MODEL 2
REMARK VINA RESULT:      -5.7      0.813      2.045
REMARK  Name = NuBBE_195
REMARK  4 active torsions:
REMARK  status: ('A' for Active; 'I' for Inactive)
REMARK    1  A    between atoms: O_1  and  C_2
REMARK    2  A    between atoms: C_2  and  C_3
REMARK    3  A    between atoms: C_5  and  O_6
REMARK    4  A    between atoms: C_7  and  O_8
REMARK                            x       y       z     vdW  Elec       q    Type
REMARK                         _______ _______ _______ _____ _____    ______ ____
ROOT
ATOM      1  C   LIG A   1     -12.978   9.265 129.618  0.00  0.00    +0.062 A 
ATOM      2  C   LIG A   1     -12.756   8.663 128.371  0.00  0.00    +0.064 A 
ATOM      3  C   LIG A   1     -12.361   7.332 128.336  0.00  0.00    +0.159 A 
ATOM      4  C   LIG A   1     -12.190   6.614 129.519  0.00  0.00    +0.158 A 
ATOM      5  C   LIG A   1     -12.390   7.212 130.756  0.00  0.00    +0.050 A 
ATOM      6  C   LIG A   1     -12.779   8.551 130.808  0.00  0.00    +0.019 A 
ENDROOT
BRANCH   1   7
ATOM      7  C   LIG A   1     -13.398  10.680 129.707  0.00  0.00    +0.337 C 
ATOM      8  O   LIG A   1     -13.339  11.332 130.732  0.00  0.00    -0.245 OA
BRANCH   7   9
ATOM      9  O   LIG A   1     -13.887  11.146 128.539  0.00  0.00    -0.477 OA
ATOM     10  H   LIG A   1     -13.663  10.604 127.759  0.00  0.00    +0.295 HD
ENDBRANCH   7   9
ENDBRANCH   1   7
BRANCH   3  11
ATOM     11  O   LIG A   1     -12.122   6.677 127.160  0.00  0.00    -0.503 OA
ATOM     12  H   LIG A   1     -11.554   5.907 127.335  0.00  0.00    +0.292 HD
ENDBRANCH   3  11
BRANCH   4  13
ATOM     13  O   LIG A   1     -11.808   5.304 129.472  0.00  0.00    -0.503 OA
ATOM     14  H   LIG A   1     -12.625   4.810 129.265  0.00  0.00    +0.292 HD
ENDBRANCH   4  13
TORSDOF 4
ENDMDL
MODEL 3
REMARK VINA RESULT:      -5.6      2.513      3.971
REMARK  Name = NuBBE_195
REMARK  4 active torsions:
REMARK  status: ('A' for Active; 'I' for Inactive)
REMARK    1  A    between atoms: O_1  and  C_2
REMARK    2  A    between atoms: C_2  and  C_3
REMARK    3  A    between atoms: C_5  and  O_6
REMARK    4  A    between atoms: C_7  and  O_8
REMARK                            x       y       z     vdW  Elec       q    Type
REMARK                         _______ _______ _______ _____ _____    ______ ____
ROOT
ATOM      1  C   LIG A   1     -11.999   7.164 129.624  0.00  0.00    +0.062 A 
ATOM      2  C   LIG A   1     -12.695   6.642 128.525  0.00  0.00    +0.064 A 
ATOM      3  C   LIG A   1     -12.260   6.968 127.247  0.00  0.00    +0.159 A 
ATOM      4  C   LIG A   1     -11.155   7.798 127.066  0.00  0.00    +0.158 A 
ATOM      5  C   LIG A   1     -10.475   8.333 128.152  0.00  0.00    +0.050 A 
ATOM      6  C   LIG A   1     -10.904   8.021 129.443  0.00  0.00    +0.019 A 
ENDROOT
BRANCH   1   7
ATOM      7  C   LIG A   1     -12.424   6.847 131.005  0.00  0.00    +0.337 C 
ATOM      8  O   LIG A   1     -13.278   7.475 131.602  0.00  0.00    -0.245 OA
BRANCH   7   9
ATOM      9  O   LIG A   1     -11.732   5.816 131.533  0.00  0.00    -0.477 OA
ATOM     10  H   LIG A   1     -11.447   5.144 130.885  0.00  0.00    +0.295 HD
ENDBRANCH   7   9
ENDBRANCH   1   7
BRANCH   3  11
ATOM     11  O   LIG A   1     -12.889   6.501 126.126  0.00  0.00    -0.503 OA
ATOM     12  H   LIG A   1     -12.276   6.556 125.372  0.00  0.00    +0.292 HD
ENDBRANCH   3  11
BRANCH   4  13
ATOM     13  O   LIG A   1     -10.732   8.106 125.805  0.00  0.00    -0.503 OA
ATOM     14  H   LIG A   1      -9.787   8.330 125.903  0.00  0.00    +0.292 HD
ENDBRANCH   4  13
TORSDOF 4
ENDMDL
MODEL 4
REMARK VINA RESULT:      -5.5      2.140      3.734
REMARK  Name = NuBBE_195
REMARK  4 active torsions:
REMARK  status: ('A' for Active; 'I' for Inactive)
REMARK    1  A    between atoms: O_1  and  C_2
REMARK    2  A    between atoms: C_2  and  C_3
REMARK    3  A    between atoms: C_5  and  O_6
REMARK    4  A    between atoms: C_7  and  O_8
REMARK                            x       y       z     vdW  Elec       q    Type
REMARK                         _______ _______ _______ _____ _____    ______ ____
ROOT
ATOM      1  C   LIG A   1     -11.282   7.378 128.147  0.00  0.00    +0.062 A 
ATOM      2  C   LIG A   1     -11.090   6.375 129.107  0.00  0.00    +0.064 A 
ATOM      3  C   LIG A   1     -11.742   6.491 130.328  0.00  0.00    +0.159 A 
ATOM      4  C   LIG A   1     -12.568   7.583 130.589  0.00  0.00    +0.158 A 
ATOM      5  C   LIG A   1     -12.745   8.588 129.647  0.00  0.00    +0.050 A 
ATOM      6  C   LIG A   1     -12.091   8.491 128.418  0.00  0.00    +0.019 A 
ENDROOT
BRANCH   1   7
ATOM      7  C   LIG A   1     -10.609   7.301 126.832  0.00  0.00    +0.337 C 
ATOM      8  O   LIG A   1     -10.898   8.014 125.889  0.00  0.00    -0.245 OA
BRANCH   7   9
ATOM      9  O   LIG A   1      -9.672   6.331 126.790  0.00  0.00    -0.477 OA
ATOM     10  H   LIG A   1      -9.681   5.793 125.976  0.00  0.00    +0.295 HD
ENDBRANCH   7   9
ENDBRANCH   1   7
BRANCH   3  11
ATOM     11  O   LIG A   1     -11.603   5.556 131.316  0.00  0.00    -0.503 OA
ATOM     12  H   LIG A   1     -11.253   5.987 132.115  0.00  0.00    +0.292 HD
ENDBRANCH   3  11
BRANCH   4  13
ATOM     13  O   LIG A   1     -13.210   7.682 131.790  0.00  0.00    -0.503 OA
ATOM     14  H   LIG A   1     -12.513   7.930 132.428  0.00  0.00    +0.292 HD
ENDBRANCH   4  13
TORSDOF 4
ENDMDL
MODEL 5
REMARK VINA RESULT:      -5.3      2.486      3.328
REMARK  Name = NuBBE_195
REMARK  4 active torsions:
REMARK  status: ('A' for Active; 'I' for Inactive)
REMARK    1  A    between atoms: O_1  and  C_2
REMARK    2  A    between atoms: C_2  and  C_3
REMARK    3  A    between atoms: C_5  and  O_6
REMARK    4  A    between atoms: C_7  and  O_8
REMARK                            x       y       z     vdW  Elec       q    Type
REMARK                         _______ _______ _______ _____ _____    ______ ____
ROOT
ATOM      1  C   LIG A   1     -11.138   7.772 129.564  0.00  0.00    +0.062 A 
ATOM      2  C   LIG A   1      -9.825   7.408 129.893  0.00  0.00    +0.064 A 
ATOM      3  C   LIG A   1      -9.611   6.659 131.043  0.00  0.00    +0.159 A 
ATOM      4  C   LIG A   1     -10.683   6.281 131.850  0.00  0.00    +0.158 A 
ATOM      5  C   LIG A   1     -11.982   6.657 131.538  0.00  0.00    +0.050 A 
ATOM      6  C   LIG A   1     -12.213   7.416 130.390  0.00  0.00    +0.019 A 
ENDROOT
BRANCH   1   7
ATOM      7  C   LIG A   1     -11.417   8.571 128.350  0.00  0.00    +0.337 C 
ATOM      8  O   LIG A   1     -10.769   8.477 127.325  0.00  0.00    -0.245 OA
BRANCH   7   9
ATOM      9  O   LIG A   1     -12.439   9.434 128.526  0.00  0.00    -0.477 OA
ATOM     10  H   LIG A   1     -12.810   9.797 127.700  0.00  0.00    +0.295 HD
ENDBRANCH   7   9
ENDBRANCH   1   7
BRANCH   3  11
ATOM     11  O   LIG A   1      -8.359   6.269 131.431  0.00  0.00    -0.503 OA
ATOM     12  H   LIG A   1      -8.364   6.095 132.388  0.00  0.00    +0.292 HD
ENDBRANCH   3  11
BRANCH   4  13
ATOM     13  O   LIG A   1     -10.460   5.539 132.974  0.00  0.00    -0.503 OA
ATOM     14  H   LIG A   1     -11.253   4.975 133.065  0.00  0.00    +0.292 HD
ENDBRANCH   4  13
TORSDOF 4
ENDMDL
MODEL 6
REMARK VINA RESULT:      -5.3      1.812      2.270
REMARK  Name = NuBBE_195
REMARK  4 active torsions:
REMARK  status: ('A' for Active; 'I' for Inactive)
REMARK    1  A    between atoms: O_1  and  C_2
REMARK    2  A    between atoms: C_2  and  C_3
REMARK    3  A    between atoms: C_5  and  O_6
REMARK    4  A    between atoms: C_7  and  O_8
REMARK                            x       y       z     vdW  Elec       q    Type
REMARK                         _______ _______ _______ _____ _____    ______ ____
ROOT
ATOM      1  C   LIG A   1     -12.183   8.172 129.310  0.00  0.00    +0.062 A 
ATOM      2  C   LIG A   1     -12.583   7.421 130.425  0.00  0.00    +0.064 A 
ATOM      3  C   LIG A   1     -11.620   6.702 131.121  0.00  0.00    +0.159 A 
ATOM      4  C   LIG A   1     -10.287   6.728 130.715  0.00  0.00    +0.158 A 
ATOM      5  C   LIG A   1      -9.891   7.453 129.600  0.00  0.00    +0.050 A 
ATOM      6  C   LIG A   1     -10.847   8.176 128.885  0.00  0.00    +0.019 A 
ENDROOT
BRANCH   1   7
ATOM      7  C   LIG A   1     -13.171   8.953 128.535  0.00  0.00    +0.337 C 
ATOM      8  O   LIG A   1     -13.887   8.466 127.680  0.00  0.00    -0.245 OA
BRANCH   7   9
ATOM      9  O   LIG A   1     -13.157  10.264 128.856  0.00  0.00    -0.477 OA
ATOM     10  H   LIG A   1     -13.093  10.868 128.093  0.00  0.00    +0.295 HD
ENDBRANCH   7   9
ENDBRANCH   1   7
BRANCH   3  11
ATOM     11  O   LIG A   1     -11.932   5.945 132.216  0.00  0.00    -0.503 OA
ATOM     12  H   LIG A   1     -11.146   5.868 132.784  0.00  0.00    +0.292 HD
ENDBRANCH   3  11
BRANCH   4  13
ATOM     13  O   LIG A   1      -9.348   6.022 131.412  0.00  0.00    -0.503 OA
ATOM     14  H   LIG A   1      -8.834   5.545 130.732  0.00  0.00    +0.292 HD
ENDBRANCH   4  13
TORSDOF 4
ENDMDL
MODEL 7
REMARK VINA RESULT:      -5.2      1.820      4.805
REMARK  Name = NuBBE_195
REMARK  4 active torsions:
REMARK  status: ('A' for Active; 'I' for Inactive)
REMARK    1  A    between atoms: O_1  and  C_2
REMARK    2  A    between atoms: C_2  and  C_3
REMARK    3  A    between atoms: C_5  and  O_6
REMARK    4  A    between atoms: C_7  and  O_8
REMARK                            x       y       z     vdW  Elec       q    Type
REMARK                         _______ _______ _______ _____ _____    ______ ____
ROOT
ATOM      1  C   LIG A   1     -11.475   6.312 130.183  0.00  0.00    +0.062 A 
ATOM      2  C   LIG A   1     -10.911   6.878 129.031  0.00  0.00    +0.064 A 
ATOM      3  C   LIG A   1     -11.359   8.126 128.616  0.00  0.00    +0.159 A 
ATOM      4  C   LIG A   1     -12.350   8.796 129.333  0.00  0.00    +0.158 A 
ATOM      5  C   LIG A   1     -12.924   8.229 130.462  0.00  0.00    +0.050 A 
ATOM      6  C   LIG A   1     -12.491   6.974 130.888  0.00  0.00    +0.019 A 
ENDROOT
BRANCH   1   7
ATOM      7  C   LIG A   1     -11.032   4.985 130.664  0.00  0.00    +0.337 C 
ATOM      8  O   LIG A   1     -11.120   3.969 130.000  0.00  0.00    -0.245 OA
BRANCH   7   9
ATOM      9  O   LIG A   1     -10.561   5.027 131.928  0.00  0.00    -0.477 OA
ATOM     10  H   LIG A   1     -10.264   4.167 132.279  0.00  0.00    +0.295 HD
ENDBRANCH   7   9
ENDBRANCH   1   7
BRANCH   3  11
ATOM     11  O   LIG A   1     -10.860   8.741 127.502  0.00  0.00    -0.503 OA
ATOM     12  H   LIG A   1     -11.581   9.213 127.049  0.00  0.00    +0.292 HD
ENDBRANCH   3  11
BRANCH   4  13
ATOM     13  O   LIG A   1     -12.777  10.025 128.919  0.00  0.00    -0.503 OA
ATOM     14  H   LIG A   1     -13.550  10.226 129.481  0.00  0.00    +0.292 HD
ENDBRANCH   4  13
TORSDOF 4
ENDMDL
MODEL 8
REMARK VINA RESULT:      -5.1     10.307     12.171
REMARK  Name = NuBBE_195
REMARK  4 active torsions:
REMARK  status: ('A' for Active; 'I' for Inactive)
REMARK    1  A    between atoms: O_1  and  C_2
REMARK    2  A    between atoms: C_2  and  C_3
REMARK    3  A    between atoms: C_5  and  O_6
REMARK    4  A    between atoms: C_7  and  O_8
REMARK                            x       y       z     vdW  Elec       q    Type
REMARK                         _______ _______ _______ _____ _____    ______ ____
ROOT
ATOM      1  C   LIG A   1      -6.739   3.670 121.677  0.00  0.00    +0.062 A 
ATOM      2  C   LIG A   1      -5.571   4.417 121.884  0.00  0.00    +0.064 A 
ATOM      3  C   LIG A   1      -5.078   5.185 120.836  0.00  0.00    +0.159 A 
ATOM      4  C   LIG A   1      -5.735   5.208 119.607  0.00  0.00    +0.158 A 
ATOM      5  C   LIG A   1      -6.880   4.454 119.392  0.00  0.00    +0.050 A 
ATOM      6  C   LIG A   1      -7.384   3.671 120.432  0.00  0.00    +0.019 A 
ENDROOT
BRANCH   1   7
ATOM      7  C   LIG A   1      -7.302   2.836 122.761  0.00  0.00    +0.337 C 
ATOM      8  O   LIG A   1      -6.916   1.708 123.006  0.00  0.00    -0.245 OA
BRANCH   7   9
ATOM      9  O   LIG A   1      -8.309   3.452 123.415  0.00  0.00    -0.477 OA
ATOM     10  H   LIG A   1      -8.213   4.420 123.488  0.00  0.00    +0.295 HD
ENDBRANCH   7   9
ENDBRANCH   1   7
BRANCH   3  11
ATOM     11  O   LIG A   1      -3.943   5.938 120.960  0.00  0.00    -0.503 OA
ATOM     12  H   LIG A   1      -4.189   6.878 120.998  0.00  0.00    +0.292 HD
ENDBRANCH   3  11
BRANCH   4  13
ATOM     13  O   LIG A   1      -5.245   5.972 118.587  0.00  0.00    -0.503 OA
ATOM     14  H   LIG A   1      -5.897   6.690 118.474  0.00  0.00    +0.292 HD
ENDBRANCH   4  13
TORSDOF 4
ENDMDL
MODEL 9
REMARK VINA RESULT:      -4.9      9.336     11.402
REMARK  Name = NuBBE_195
REMARK  4 active torsions:
REMARK  status: ('A' for Active; 'I' for Inactive)
REMARK    1  A    between atoms: O_1  and  C_2
REMARK    2  A    between atoms: C_2  and  C_3
REMARK    3  A    between atoms: C_5  and  O_6
REMARK    4  A    between atoms: C_7  and  O_8
REMARK                            x       y       z     vdW  Elec       q    Type
REMARK                         _______ _______ _______ _____ _____    ______ ____
ROOT
ATOM      1  C   LIG A   1      -8.157   3.084 122.364  0.00  0.00    +0.062 A 
ATOM      2  C   LIG A   1      -8.582   3.512 121.098  0.00  0.00    +0.064 A 
ATOM      3  C   LIG A   1      -7.644   4.062 120.233  0.00  0.00    +0.159 A 
ATOM      4  C   LIG A   1      -6.311   4.185 120.621  0.00  0.00    +0.158 A 
ATOM      5  C   LIG A   1      -5.891   3.781 121.881  0.00  0.00    +0.050 A 
ATOM      6  C   LIG A   1      -6.821   3.233 122.764  0.00  0.00    +0.019 A 
ENDROOT
BRANCH   1   7
ATOM      7  C   LIG A   1      -9.117   2.493 123.321  0.00  0.00    +0.337 C 
ATOM      8  O   LIG A   1      -9.802   1.519 123.066  0.00  0.00    -0.245 OA
BRANCH   7   9
ATOM      9  O   LIG A   1      -9.174   3.177 124.483  0.00  0.00    -0.477 OA
ATOM     10  H   LIG A   1      -9.172   4.148 124.382  0.00  0.00    +0.295 HD
ENDBRANCH   7   9
ENDBRANCH   1   7
BRANCH   3  11
ATOM     11  O   LIG A   1      -7.982   4.504 118.984  0.00  0.00    -0.503 OA
ATOM     12  H   LIG A   1      -7.170   4.637 118.464  0.00  0.00    +0.292 HD
ENDBRANCH   3  11
BRANCH   4  13
ATOM     13  O   LIG A   1      -5.397   4.721 119.760  0.00  0.00    -0.503 OA
ATOM     14  H   LIG A   1      -5.929   5.170 119.074  0.00  0.00    +0.292 HD
ENDBRANCH   4  13
TORSDOF 4
ENDMDL
