MODEL 1
REMARK VINA RESULT:      -6.2      0.000      0.000
REMARK  Name = NuBBE_1682
REMARK  14 active torsions:
REMARK  status: ('A' for Active; 'I' for Inactive)
REMARK    1  A    between atoms: C_1  and  C_2
REMARK    2  A    between atoms: C_2  and  C_3
REMARK    3  A    between atoms: C_3  and  C_4
REMARK    4  A    between atoms: C_5  and  C_6
REMARK    5  A    between atoms: C_6  and  C_7
REMARK    6  A    between atoms: C_8  and  C_9
REMARK    7  A    between atoms: C_9  and  C_10
REMARK    8  A    between atoms: C_10  and  C_11
REMARK    9  A    between atoms: C_11  and  C_12
REMARK   10  A    between atoms: C_12  and  C_13
REMARK   11  A    between atoms: C_13  and  C_14
REMARK   12  A    between atoms: C_14  and  C_15
REMARK   13  A    between atoms: C_15  and  C_16
REMARK   14  A    between atoms: C_18  and  O_19
REMARK                            x       y       z     vdW  Elec       q    Type
REMARK                         _______ _______ _______ _____ _____    ______ ____
ROOT
ATOM      1  C   LIG A   1      -6.663  -3.211 124.191  0.00  0.00    +0.000 C 
ENDROOT
BRANCH   1   2
ATOM      2  C   LIG A   1      -7.907  -4.004 124.521  0.00  0.00    +0.000 C 
BRANCH   2   3
ATOM      3  C   LIG A   1      -9.178  -3.230 124.749  0.00  0.00    +0.004 C 
BRANCH   3   4
ATOM      4  C   LIG A   1      -9.349  -2.738 126.184  0.00  0.00    +0.027 C 
BRANCH   4   6
ATOM      5  C   LIG A   1      -8.383  -3.615 128.355  0.00  0.00    -0.027 C 
ATOM      6  C   LIG A   1      -9.037  -3.792 127.201  0.00  0.00    -0.031 C 
BRANCH   5   7
ATOM      7  C   LIG A   1      -7.814  -2.340 128.922  0.00  0.00    +0.054 C 
BRANCH   7   9
ATOM      8  C   LIG A   1      -5.390  -3.142 129.368  0.00  0.00    -0.031 C 
ATOM      9  C   LIG A   1      -6.318  -2.372 128.774  0.00  0.00    -0.027 C 
BRANCH   8  10
ATOM     10  C   LIG A   1      -5.523  -4.300 130.321  0.00  0.00    +0.026 C 
BRANCH  10  12
ATOM     11  C   LIG A   1      -5.482  -5.057 132.771  0.00  0.00    +0.004 C 
ATOM     12  C   LIG A   1      -5.918  -4.005 131.774  0.00  0.00    +0.001 C 
ENDBRANCH  10  12
ENDBRANCH   8  10
ENDBRANCH   7   9
ENDBRANCH   5   7
ENDBRANCH   4   6
ENDBRANCH   3   4
ENDBRANCH   2   3
ENDBRANCH   1   2
BRANCH   1  13
ATOM     13  C   LIG A   1      -5.676  -2.557 125.156  0.00  0.00    +0.000 C 
BRANCH  13  14
ATOM     14  C   LIG A   1      -5.669  -0.994 125.234  0.00  0.00    +0.005 C 
BRANCH  14  15
ATOM     15  C   LIG A   1      -6.935  -0.143 125.577  0.00  0.00    +0.035 C 
BRANCH  15  16
ATOM     16  C   LIG A   1      -7.606   0.691 124.511  0.00  0.00    -0.044 A 
ATOM     17  C   LIG A   1      -8.796   0.289 123.981  0.00  0.00    +0.049 A 
ATOM     18  C   LIG A   1      -9.576   0.940 123.032  0.00  0.00    +0.117 A 
ATOM     19  C   LIG A   1      -9.169   2.186 122.615  0.00  0.00    +0.045 A 
ATOM     20  C   LIG A   1      -7.971   2.685 123.137  0.00  0.00    +0.004 A 
ATOM     21  C   LIG A   1      -7.192   1.951 124.064  0.00  0.00    +0.004 A 
BRANCH  18  22
ATOM     22  O   LIG A   1     -10.716   0.373 122.556  0.00  0.00    -0.507 OA
ATOM     23  H   LIG A   1     -11.213  -0.021 123.296  0.00  0.00    +0.292 HD
ENDBRANCH  18  22
ENDBRANCH  15  16
ENDBRANCH  14  15
ENDBRANCH  13  14
ENDBRANCH   1  13
TORSDOF 13
ENDMDL
MODEL 2
REMARK VINA RESULT:      -6.1      2.167      4.588
REMARK  Name = NuBBE_1682
REMARK  14 active torsions:
REMARK  status: ('A' for Active; 'I' for Inactive)
REMARK    1  A    between atoms: C_1  and  C_2
REMARK    2  A    between atoms: C_2  and  C_3
REMARK    3  A    between atoms: C_3  and  C_4
REMARK    4  A    between atoms: C_5  and  C_6
REMARK    5  A    between atoms: C_6  and  C_7
REMARK    6  A    between atoms: C_8  and  C_9
REMARK    7  A    between atoms: C_9  and  C_10
REMARK    8  A    between atoms: C_10  and  C_11
REMARK    9  A    between atoms: C_11  and  C_12
REMARK   10  A    between atoms: C_12  and  C_13
REMARK   11  A    between atoms: C_13  and  C_14
REMARK   12  A    between atoms: C_14  and  C_15
REMARK   13  A    between atoms: C_15  and  C_16
REMARK   14  A    between atoms: C_18  and  O_19
REMARK                            x       y       z     vdW  Elec       q    Type
REMARK                         _______ _______ _______ _____ _____    ______ ____
ROOT
ATOM      1  C   LIG A   1      -6.068  -2.622 128.016  0.00  0.00    +0.000 C 
ENDROOT
BRANCH   1   2
ATOM      2  C   LIG A   1      -7.176  -2.949 128.991  0.00  0.00    +0.000 C 
BRANCH   2   3
ATOM      3  C   LIG A   1      -8.508  -3.345 128.413  0.00  0.00    +0.004 C 
BRANCH   3   4
ATOM      4  C   LIG A   1      -8.479  -3.584 126.906  0.00  0.00    +0.027 C 
BRANCH   4   6
ATOM      5  C   LIG A   1      -9.178  -2.354 124.804  0.00  0.00    -0.027 C 
ATOM      6  C   LIG A   1      -9.188  -2.515 126.133  0.00  0.00    -0.031 C 
BRANCH   5   7
ATOM      7  C   LIG A   1      -8.478  -3.191 123.766  0.00  0.00    +0.054 C 
BRANCH   7   9
ATOM      8  C   LIG A   1      -6.315  -1.969 123.026  0.00  0.00    -0.031 C 
ATOM      9  C   LIG A   1      -7.615  -2.294 122.923  0.00  0.00    -0.027 C 
BRANCH   8  10
ATOM     10  C   LIG A   1      -5.242  -2.453 123.966  0.00  0.00    +0.026 C 
BRANCH  10  12
ATOM     11  C   LIG A   1      -4.583  -4.912 123.655  0.00  0.00    +0.004 C 
ATOM     12  C   LIG A   1      -4.213  -3.461 123.439  0.00  0.00    +0.001 C 
ENDBRANCH  10  12
ENDBRANCH   8  10
ENDBRANCH   7   9
ENDBRANCH   5   7
ENDBRANCH   4   6
ENDBRANCH   3   4
ENDBRANCH   2   3
ENDBRANCH   1   2
BRANCH   1  13
ATOM     13  C   LIG A   1      -5.706  -1.264 127.418  0.00  0.00    +0.000 C 
BRANCH  13  14
ATOM     14  C   LIG A   1      -6.458  -0.007 127.969  0.00  0.00    +0.005 C 
BRANCH  14  15
ATOM     15  C   LIG A   1      -7.791   0.534 127.357  0.00  0.00    +0.035 C 
BRANCH  15  16
ATOM     16  C   LIG A   1      -7.772   1.355 126.089  0.00  0.00    -0.044 A 
ATOM     17  C   LIG A   1      -8.175   2.657 126.115  0.00  0.00    +0.049 A 
ATOM     18  C   LIG A   1      -8.188   3.573 125.069  0.00  0.00    +0.117 A 
ATOM     19  C   LIG A   1      -7.658   3.173 123.864  0.00  0.00    +0.045 A 
ATOM     20  C   LIG A   1      -7.193   1.858 123.764  0.00  0.00    +0.004 A 
ATOM     21  C   LIG A   1      -7.255   0.954 124.852  0.00  0.00    +0.004 A 
BRANCH  18  22
ATOM     22  O   LIG A   1      -8.681   4.826 125.243  0.00  0.00    -0.507 OA
ATOM     23  H   LIG A   1      -9.433   4.793 125.862  0.00  0.00    +0.292 HD
ENDBRANCH  18  22
ENDBRANCH  15  16
ENDBRANCH  14  15
ENDBRANCH  13  14
ENDBRANCH   1  13
TORSDOF 13
ENDMDL
MODEL 3
REMARK VINA RESULT:      -6.0      3.585      5.485
REMARK  Name = NuBBE_1682
REMARK  14 active torsions:
REMARK  status: ('A' for Active; 'I' for Inactive)
REMARK    1  A    between atoms: C_1  and  C_2
REMARK    2  A    between atoms: C_2  and  C_3
REMARK    3  A    between atoms: C_3  and  C_4
REMARK    4  A    between atoms: C_5  and  C_6
REMARK    5  A    between atoms: C_6  and  C_7
REMARK    6  A    between atoms: C_8  and  C_9
REMARK    7  A    between atoms: C_9  and  C_10
REMARK    8  A    between atoms: C_10  and  C_11
REMARK    9  A    between atoms: C_11  and  C_12
REMARK   10  A    between atoms: C_12  and  C_13
REMARK   11  A    between atoms: C_13  and  C_14
REMARK   12  A    between atoms: C_14  and  C_15
REMARK   13  A    between atoms: C_15  and  C_16
REMARK   14  A    between atoms: C_18  and  O_19
REMARK                            x       y       z     vdW  Elec       q    Type
REMARK                         _______ _______ _______ _____ _____    ______ ____
ROOT
ATOM      1  C   LIG A   1      -9.392  -0.882 122.859  0.00  0.00    +0.000 C 
ENDROOT
BRANCH   1   2
ATOM      2  C   LIG A   1      -8.531  -2.110 122.670  0.00  0.00    +0.000 C 
BRANCH   2   3
ATOM      3  C   LIG A   1      -8.631  -3.189 123.714  0.00  0.00    +0.004 C 
BRANCH   3   4
ATOM      4  C   LIG A   1      -7.523  -3.135 124.763  0.00  0.00    +0.027 C 
BRANCH   4   6
ATOM      5  C   LIG A   1      -5.397  -1.757 124.695  0.00  0.00    -0.027 C 
ATOM      6  C   LIG A   1      -6.206  -2.700 124.195  0.00  0.00    -0.031 C 
BRANCH   5   7
ATOM      7  C   LIG A   1      -5.591  -0.918 125.931  0.00  0.00    +0.054 C 
BRANCH   7   9
ATOM      8  C   LIG A   1      -5.478   1.671 125.874  0.00  0.00    -0.031 C 
ATOM      9  C   LIG A   1      -5.975   0.475 125.514  0.00  0.00    -0.027 C 
BRANCH   8  10
ATOM     10  C   LIG A   1      -4.310   2.038 126.751  0.00  0.00    +0.026 C 
BRANCH  10  12
ATOM     11  C   LIG A   1      -2.003   3.152 126.642  0.00  0.00    +0.004 C 
ATOM     12  C   LIG A   1      -3.489   3.282 126.388  0.00  0.00    +0.001 C 
ENDBRANCH  10  12
ENDBRANCH   8  10
ENDBRANCH   7   9
ENDBRANCH   5   7
ENDBRANCH   4   6
ENDBRANCH   3   4
ENDBRANCH   2   3
ENDBRANCH   1   2
BRANCH   1  13
ATOM     13  C   LIG A   1      -9.099   0.357 123.703  0.00  0.00    +0.000 C 
BRANCH  13  14
ATOM     14  C   LIG A   1      -9.346   1.755 123.045  0.00  0.00    +0.005 C 
BRANCH  14  15
ATOM     15  C   LIG A   1      -8.220   2.820 122.839  0.00  0.00    +0.035 C 
BRANCH  15  16
ATOM     16  C   LIG A   1      -8.031   3.482 121.493  0.00  0.00    -0.044 A 
ATOM     17  C   LIG A   1      -6.785   3.867 121.094  0.00  0.00    +0.049 A 
ATOM     18  C   LIG A   1      -6.413   4.446 119.887  0.00  0.00    +0.117 A 
ATOM     19  C   LIG A   1      -7.381   4.586 118.920  0.00  0.00    +0.045 A 
ATOM     20  C   LIG A   1      -8.681   4.185 119.240  0.00  0.00    +0.004 A 
ATOM     21  C   LIG A   1      -9.011   3.649 120.509  0.00  0.00    +0.004 A 
BRANCH  18  22
ATOM     22  O   LIG A   1      -5.130   4.833 119.663  0.00  0.00    -0.507 OA
ATOM     23  H   LIG A   1      -4.919   5.596 120.231  0.00  0.00    +0.292 HD
ENDBRANCH  18  22
ENDBRANCH  15  16
ENDBRANCH  14  15
ENDBRANCH  13  14
ENDBRANCH   1  13
TORSDOF 13
ENDMDL
MODEL 4
REMARK VINA RESULT:      -5.9      1.525      3.660
REMARK  Name = NuBBE_1682
REMARK  14 active torsions:
REMARK  status: ('A' for Active; 'I' for Inactive)
REMARK    1  A    between atoms: C_1  and  C_2
REMARK    2  A    between atoms: C_2  and  C_3
REMARK    3  A    between atoms: C_3  and  C_4
REMARK    4  A    between atoms: C_5  and  C_6
REMARK    5  A    between atoms: C_6  and  C_7
REMARK    6  A    between atoms: C_8  and  C_9
REMARK    7  A    between atoms: C_9  and  C_10
REMARK    8  A    between atoms: C_10  and  C_11
REMARK    9  A    between atoms: C_11  and  C_12
REMARK   10  A    between atoms: C_12  and  C_13
REMARK   11  A    between atoms: C_13  and  C_14
REMARK   12  A    between atoms: C_14  and  C_15
REMARK   13  A    between atoms: C_15  and  C_16
REMARK   14  A    between atoms: C_18  and  O_19
REMARK                            x       y       z     vdW  Elec       q    Type
REMARK                         _______ _______ _______ _____ _____    ______ ____
ROOT
ATOM      1  C   LIG A   1      -8.491  -3.374 125.353  0.00  0.00    +0.000 C 
ENDROOT
BRANCH   1   2
ATOM      2  C   LIG A   1      -9.233  -3.141 126.649  0.00  0.00    +0.000 C 
BRANCH   2   3
ATOM      3  C   LIG A   1      -8.811  -3.955 127.842  0.00  0.00    +0.004 C 
BRANCH   3   4
ATOM      4  C   LIG A   1      -8.308  -3.116 129.014  0.00  0.00    +0.027 C 
BRANCH   4   6
ATOM      5  C   LIG A   1      -5.890  -3.276 129.755  0.00  0.00    -0.027 C 
ATOM      6  C   LIG A   1      -7.145  -3.742 129.721  0.00  0.00    -0.031 C 
BRANCH   5   7
ATOM      7  C   LIG A   1      -5.338  -2.030 129.115  0.00  0.00    +0.054 C 
BRANCH   7   9
ATOM      8  C   LIG A   1      -5.596  -1.457 126.600  0.00  0.00    -0.031 C 
ATOM      9  C   LIG A   1      -5.248  -2.247 127.630  0.00  0.00    -0.027 C 
BRANCH   8  10
ATOM     10  C   LIG A   1      -6.117  -0.044 126.565  0.00  0.00    +0.026 C 
BRANCH  10  12
ATOM     11  C   LIG A   1      -4.897   2.173 126.149  0.00  0.00    +0.004 C 
ATOM     12  C   LIG A   1      -5.232   1.073 127.133  0.00  0.00    +0.001 C 
ENDBRANCH  10  12
ENDBRANCH   8  10
ENDBRANCH   7   9
ENDBRANCH   5   7
ENDBRANCH   4   6
ENDBRANCH   3   4
ENDBRANCH   2   3
ENDBRANCH   1   2
BRANCH   1  13
ATOM     13  C   LIG A   1      -9.063  -3.468 123.941  0.00  0.00    +0.000 C 
BRANCH  13  14
ATOM     14  C   LIG A   1      -8.448  -2.531 122.848  0.00  0.00    +0.005 C 
BRANCH  14  15
ATOM     15  C   LIG A   1      -7.422  -1.395 123.167  0.00  0.00    +0.035 C 
BRANCH  15  16
ATOM     16  C   LIG A   1      -7.895   0.024 123.383  0.00  0.00    -0.044 A 
ATOM     17  C   LIG A   1      -9.181   0.260 123.772  0.00  0.00    +0.049 A 
ATOM     18  C   LIG A   1      -9.780   1.481 124.057  0.00  0.00    +0.117 A 
ATOM     19  C   LIG A   1      -8.985   2.603 124.036  0.00  0.00    +0.045 A 
ATOM     20  C   LIG A   1      -7.643   2.441 123.676  0.00  0.00    +0.004 A 
ATOM     21  C   LIG A   1      -7.102   1.176 123.344  0.00  0.00    +0.004 A 
BRANCH  18  22
ATOM     22  O   LIG A   1     -11.099   1.556 124.374  0.00  0.00    -0.507 OA
ATOM     23  H   LIG A   1     -11.213   2.143 125.143  0.00  0.00    +0.292 HD
ENDBRANCH  18  22
ENDBRANCH  15  16
ENDBRANCH  14  15
ENDBRANCH  13  14
ENDBRANCH   1  13
TORSDOF 13
ENDMDL
MODEL 5
REMARK VINA RESULT:      -5.9      2.667      7.667
REMARK  Name = NuBBE_1682
REMARK  14 active torsions:
REMARK  status: ('A' for Active; 'I' for Inactive)
REMARK    1  A    between atoms: C_1  and  C_2
REMARK    2  A    between atoms: C_2  and  C_3
REMARK    3  A    between atoms: C_3  and  C_4
REMARK    4  A    between atoms: C_5  and  C_6
REMARK    5  A    between atoms: C_6  and  C_7
REMARK    6  A    between atoms: C_8  and  C_9
REMARK    7  A    between atoms: C_9  and  C_10
REMARK    8  A    between atoms: C_10  and  C_11
REMARK    9  A    between atoms: C_11  and  C_12
REMARK   10  A    between atoms: C_12  and  C_13
REMARK   11  A    between atoms: C_13  and  C_14
REMARK   12  A    between atoms: C_14  and  C_15
REMARK   13  A    between atoms: C_15  and  C_16
REMARK   14  A    between atoms: C_18  and  O_19
REMARK                            x       y       z     vdW  Elec       q    Type
REMARK                         _______ _______ _______ _____ _____    ______ ____
ROOT
ATOM      1  C   LIG A   1      -8.540   1.021 126.855  0.00  0.00    +0.000 C 
ENDROOT
BRANCH   1   2
ATOM      2  C   LIG A   1      -9.710   0.502 126.051  0.00  0.00    +0.000 C 
BRANCH   2   3
ATOM      3  C   LIG A   1      -9.624   0.619 124.553  0.00  0.00    +0.004 C 
BRANCH   3   4
ATOM      4  C   LIG A   1      -8.878   1.862 124.075  0.00  0.00    +0.027 C 
BRANCH   4   6
ATOM      5  C   LIG A   1      -6.494   2.425 123.425  0.00  0.00    -0.027 C 
ATOM      6  C   LIG A   1      -7.502   1.555 123.568  0.00  0.00    -0.031 C 
BRANCH   5   7
ATOM      7  C   LIG A   1      -6.479   3.898 123.740  0.00  0.00    +0.054 C 
BRANCH   7   9
ATOM      8  C   LIG A   1      -4.821   4.428 121.819  0.00  0.00    -0.031 C 
ATOM      9  C   LIG A   1      -5.281   4.521 123.079  0.00  0.00    -0.027 C 
BRANCH   8  10
ATOM     10  C   LIG A   1      -5.388   3.741 120.604  0.00  0.00    +0.026 C 
BRANCH  10  12
ATOM     11  C   LIG A   1      -5.803   5.661 118.955  0.00  0.00    +0.004 C 
ATOM     12  C   LIG A   1      -6.394   4.508 119.737  0.00  0.00    +0.001 C 
ENDBRANCH  10  12
ENDBRANCH   8  10
ENDBRANCH   7   9
ENDBRANCH   5   7
ENDBRANCH   4   6
ENDBRANCH   3   4
ENDBRANCH   2   3
ENDBRANCH   1   2
BRANCH   1  13
ATOM     13  C   LIG A   1      -7.263   0.282 127.249  0.00  0.00    +0.000 C 
BRANCH  13  14
ATOM     14  C   LIG A   1      -7.401  -1.210 127.701  0.00  0.00    +0.005 C 
BRANCH  14  15
ATOM     15  C   LIG A   1      -6.975  -2.422 126.808  0.00  0.00    +0.035 C 
BRANCH  15  16
ATOM     16  C   LIG A   1      -7.312  -2.442 125.336  0.00  0.00    -0.044 A 
ATOM     17  C   LIG A   1      -8.527  -2.904 124.923  0.00  0.00    +0.049 A 
ATOM     18  C   LIG A   1      -9.028  -2.961 123.627  0.00  0.00    +0.117 A 
ATOM     19  C   LIG A   1      -8.264  -2.414 122.623  0.00  0.00    +0.045 A 
ATOM     20  C   LIG A   1      -7.015  -1.889 122.969  0.00  0.00    +0.004 A 
ATOM     21  C   LIG A   1      -6.536  -1.908 124.302  0.00  0.00    +0.004 A 
BRANCH  18  22
ATOM     22  O   LIG A   1     -10.243  -3.511 123.372  0.00  0.00    -0.507 OA
ATOM     23  H   LIG A   1     -10.175  -4.095 122.594  0.00  0.00    +0.292 HD
ENDBRANCH  18  22
ENDBRANCH  15  16
ENDBRANCH  14  15
ENDBRANCH  13  14
ENDBRANCH   1  13
TORSDOF 13
ENDMDL
MODEL 6
REMARK VINA RESULT:      -5.9      1.759      3.111
REMARK  Name = NuBBE_1682
REMARK  14 active torsions:
REMARK  status: ('A' for Active; 'I' for Inactive)
REMARK    1  A    between atoms: C_1  and  C_2
REMARK    2  A    between atoms: C_2  and  C_3
REMARK    3  A    between atoms: C_3  and  C_4
REMARK    4  A    between atoms: C_5  and  C_6
REMARK    5  A    between atoms: C_6  and  C_7
REMARK    6  A    between atoms: C_8  and  C_9
REMARK    7  A    between atoms: C_9  and  C_10
REMARK    8  A    between atoms: C_10  and  C_11
REMARK    9  A    between atoms: C_11  and  C_12
REMARK   10  A    between atoms: C_12  and  C_13
REMARK   11  A    between atoms: C_13  and  C_14
REMARK   12  A    between atoms: C_14  and  C_15
REMARK   13  A    between atoms: C_15  and  C_16
REMARK   14  A    between atoms: C_18  and  O_19
REMARK                            x       y       z     vdW  Elec       q    Type
REMARK                         _______ _______ _______ _____ _____    ______ ____
ROOT
ATOM      1  C   LIG A   1      -5.848  -0.167 125.367  0.00  0.00    +0.000 C 
ENDROOT
BRANCH   1   2
ATOM      2  C   LIG A   1      -6.523  -0.770 124.156  0.00  0.00    +0.000 C 
BRANCH   2   3
ATOM      3  C   LIG A   1      -6.036  -2.118 123.695  0.00  0.00    +0.004 C 
BRANCH   3   4
ATOM      4  C   LIG A   1      -6.544  -3.279 124.546  0.00  0.00    +0.027 C 
BRANCH   4   6
ATOM      5  C   LIG A   1      -9.022  -3.304 125.073  0.00  0.00    -0.027 C 
ATOM      6  C   LIG A   1      -7.983  -3.605 124.285  0.00  0.00    -0.031 C 
BRANCH   5   7
ATOM      7  C   LIG A   1      -9.016  -2.570 126.388  0.00  0.00    +0.054 C 
BRANCH   7   9
ATOM      8  C   LIG A   1      -8.252  -3.836 128.517  0.00  0.00    -0.031 C 
ATOM      9  C   LIG A   1      -9.096  -3.575 127.503  0.00  0.00    -0.027 C 
BRANCH   8  10
ATOM     10  C   LIG A   1      -6.975  -3.161 128.944  0.00  0.00    +0.026 C 
BRANCH  10  12
ATOM     11  C   LIG A   1      -8.108  -1.333 130.342  0.00  0.00    +0.004 C 
ATOM     12  C   LIG A   1      -6.984  -2.342 130.241  0.00  0.00    +0.001 C 
ENDBRANCH  10  12
ENDBRANCH   8  10
ENDBRANCH   7   9
ENDBRANCH   5   7
ENDBRANCH   4   6
ENDBRANCH   3   4
ENDBRANCH   2   3
ENDBRANCH   1   2
BRANCH   1  13
ATOM     13  C   LIG A   1      -6.208  -0.351 126.839  0.00  0.00    +0.000 C 
BRANCH  13  14
ATOM     14  C   LIG A   1      -6.975   0.814 127.548  0.00  0.00    +0.005 C 
BRANCH  14  15
ATOM     15  C   LIG A   1      -8.468   1.169 127.248  0.00  0.00    +0.035 C 
BRANCH  15  16
ATOM     16  C   LIG A   1      -8.917   1.453 125.833  0.00  0.00    -0.044 A 
ATOM     17  C   LIG A   1      -8.324   2.452 125.120  0.00  0.00    +0.049 A 
ATOM     18  C   LIG A   1      -8.570   2.830 123.805  0.00  0.00    +0.117 A 
ATOM     19  C   LIG A   1      -9.457   2.070 123.077  0.00  0.00    +0.045 A 
ATOM     20  C   LIG A   1     -10.086   1.004 123.730  0.00  0.00    +0.004 A 
ATOM     21  C   LIG A   1      -9.832   0.701 125.089  0.00  0.00    +0.004 A 
BRANCH  18  22
ATOM     22  O   LIG A   1      -7.934   3.895 123.253  0.00  0.00    -0.507 OA
ATOM     23  H   LIG A   1      -8.587   4.464 122.806  0.00  0.00    +0.292 HD
ENDBRANCH  18  22
ENDBRANCH  15  16
ENDBRANCH  14  15
ENDBRANCH  13  14
ENDBRANCH   1  13
TORSDOF 13
ENDMDL
MODEL 7
REMARK VINA RESULT:      -5.9      8.448      9.606
REMARK  Name = NuBBE_1682
REMARK  14 active torsions:
REMARK  status: ('A' for Active; 'I' for Inactive)
REMARK    1  A    between atoms: C_1  and  C_2
REMARK    2  A    between atoms: C_2  and  C_3
REMARK    3  A    between atoms: C_3  and  C_4
REMARK    4  A    between atoms: C_5  and  C_6
REMARK    5  A    between atoms: C_6  and  C_7
REMARK    6  A    between atoms: C_8  and  C_9
REMARK    7  A    between atoms: C_9  and  C_10
REMARK    8  A    between atoms: C_10  and  C_11
REMARK    9  A    between atoms: C_11  and  C_12
REMARK   10  A    between atoms: C_12  and  C_13
REMARK   11  A    between atoms: C_13  and  C_14
REMARK   12  A    between atoms: C_14  and  C_15
REMARK   13  A    between atoms: C_15  and  C_16
REMARK   14  A    between atoms: C_18  and  O_19
REMARK                            x       y       z     vdW  Elec       q    Type
REMARK                         _______ _______ _______ _____ _____    ______ ____
ROOT
ATOM      1  C   LIG A   1      -8.514   6.565 131.375  0.00  0.00    +0.000 C 
ENDROOT
BRANCH   1   2
ATOM      2  C   LIG A   1      -7.335   5.674 131.056  0.00  0.00    +0.000 C 
BRANCH   2   3
ATOM      3  C   LIG A   1      -7.439   4.806 129.830  0.00  0.00    +0.004 C 
BRANCH   3   4
ATOM      4  C   LIG A   1      -7.842   3.364 130.130  0.00  0.00    +0.027 C 
BRANCH   4   6
ATOM      5  C   LIG A   1     -10.047   2.566 131.090  0.00  0.00    -0.027 C 
ATOM      6  C   LIG A   1      -9.327   3.164 130.133  0.00  0.00    -0.031 C 
BRANCH   5   7
ATOM      7  C   LIG A   1      -9.565   1.964 132.384  0.00  0.00    +0.054 C 
BRANCH   7   9
ATOM      8  C   LIG A   1      -8.056   3.369 133.955  0.00  0.00    -0.031 C 
ATOM      9  C   LIG A   1      -9.210   3.076 133.332  0.00  0.00    -0.027 C 
BRANCH   8  10
ATOM     10  C   LIG A   1      -6.690   2.742 133.861  0.00  0.00    +0.026 C 
BRANCH  10  12
ATOM     11  C   LIG A   1      -4.720   3.157 132.271  0.00  0.00    +0.004 C 
ATOM     12  C   LIG A   1      -5.504   3.635 133.475  0.00  0.00    +0.001 C 
ENDBRANCH  10  12
ENDBRANCH   8  10
ENDBRANCH   7   9
ENDBRANCH   5   7
ENDBRANCH   4   6
ENDBRANCH   3   4
ENDBRANCH   2   3
ENDBRANCH   1   2
BRANCH   1  13
ATOM     13  C   LIG A   1      -9.669   6.295 132.337  0.00  0.00    +0.000 C 
BRANCH  13  14
ATOM     14  C   LIG A   1     -11.084   6.048 131.718  0.00  0.00    +0.005 C 
BRANCH  14  15
ATOM     15  C   LIG A   1     -12.185   7.154 131.619  0.00  0.00    +0.035 C 
BRANCH  15  16
ATOM     16  C   LIG A   1     -12.755   7.547 130.275  0.00  0.00    -0.044 A 
ATOM     17  C   LIG A   1     -12.906   8.865 129.960  0.00  0.00    +0.049 A 
ATOM     18  C   LIG A   1     -13.369   9.415 128.770  0.00  0.00    +0.117 A 
ATOM     19  C   LIG A   1     -13.637   8.555 127.731  0.00  0.00    +0.045 A 
ATOM     20  C   LIG A   1     -13.475   7.185 127.964  0.00  0.00    +0.004 A 
ATOM     21  C   LIG A   1     -13.050   6.681 129.217  0.00  0.00    +0.004 A 
BRANCH  18  22
ATOM     22  O   LIG A   1     -13.522  10.758 128.634  0.00  0.00    -0.507 OA
ATOM     23  H   LIG A   1     -12.660  11.194 128.758  0.00  0.00    +0.292 HD
ENDBRANCH  18  22
ENDBRANCH  15  16
ENDBRANCH  14  15
ENDBRANCH  13  14
ENDBRANCH   1  13
TORSDOF 13
ENDMDL
MODEL 8
REMARK VINA RESULT:      -5.9      1.652      2.157
REMARK  Name = NuBBE_1682
REMARK  14 active torsions:
REMARK  status: ('A' for Active; 'I' for Inactive)
REMARK    1  A    between atoms: C_1  and  C_2
REMARK    2  A    between atoms: C_2  and  C_3
REMARK    3  A    between atoms: C_3  and  C_4
REMARK    4  A    between atoms: C_5  and  C_6
REMARK    5  A    between atoms: C_6  and  C_7
REMARK    6  A    between atoms: C_8  and  C_9
REMARK    7  A    between atoms: C_9  and  C_10
REMARK    8  A    between atoms: C_10  and  C_11
REMARK    9  A    between atoms: C_11  and  C_12
REMARK   10  A    between atoms: C_12  and  C_13
REMARK   11  A    between atoms: C_13  and  C_14
REMARK   12  A    between atoms: C_14  and  C_15
REMARK   13  A    between atoms: C_15  and  C_16
REMARK   14  A    between atoms: C_18  and  O_19
REMARK                            x       y       z     vdW  Elec       q    Type
REMARK                         _______ _______ _______ _____ _____    ______ ____
ROOT
ATOM      1  C   LIG A   1      -5.514  -2.664 125.138  0.00  0.00    +0.000 C 
ENDROOT
BRANCH   1   2
ATOM      2  C   LIG A   1      -6.701  -2.394 126.034  0.00  0.00    +0.000 C 
BRANCH   2   3
ATOM      3  C   LIG A   1      -7.953  -3.188 125.777  0.00  0.00    +0.004 C 
BRANCH   3   4
ATOM      4  C   LIG A   1      -8.988  -3.085 126.895  0.00  0.00    +0.027 C 
BRANCH   4   6
ATOM      5  C   LIG A   1      -8.206  -3.344 129.291  0.00  0.00    -0.027 C 
ATOM      6  C   LIG A   1      -8.600  -3.857 128.119  0.00  0.00    -0.031 C 
BRANCH   5   7
ATOM      7  C   LIG A   1      -8.064  -1.895 129.677  0.00  0.00    +0.054 C 
BRANCH   7   9
ATOM      8  C   LIG A   1      -5.608  -1.774 130.499  0.00  0.00    -0.031 C 
ATOM      9  C   LIG A   1      -6.942  -1.768 130.670  0.00  0.00    -0.027 C 
BRANCH   8  10
ATOM     10  C   LIG A   1      -4.768  -1.822 129.250  0.00  0.00    +0.026 C 
BRANCH  10  12
ATOM     11  C   LIG A   1      -2.979  -3.659 129.200  0.00  0.00    +0.004 C 
ATOM     12  C   LIG A   1      -4.335  -3.194 128.717  0.00  0.00    +0.001 C 
ENDBRANCH  10  12
ENDBRANCH   8  10
ENDBRANCH   7   9
ENDBRANCH   5   7
ENDBRANCH   4   6
ENDBRANCH   3   4
ENDBRANCH   2   3
ENDBRANCH   1   2
BRANCH   1  13
ATOM     13  C   LIG A   1      -5.513  -3.078 123.668  0.00  0.00    +0.000 C 
BRANCH  13  14
ATOM     14  C   LIG A   1      -6.109  -2.068 122.633  0.00  0.00    +0.005 C 
BRANCH  14  15
ATOM     15  C   LIG A   1      -7.602  -1.604 122.643  0.00  0.00    +0.035 C 
BRANCH  15  16
ATOM     16  C   LIG A   1      -7.990  -0.292 123.284  0.00  0.00    -0.044 A 
ATOM     17  C   LIG A   1      -9.307   0.033 123.425  0.00  0.00    +0.049 A 
ATOM     18  C   LIG A   1      -9.852   1.165 124.020  0.00  0.00    +0.117 A 
ATOM     19  C   LIG A   1      -8.988   2.047 124.626  0.00  0.00    +0.045 A 
ATOM     20  C   LIG A   1      -7.620   1.768 124.554  0.00  0.00    +0.004 A 
ATOM     21  C   LIG A   1      -7.120   0.624 123.886  0.00  0.00    +0.004 A 
BRANCH  18  22
ATOM     22  O   LIG A   1     -11.194   1.373 124.026  0.00  0.00    -0.507 OA
ATOM     23  H   LIG A   1     -11.386   2.225 124.458  0.00  0.00    +0.292 HD
ENDBRANCH  18  22
ENDBRANCH  15  16
ENDBRANCH  14  15
ENDBRANCH  13  14
ENDBRANCH   1  13
TORSDOF 13
ENDMDL
MODEL 9
REMARK VINA RESULT:      -5.8      3.042      7.743
REMARK  Name = NuBBE_1682
REMARK  14 active torsions:
REMARK  status: ('A' for Active; 'I' for Inactive)
REMARK    1  A    between atoms: C_1  and  C_2
REMARK    2  A    between atoms: C_2  and  C_3
REMARK    3  A    between atoms: C_3  and  C_4
REMARK    4  A    between atoms: C_5  and  C_6
REMARK    5  A    between atoms: C_6  and  C_7
REMARK    6  A    between atoms: C_8  and  C_9
REMARK    7  A    between atoms: C_9  and  C_10
REMARK    8  A    between atoms: C_10  and  C_11
REMARK    9  A    between atoms: C_11  and  C_12
REMARK   10  A    between atoms: C_12  and  C_13
REMARK   11  A    between atoms: C_13  and  C_14
REMARK   12  A    between atoms: C_14  and  C_15
REMARK   13  A    between atoms: C_15  and  C_16
REMARK   14  A    between atoms: C_18  and  O_19
REMARK                            x       y       z     vdW  Elec       q    Type
REMARK                         _______ _______ _______ _____ _____    ______ ____
ROOT
ATOM      1  C   LIG A   1      -8.299  -3.237 128.403  0.00  0.00    +0.000 C 
ENDROOT
BRANCH   1   2
ATOM      2  C   LIG A   1      -8.991  -3.626 127.117  0.00  0.00    +0.000 C 
BRANCH   2   3
ATOM      3  C   LIG A   1      -9.189  -2.547 126.086  0.00  0.00    +0.004 C 
BRANCH   3   4
ATOM      4  C   LIG A   1      -8.934  -3.009 124.654  0.00  0.00    +0.027 C 
BRANCH   4   6
ATOM      5  C   LIG A   1      -6.531  -3.612 124.123  0.00  0.00    -0.027 C 
ATOM      6  C   LIG A   1      -7.761  -3.934 124.542  0.00  0.00    -0.031 C 
BRANCH   5   7
ATOM      7  C   LIG A   1      -6.018  -2.268 123.675  0.00  0.00    +0.054 C 
BRANCH   7   9
ATOM      8  C   LIG A   1      -5.722  -0.512 125.559  0.00  0.00    -0.031 C 
ATOM      9  C   LIG A   1      -5.357  -1.590 124.844  0.00  0.00    -0.027 C 
BRANCH   8  10
ATOM     10  C   LIG A   1      -6.959   0.345 125.502  0.00  0.00    +0.026 C 
BRANCH  10  12
ATOM     11  C   LIG A   1      -8.411   0.564 123.399  0.00  0.00    +0.004 C 
ATOM     12  C   LIG A   1      -7.254   1.112 124.207  0.00  0.00    +0.001 C 
ENDBRANCH  10  12
ENDBRANCH   8  10
ENDBRANCH   7   9
ENDBRANCH   5   7
ENDBRANCH   4   6
ENDBRANCH   3   4
ENDBRANCH   2   3
ENDBRANCH   1   2
BRANCH   1  13
ATOM     13  C   LIG A   1      -7.758  -1.868 128.808  0.00  0.00    +0.000 C 
BRANCH  13  14
ATOM     14  C   LIG A   1      -6.207  -1.665 128.779  0.00  0.00    +0.005 C 
BRANCH  14  15
ATOM     15  C   LIG A   1      -5.183  -2.847 128.824  0.00  0.00    +0.035 C 
BRANCH  15  16
ATOM     16  C   LIG A   1      -4.956  -3.612 130.107  0.00  0.00    -0.044 A 
ATOM     17  C   LIG A   1      -4.033  -3.169 131.008  0.00  0.00    +0.049 A 
ATOM     18  C   LIG A   1      -3.718  -3.711 132.249  0.00  0.00    +0.117 A 
ATOM     19  C   LIG A   1      -4.467  -4.776 132.690  0.00  0.00    +0.045 A 
ATOM     20  C   LIG A   1      -5.458  -5.271 131.836  0.00  0.00    +0.004 A 
ATOM     21  C   LIG A   1      -5.698  -4.709 130.558  0.00  0.00    +0.004 A 
BRANCH  18  22
ATOM     22  O   LIG A   1      -2.722  -3.185 133.008  0.00  0.00    -0.507 OA
ATOM     23  H   LIG A   1      -2.277  -2.475 132.510  0.00  0.00    +0.292 HD
ENDBRANCH  18  22
ENDBRANCH  15  16
ENDBRANCH  14  15
ENDBRANCH  13  14
ENDBRANCH   1  13
TORSDOF 13
ENDMDL
