MODEL 1
REMARK VINA RESULT:      -7.7      0.000      0.000
REMARK  Name = NuBBE_1659
REMARK  12 active torsions:
REMARK  status: ('A' for Active; 'I' for Inactive)
REMARK    1  A    between atoms: C_1  and  C_2
REMARK    2  A    between atoms: C_4  and  C_22
REMARK    3  A    between atoms: C_7  and  C_12
REMARK    4  A    between atoms: C_9  and  C_11
REMARK    5  A    between atoms: C_14  and  O_15
REMARK    6  A    between atoms: O_15  and  C_16
REMARK    7  A    between atoms: C_17  and  O_20
REMARK    8  A    between atoms: O_20  and  C_21
REMARK    9  A    between atoms: C_24  and  O_25
REMARK   10  A    between atoms: O_25  and  C_26
REMARK   11  A    between atoms: C_27  and  O_30
REMARK   12  A    between atoms: O_30  and  C_31
REMARK                            x       y       z     vdW  Elec       q    Type
REMARK                         _______ _______ _______ _____ _____    ______ ____
ROOT
ATOM      1  C   LIG A   1      -6.343  -1.990 123.838  0.00  0.00    +0.011 C 
ATOM      2  C   LIG A   1      -7.826  -1.854 123.486  0.00  0.00    +0.025 C 
ATOM      3  C   LIG A   1      -8.544  -0.575 123.961  0.00  0.00    +0.152 C 
ATOM      4  O   LIG A   1      -9.242  -0.904 125.173  0.00  0.00    -0.364 OA
ATOM      5  C   LIG A   1      -9.235  -2.323 125.404  0.00  0.00    +0.152 C 
ATOM      6  C   LIG A   1      -8.635  -2.973 124.151  0.00  0.00    +0.025 C 
ATOM      7  C   LIG A   1      -9.746  -3.461 123.214  0.00  0.00    +0.011 C 
ENDROOT
BRANCH   5   8
ATOM      8  C   LIG A   1      -8.537  -2.650 126.716  0.00  0.00    -0.015 A 
ATOM      9  C   LIG A   1      -7.479  -1.874 127.190  0.00  0.00    +0.055 A 
ATOM     10  C   LIG A   1      -6.807  -2.121 128.394  0.00  0.00    +0.162 A 
ATOM     11  C   LIG A   1      -7.239  -3.181 129.206  0.00  0.00    +0.162 A 
ATOM     12  C   LIG A   1      -8.337  -3.940 128.772  0.00  0.00    +0.050 A 
ATOM     13  C   LIG A   1      -8.977  -3.686 127.547  0.00  0.00    +0.010 A 
BRANCH  10  14
ATOM     14  O   LIG A   1      -5.806  -1.214 128.600  0.00  0.00    -0.491 OA
ATOM     15  C   LIG A   1      -6.135   0.130 128.899  0.00  0.00    +0.277 C 
ENDBRANCH  10  14
BRANCH  11  16
ATOM     16  O   LIG A   1      -6.580  -3.399 130.383  0.00  0.00    -0.491 OA
ATOM     17  C   LIG A   1      -5.537  -4.367 130.395  0.00  0.00    +0.277 C 
ENDBRANCH  11  16
ENDBRANCH   5   8
BRANCH   3  18
ATOM     18  C   LIG A   1      -7.725   0.695 124.111  0.00  0.00    -0.015 A 
ATOM     19  C   LIG A   1      -7.574   1.575 123.031  0.00  0.00    +0.055 A 
ATOM     20  C   LIG A   1      -6.782   2.728 123.137  0.00  0.00    +0.162 A 
ATOM     21  C   LIG A   1      -6.184   3.067 124.361  0.00  0.00    +0.162 A 
ATOM     22  C   LIG A   1      -6.384   2.240 125.462  0.00  0.00    +0.050 A 
ATOM     23  C   LIG A   1      -7.146   1.072 125.333  0.00  0.00    +0.010 A 
BRANCH  20  24
ATOM     24  O   LIG A   1      -6.574   3.594 122.083  0.00  0.00    -0.491 OA
ATOM     25  C   LIG A   1      -5.714   3.111 121.056  0.00  0.00    +0.277 C 
ENDBRANCH  20  24
BRANCH  21  26
ATOM     26  O   LIG A   1      -5.470   4.238 124.408  0.00  0.00    -0.491 OA
ATOM     27  C   LIG A   1      -6.073   5.304 125.134  0.00  0.00    +0.277 C 
ENDBRANCH  21  26
ENDBRANCH   3  18
TORSDOF 6
ENDMDL
MODEL 2
REMARK VINA RESULT:      -7.2      1.356      2.222
REMARK  Name = NuBBE_1659
REMARK  12 active torsions:
REMARK  status: ('A' for Active; 'I' for Inactive)
REMARK    1  A    between atoms: C_1  and  C_2
REMARK    2  A    between atoms: C_4  and  C_22
REMARK    3  A    between atoms: C_7  and  C_12
REMARK    4  A    between atoms: C_9  and  C_11
REMARK    5  A    between atoms: C_14  and  O_15
REMARK    6  A    between atoms: O_15  and  C_16
REMARK    7  A    between atoms: C_17  and  O_20
REMARK    8  A    between atoms: O_20  and  C_21
REMARK    9  A    between atoms: C_24  and  O_25
REMARK   10  A    between atoms: O_25  and  C_26
REMARK   11  A    between atoms: C_27  and  O_30
REMARK   12  A    between atoms: O_30  and  C_31
REMARK                            x       y       z     vdW  Elec       q    Type
REMARK                         _______ _______ _______ _____ _____    ______ ____
ROOT
ATOM      1  C   LIG A   1      -6.306  -1.277 124.349  0.00  0.00    +0.011 C 
ATOM      2  C   LIG A   1      -7.741  -1.320 123.817  0.00  0.00    +0.025 C 
ATOM      3  C   LIG A   1      -8.699  -0.214 124.301  0.00  0.00    +0.152 C 
ATOM      4  O   LIG A   1      -9.476  -0.764 125.378  0.00  0.00    -0.364 OA
ATOM      5  C   LIG A   1      -9.275  -2.184 125.485  0.00  0.00    +0.152 C 
ATOM      6  C   LIG A   1      -8.437  -2.606 124.271  0.00  0.00    +0.025 C 
ATOM      7  C   LIG A   1      -9.342  -3.148 123.158  0.00  0.00    +0.011 C 
ENDROOT
BRANCH   5   8
ATOM      8  C   LIG A   1      -8.694  -2.544 126.845  0.00  0.00    -0.015 A 
ATOM      9  C   LIG A   1      -7.911  -1.639 127.563  0.00  0.00    +0.055 A 
ATOM     10  C   LIG A   1      -7.359  -1.910 128.821  0.00  0.00    +0.162 A 
ATOM     11  C   LIG A   1      -7.636  -3.144 129.431  0.00  0.00    +0.162 A 
ATOM     12  C   LIG A   1      -8.467  -4.046 128.748  0.00  0.00    +0.050 A 
ATOM     13  C   LIG A   1      -8.987  -3.758 127.475  0.00  0.00    +0.010 A 
BRANCH  10  14
ATOM     14  O   LIG A   1      -6.628  -0.853 129.283  0.00  0.00    -0.491 OA
ATOM     15  C   LIG A   1      -5.244  -0.784 128.993  0.00  0.00    +0.277 C 
ENDBRANCH  10  14
BRANCH  11  16
ATOM     16  O   LIG A   1      -7.100  -3.386 130.665  0.00  0.00    -0.491 OA
ATOM     17  C   LIG A   1      -5.911  -4.165 130.735  0.00  0.00    +0.277 C 
ENDBRANCH  11  16
ENDBRANCH   5   8
BRANCH   3  18
ATOM     18  C   LIG A   1      -8.112   1.138 124.668  0.00  0.00    -0.015 A 
ATOM     19  C   LIG A   1      -8.390   1.720 125.912  0.00  0.00    +0.055 A 
ATOM     20  C   LIG A   1      -7.896   2.989 126.248  0.00  0.00    +0.162 A 
ATOM     21  C   LIG A   1      -7.042   3.673 125.369  0.00  0.00    +0.162 A 
ATOM     22  C   LIG A   1      -6.699   3.076 124.160  0.00  0.00    +0.050 A 
ATOM     23  C   LIG A   1      -7.229   1.825 123.820  0.00  0.00    +0.010 A 
BRANCH  20  24
ATOM     24  O   LIG A   1      -8.186   3.612 127.445  0.00  0.00    -0.491 OA
ATOM     25  C   LIG A   1      -7.753   2.925 128.614  0.00  0.00    +0.277 C 
ENDBRANCH  20  24
BRANCH  21  26
ATOM     26  O   LIG A   1      -6.551   4.884 125.787  0.00  0.00    -0.491 OA
ATOM     27  C   LIG A   1      -5.203   4.884 126.243  0.00  0.00    +0.277 C 
ENDBRANCH  21  26
ENDBRANCH   3  18
TORSDOF 6
ENDMDL
MODEL 3
REMARK VINA RESULT:      -6.8      7.577     10.206
REMARK  Name = NuBBE_1659
REMARK  12 active torsions:
REMARK  status: ('A' for Active; 'I' for Inactive)
REMARK    1  A    between atoms: C_1  and  C_2
REMARK    2  A    between atoms: C_4  and  C_22
REMARK    3  A    between atoms: C_7  and  C_12
REMARK    4  A    between atoms: C_9  and  C_11
REMARK    5  A    between atoms: C_14  and  O_15
REMARK    6  A    between atoms: O_15  and  C_16
REMARK    7  A    between atoms: C_17  and  O_20
REMARK    8  A    between atoms: O_20  and  C_21
REMARK    9  A    between atoms: C_24  and  O_25
REMARK   10  A    between atoms: O_25  and  C_26
REMARK   11  A    between atoms: C_27  and  O_30
REMARK   12  A    between atoms: O_30  and  C_31
REMARK                            x       y       z     vdW  Elec       q    Type
REMARK                         _______ _______ _______ _____ _____    ______ ____
ROOT
ATOM      1  C   LIG A   1      -8.382   5.330 133.309  0.00  0.00    +0.011 C 
ATOM      2  C   LIG A   1      -8.313   4.048 132.475  0.00  0.00    +0.025 C 
ATOM      3  C   LIG A   1      -7.438   4.085 131.206  0.00  0.00    +0.152 C 
ATOM      4  O   LIG A   1      -8.313   4.323 130.091  0.00  0.00    -0.364 OA
ATOM      5  C   LIG A   1      -9.692   4.215 130.486  0.00  0.00    +0.152 C 
ATOM      6  C   LIG A   1      -9.701   3.694 131.929  0.00  0.00    +0.025 C 
ATOM      7  C   LIG A   1      -9.915   2.176 131.951  0.00  0.00    +0.011 C 
ENDROOT
BRANCH   5   8
ATOM      8  C   LIG A   1     -10.422   5.529 130.254  0.00  0.00    -0.015 A 
ATOM      9  C   LIG A   1     -10.144   6.329 129.144  0.00  0.00    +0.055 A 
ATOM     10  C   LIG A   1     -10.791   7.542 128.874  0.00  0.00    +0.162 A 
ATOM     11  C   LIG A   1     -11.813   7.971 129.735  0.00  0.00    +0.162 A 
ATOM     12  C   LIG A   1     -12.144   7.153 130.826  0.00  0.00    +0.050 A 
ATOM     13  C   LIG A   1     -11.462   5.953 131.088  0.00  0.00    +0.010 A 
BRANCH  10  14
ATOM     14  O   LIG A   1     -10.311   8.119 127.733  0.00  0.00    -0.491 OA
ATOM     15  C   LIG A   1     -10.849   7.737 126.480  0.00  0.00    +0.277 C 
ENDBRANCH  10  14
BRANCH  11  16
ATOM     16  O   LIG A   1     -12.442   9.151 129.448  0.00  0.00    -0.491 OA
ATOM     17  C   LIG A   1     -13.172   9.788 130.490  0.00  0.00    +0.277 C 
ENDBRANCH  11  16
ENDBRANCH   5   8
BRANCH   3  18
ATOM     18  C   LIG A   1      -6.238   5.017 131.186  0.00  0.00    -0.015 A 
ATOM     19  C   LIG A   1      -4.947   4.516 131.399  0.00  0.00    +0.055 A 
ATOM     20  C   LIG A   1      -3.833   5.368 131.432  0.00  0.00    +0.162 A 
ATOM     21  C   LIG A   1      -3.982   6.739 131.174  0.00  0.00    +0.162 A 
ATOM     22  C   LIG A   1      -5.249   7.240 130.891  0.00  0.00    +0.050 A 
ATOM     23  C   LIG A   1      -6.358   6.385 130.898  0.00  0.00    +0.010 A 
BRANCH  20  24
ATOM     24  O   LIG A   1      -2.553   4.917 131.683  0.00  0.00    -0.491 OA
ATOM     25  C   LIG A   1      -2.310   4.474 133.014  0.00  0.00    +0.277 C 
ENDBRANCH  20  24
BRANCH  21  26
ATOM     26  O   LIG A   1      -2.842   7.504 131.167  0.00  0.00    -0.491 OA
ATOM     27  C   LIG A   1      -2.654   8.349 132.296  0.00  0.00    +0.277 C 
ENDBRANCH  21  26
ENDBRANCH   3  18
TORSDOF 6
ENDMDL
MODEL 4
REMARK VINA RESULT:      -6.5      5.558      8.092
REMARK  Name = NuBBE_1659
REMARK  12 active torsions:
REMARK  status: ('A' for Active; 'I' for Inactive)
REMARK    1  A    between atoms: C_1  and  C_2
REMARK    2  A    between atoms: C_4  and  C_22
REMARK    3  A    between atoms: C_7  and  C_12
REMARK    4  A    between atoms: C_9  and  C_11
REMARK    5  A    between atoms: C_14  and  O_15
REMARK    6  A    between atoms: O_15  and  C_16
REMARK    7  A    between atoms: C_17  and  O_20
REMARK    8  A    between atoms: O_20  and  C_21
REMARK    9  A    between atoms: C_24  and  O_25
REMARK   10  A    between atoms: O_25  and  C_26
REMARK   11  A    between atoms: C_27  and  O_30
REMARK   12  A    between atoms: O_30  and  C_31
REMARK                            x       y       z     vdW  Elec       q    Type
REMARK                         _______ _______ _______ _____ _____    ______ ____
ROOT
ATOM      1  C   LIG A   1     -11.122   3.203 130.468  0.00  0.00    +0.011 C 
ATOM      2  C   LIG A   1      -9.973   3.585 131.405  0.00  0.00    +0.025 C 
ATOM      3  C   LIG A   1      -9.324   4.967 131.189  0.00  0.00    +0.152 C 
ATOM      4  O   LIG A   1      -8.131   4.760 130.413  0.00  0.00    -0.364 OA
ATOM      5  C   LIG A   1      -7.824   3.360 130.303  0.00  0.00    +0.152 C 
ATOM      6  C   LIG A   1      -8.799   2.618 131.227  0.00  0.00    +0.025 C 
ATOM      7  C   LIG A   1      -8.138   2.323 132.579  0.00  0.00    +0.011 C 
ENDROOT
BRANCH   5   8
ATOM      8  C   LIG A   1      -7.832   2.921 128.846  0.00  0.00    -0.015 A 
ATOM      9  C   LIG A   1      -7.019   3.540 127.896  0.00  0.00    +0.055 A 
ATOM     10  C   LIG A   1      -6.977   3.172 126.546  0.00  0.00    +0.162 A 
ATOM     11  C   LIG A   1      -7.757   2.089 126.113  0.00  0.00    +0.162 A 
ATOM     12  C   LIG A   1      -8.540   1.418 127.066  0.00  0.00    +0.050 A 
ATOM     13  C   LIG A   1      -8.583   1.825 128.411  0.00  0.00    +0.010 A 
BRANCH  10  14
ATOM     14  O   LIG A   1      -6.106   3.957 125.843  0.00  0.00    -0.491 OA
ATOM     15  C   LIG A   1      -5.091   4.662 126.533  0.00  0.00    +0.277 C 
ENDBRANCH  10  14
BRANCH  11  16
ATOM     16  O   LIG A   1      -7.693   1.736 124.794  0.00  0.00    -0.491 OA
ATOM     17  C   LIG A   1      -6.907   0.603 124.445  0.00  0.00    +0.277 C 
ENDBRANCH  11  16
ENDBRANCH   5   8
BRANCH   3  18
ATOM     18  C   LIG A   1     -10.180   6.083 130.614  0.00  0.00    -0.015 A 
ATOM     19  C   LIG A   1      -9.877   6.638 129.364  0.00  0.00    +0.055 A 
ATOM     20  C   LIG A   1     -10.627   7.701 128.840  0.00  0.00    +0.162 A 
ATOM     21  C   LIG A   1     -11.753   8.181 129.527  0.00  0.00    +0.162 A 
ATOM     22  C   LIG A   1     -12.107   7.592 130.736  0.00  0.00    +0.050 A 
ATOM     23  C   LIG A   1     -11.328   6.556 131.267  0.00  0.00    +0.010 A 
BRANCH  20  24
ATOM     24  O   LIG A   1     -10.332   8.303 127.633  0.00  0.00    -0.491 OA
ATOM     25  C   LIG A   1     -10.623   7.528 126.475  0.00  0.00    +0.277 C 
ENDBRANCH  20  24
BRANCH  21  26
ATOM     26  O   LIG A   1     -12.473   9.185 128.929  0.00  0.00    -0.491 OA
ATOM     27  C   LIG A   1     -13.642   8.777 128.227  0.00  0.00    +0.277 C 
ENDBRANCH  21  26
ENDBRANCH   3  18
TORSDOF 6
ENDMDL
MODEL 5
REMARK VINA RESULT:      -6.5      2.902      5.518
REMARK  Name = NuBBE_1659
REMARK  12 active torsions:
REMARK  status: ('A' for Active; 'I' for Inactive)
REMARK    1  A    between atoms: C_1  and  C_2
REMARK    2  A    between atoms: C_4  and  C_22
REMARK    3  A    between atoms: C_7  and  C_12
REMARK    4  A    between atoms: C_9  and  C_11
REMARK    5  A    between atoms: C_14  and  O_15
REMARK    6  A    between atoms: O_15  and  C_16
REMARK    7  A    between atoms: C_17  and  O_20
REMARK    8  A    between atoms: O_20  and  C_21
REMARK    9  A    between atoms: C_24  and  O_25
REMARK   10  A    between atoms: O_25  and  C_26
REMARK   11  A    between atoms: C_27  and  O_30
REMARK   12  A    between atoms: O_30  and  C_31
REMARK                            x       y       z     vdW  Elec       q    Type
REMARK                         _______ _______ _______ _____ _____    ______ ____
ROOT
ATOM      1  C   LIG A   1      -5.444   2.603 125.545  0.00  0.00    +0.011 C 
ATOM      2  C   LIG A   1      -6.787   2.877 124.863  0.00  0.00    +0.025 C 
ATOM      3  C   LIG A   1      -8.055   2.398 125.597  0.00  0.00    +0.152 C 
ATOM      4  O   LIG A   1      -8.436   1.141 125.013  0.00  0.00    -0.364 OA
ATOM      5  C   LIG A   1      -7.674   0.873 123.824  0.00  0.00    +0.152 C 
ATOM      6  C   LIG A   1      -6.862   2.139 123.522  0.00  0.00    +0.025 C 
ATOM      7  C   LIG A   1      -7.578   3.000 122.476  0.00  0.00    +0.011 C 
ENDROOT
BRANCH   5   8
ATOM      8  C   LIG A   1      -6.866  -0.407 123.980  0.00  0.00    -0.015 A 
ATOM      9  C   LIG A   1      -6.478  -0.874 125.237  0.00  0.00    +0.055 A 
ATOM     10  C   LIG A   1      -5.745  -2.049 125.442  0.00  0.00    +0.162 A 
ATOM     11  C   LIG A   1      -5.409  -2.840 124.333  0.00  0.00    +0.162 A 
ATOM     12  C   LIG A   1      -5.837  -2.416 123.065  0.00  0.00    +0.050 A 
ATOM     13  C   LIG A   1      -6.551  -1.219 122.885  0.00  0.00    +0.010 A 
BRANCH  10  14
ATOM     14  O   LIG A   1      -5.493  -2.253 126.769  0.00  0.00    -0.491 OA
ATOM     15  C   LIG A   1      -6.574  -2.326 127.680  0.00  0.00    +0.277 C 
ENDBRANCH  10  14
BRANCH  11  16
ATOM     16  O   LIG A   1      -4.704  -3.991 124.553  0.00  0.00    -0.491 OA
ATOM     17  C   LIG A   1      -4.256  -4.726 123.420  0.00  0.00    +0.277 C 
ENDBRANCH  11  16
ENDBRANCH   5   8
BRANCH   3  18
ATOM     18  C   LIG A   1      -8.025   2.326 127.114  0.00  0.00    -0.015 A 
ATOM     19  C   LIG A   1      -7.934   3.497 127.879  0.00  0.00    +0.055 A 
ATOM     20  C   LIG A   1      -7.856   3.447 129.278  0.00  0.00    +0.162 A 
ATOM     21  C   LIG A   1      -7.948   2.218 129.950  0.00  0.00    +0.162 A 
ATOM     22  C   LIG A   1      -8.110   1.053 129.207  0.00  0.00    +0.050 A 
ATOM     23  C   LIG A   1      -8.148   1.113 127.808  0.00  0.00    +0.010 A 
BRANCH  20  24
ATOM     24  O   LIG A   1      -7.721   4.576 130.061  0.00  0.00    -0.491 OA
ATOM     25  C   LIG A   1      -8.865   5.420 130.121  0.00  0.00    +0.277 C 
ENDBRANCH  20  24
BRANCH  21  26
ATOM     26  O   LIG A   1      -7.921   2.249 131.322  0.00  0.00    -0.491 OA
ATOM     27  C   LIG A   1      -8.860   1.406 131.980  0.00  0.00    +0.277 C 
ENDBRANCH  21  26
ENDBRANCH   3  18
TORSDOF 6
ENDMDL
MODEL 6
REMARK VINA RESULT:      -6.5      2.636      5.873
REMARK  Name = NuBBE_1659
REMARK  12 active torsions:
REMARK  status: ('A' for Active; 'I' for Inactive)
REMARK    1  A    between atoms: C_1  and  C_2
REMARK    2  A    between atoms: C_4  and  C_22
REMARK    3  A    between atoms: C_7  and  C_12
REMARK    4  A    between atoms: C_9  and  C_11
REMARK    5  A    between atoms: C_14  and  O_15
REMARK    6  A    between atoms: O_15  and  C_16
REMARK    7  A    between atoms: C_17  and  O_20
REMARK    8  A    between atoms: O_20  and  C_21
REMARK    9  A    between atoms: C_24  and  O_25
REMARK   10  A    between atoms: O_25  and  C_26
REMARK   11  A    between atoms: C_27  and  O_30
REMARK   12  A    between atoms: O_30  and  C_31
REMARK                            x       y       z     vdW  Elec       q    Type
REMARK                         _______ _______ _______ _____ _____    ______ ____
ROOT
ATOM      1  C   LIG A   1      -7.539  -0.736 131.362  0.00  0.00    +0.011 C 
ATOM      2  C   LIG A   1      -6.357  -1.687 131.562  0.00  0.00    +0.025 C 
ATOM      3  C   LIG A   1      -5.061  -1.364 130.792  0.00  0.00    +0.152 C 
ATOM      4  O   LIG A   1      -5.048  -2.188 129.614  0.00  0.00    -0.364 OA
ATOM      5  C   LIG A   1      -6.092  -3.176 129.665  0.00  0.00    +0.152 C 
ATOM      6  C   LIG A   1      -6.715  -3.092 131.065  0.00  0.00    +0.025 C 
ATOM      7  C   LIG A   1      -6.110  -4.158 131.986  0.00  0.00    +0.011 C 
ENDROOT
BRANCH   5   8
ATOM      8  C   LIG A   1      -7.057  -2.999 128.502  0.00  0.00    -0.015 A 
ATOM      9  C   LIG A   1      -6.746  -2.174 127.419  0.00  0.00    +0.055 A 
ATOM     10  C   LIG A   1      -7.589  -1.981 126.318  0.00  0.00    +0.162 A 
ATOM     11  C   LIG A   1      -8.802  -2.685 126.261  0.00  0.00    +0.162 A 
ATOM     12  C   LIG A   1      -9.107  -3.561 127.314  0.00  0.00    +0.050 A 
ATOM     13  C   LIG A   1      -8.254  -3.717 128.420  0.00  0.00    +0.010 A 
BRANCH  10  14
ATOM     14  O   LIG A   1      -7.040  -1.113 125.417  0.00  0.00    -0.491 OA
ATOM     15  C   LIG A   1      -6.091  -1.589 124.481  0.00  0.00    +0.277 C 
ENDBRANCH  10  14
BRANCH  11  16
ATOM     16  O   LIG A   1      -9.606  -2.494 125.172  0.00  0.00    -0.491 OA
ATOM     17  C   LIG A   1      -9.404  -3.330 124.038  0.00  0.00    +0.277 C 
ENDBRANCH  11  16
ENDBRANCH   5   8
BRANCH   3  18
ATOM     18  C   LIG A   1      -4.763   0.089 130.462  0.00  0.00    -0.015 A 
ATOM     19  C   LIG A   1      -4.834   0.546 129.140  0.00  0.00    +0.055 A 
ATOM     20  C   LIG A   1      -4.515   1.871 128.811  0.00  0.00    +0.162 A 
ATOM     21  C   LIG A   1      -4.192   2.794 129.818  0.00  0.00    +0.162 A 
ATOM     22  C   LIG A   1      -4.188   2.372 131.144  0.00  0.00    +0.050 A 
ATOM     23  C   LIG A   1      -4.471   1.036 131.455  0.00  0.00    +0.010 A 
BRANCH  20  24
ATOM     24  O   LIG A   1      -4.530   2.346 127.514  0.00  0.00    -0.491 OA
ATOM     25  C   LIG A   1      -4.995   1.427 126.532  0.00  0.00    +0.277 C 
ENDBRANCH  20  24
BRANCH  21  26
ATOM     26  O   LIG A   1      -3.947   4.087 129.430  0.00  0.00    -0.491 OA
ATOM     27  C   LIG A   1      -3.008   4.806 130.222  0.00  0.00    +0.277 C 
ENDBRANCH  21  26
ENDBRANCH   3  18
TORSDOF 6
ENDMDL
MODEL 7
REMARK VINA RESULT:      -6.5      1.157      6.864
REMARK  Name = NuBBE_1659
REMARK  12 active torsions:
REMARK  status: ('A' for Active; 'I' for Inactive)
REMARK    1  A    between atoms: C_1  and  C_2
REMARK    2  A    between atoms: C_4  and  C_22
REMARK    3  A    between atoms: C_7  and  C_12
REMARK    4  A    between atoms: C_9  and  C_11
REMARK    5  A    between atoms: C_14  and  O_15
REMARK    6  A    between atoms: O_15  and  C_16
REMARK    7  A    between atoms: C_17  and  O_20
REMARK    8  A    between atoms: O_20  and  C_21
REMARK    9  A    between atoms: C_24  and  O_25
REMARK   10  A    between atoms: O_25  and  C_26
REMARK   11  A    between atoms: C_27  and  O_30
REMARK   12  A    between atoms: O_30  and  C_31
REMARK                            x       y       z     vdW  Elec       q    Type
REMARK                         _______ _______ _______ _____ _____    ______ ____
ROOT
ATOM      1  C   LIG A   1      -9.635  -0.847 125.878  0.00  0.00    +0.011 C 
ATOM      2  C   LIG A   1      -8.907  -1.935 125.086  0.00  0.00    +0.025 C 
ATOM      3  C   LIG A   1      -7.611  -2.499 125.701  0.00  0.00    +0.152 C 
ATOM      4  O   LIG A   1      -6.511  -1.823 125.070  0.00  0.00    -0.364 OA
ATOM      5  C   LIG A   1      -6.959  -1.045 123.947  0.00  0.00    +0.152 C 
ATOM      6  C   LIG A   1      -8.440  -1.387 123.734  0.00  0.00    +0.025 C 
ATOM      7  C   LIG A   1      -8.594  -2.451 122.641  0.00  0.00    +0.011 C 
ENDROOT
BRANCH   5   8
ATOM      8  C   LIG A   1      -6.646   0.429 124.154  0.00  0.00    -0.015 A 
ATOM      9  C   LIG A   1      -6.965   1.384 123.188  0.00  0.00    +0.055 A 
ATOM     10  C   LIG A   1      -6.710   2.753 123.328  0.00  0.00    +0.162 A 
ATOM     11  C   LIG A   1      -6.141   3.217 124.524  0.00  0.00    +0.162 A 
ATOM     12  C   LIG A   1      -5.862   2.279 125.530  0.00  0.00    +0.050 A 
ATOM     13  C   LIG A   1      -6.105   0.906 125.353  0.00  0.00    +0.010 A 
BRANCH  10  14
ATOM     14  O   LIG A   1      -7.113   3.451 122.225  0.00  0.00    -0.491 OA
ATOM     15  C   LIG A   1      -6.200   3.662 121.163  0.00  0.00    +0.277 C 
ENDBRANCH  10  14
BRANCH  11  16
ATOM     16  O   LIG A   1      -5.911   4.559 124.649  0.00  0.00    -0.491 OA
ATOM     17  C   LIG A   1      -5.476   5.047 125.913  0.00  0.00    +0.277 C 
ENDBRANCH  11  16
ENDBRANCH   5   8
BRANCH   3  18
ATOM     18  C   LIG A   1      -7.474  -2.502 127.214  0.00  0.00    -0.015 A 
ATOM     19  C   LIG A   1      -6.567  -1.641 127.847  0.00  0.00    +0.055 A 
ATOM     20  C   LIG A   1      -6.393  -1.663 129.238  0.00  0.00    +0.162 A 
ATOM     21  C   LIG A   1      -7.185  -2.501 130.038  0.00  0.00    +0.162 A 
ATOM     22  C   LIG A   1      -8.140  -3.310 129.430  0.00  0.00    +0.050 A 
ATOM     23  C   LIG A   1      -8.279  -3.305 128.036  0.00  0.00    +0.010 A 
BRANCH  20  24
ATOM     24  O   LIG A   1      -5.478  -0.863 129.891  0.00  0.00    -0.491 OA
ATOM     25  C   LIG A   1      -5.167   0.366 129.243  0.00  0.00    +0.277 C 
ENDBRANCH  20  24
BRANCH  21  26
ATOM     26  O   LIG A   1      -7.000  -2.430 131.396  0.00  0.00    -0.491 OA
ATOM     27  C   LIG A   1      -6.329  -3.536 131.990  0.00  0.00    +0.277 C 
ENDBRANCH  21  26
ENDBRANCH   3  18
TORSDOF 6
ENDMDL
MODEL 8
REMARK VINA RESULT:      -6.5      5.751      8.917
REMARK  Name = NuBBE_1659
REMARK  12 active torsions:
REMARK  status: ('A' for Active; 'I' for Inactive)
REMARK    1  A    between atoms: C_1  and  C_2
REMARK    2  A    between atoms: C_4  and  C_22
REMARK    3  A    between atoms: C_7  and  C_12
REMARK    4  A    between atoms: C_9  and  C_11
REMARK    5  A    between atoms: C_14  and  O_15
REMARK    6  A    between atoms: O_15  and  C_16
REMARK    7  A    between atoms: C_17  and  O_20
REMARK    8  A    between atoms: O_20  and  C_21
REMARK    9  A    between atoms: C_24  and  O_25
REMARK   10  A    between atoms: O_25  and  C_26
REMARK   11  A    between atoms: C_27  and  O_30
REMARK   12  A    between atoms: O_30  and  C_31
REMARK                            x       y       z     vdW  Elec       q    Type
REMARK                         _______ _______ _______ _____ _____    ______ ____
ROOT
ATOM      1  C   LIG A   1      -5.329   7.075 130.962  0.00  0.00    +0.011 C 
ATOM      2  C   LIG A   1      -4.931   6.121 132.091  0.00  0.00    +0.025 C 
ATOM      3  C   LIG A   1      -4.662   4.653 131.704  0.00  0.00    +0.152 C 
ATOM      4  O   LIG A   1      -5.856   3.910 131.998  0.00  0.00    -0.364 OA
ATOM      5  C   LIG A   1      -6.789   4.707 132.748  0.00  0.00    +0.152 C 
ATOM      6  C   LIG A   1      -6.064   6.008 133.116  0.00  0.00    +0.025 C 
ATOM      7  C   LIG A   1      -5.496   5.923 134.537  0.00  0.00    +0.011 C 
ENDROOT
BRANCH   5   8
ATOM      8  C   LIG A   1      -8.093   4.872 131.982  0.00  0.00    -0.015 A 
ATOM      9  C   LIG A   1      -8.472   3.967 130.989  0.00  0.00    +0.055 A 
ATOM     10  C   LIG A   1      -9.664   4.062 130.260  0.00  0.00    +0.162 A 
ATOM     11  C   LIG A   1     -10.563   5.096 130.562  0.00  0.00    +0.162 A 
ATOM     12  C   LIG A   1     -10.225   5.984 131.596  0.00  0.00    +0.050 A 
ATOM     13  C   LIG A   1      -9.010   5.880 132.295  0.00  0.00    +0.010 A 
BRANCH  10  14
ATOM     14  O   LIG A   1      -9.769   3.054 129.344  0.00  0.00    -0.491 OA
ATOM     15  C   LIG A   1      -8.649   2.228 129.085  0.00  0.00    +0.277 C 
ENDBRANCH  10  14
BRANCH  11  16
ATOM     16  O   LIG A   1     -11.728   5.166 129.850  0.00  0.00    -0.491 OA
ATOM     17  C   LIG A   1     -12.086   6.418 129.277  0.00  0.00    +0.277 C 
ENDBRANCH  11  16
ENDBRANCH   5   8
BRANCH   3  18
ATOM     18  C   LIG A   1      -4.148   4.360 130.305  0.00  0.00    -0.015 A 
ATOM     19  C   LIG A   1      -4.821   3.451 129.477  0.00  0.00    +0.055 A 
ATOM     20  C   LIG A   1      -4.335   3.132 128.202  0.00  0.00    +0.162 A 
ATOM     21  C   LIG A   1      -3.198   3.780 127.693  0.00  0.00    +0.162 A 
ATOM     22  C   LIG A   1      -2.561   4.737 128.476  0.00  0.00    +0.050 A 
ATOM     23  C   LIG A   1      -3.035   5.020 129.763  0.00  0.00    +0.010 A 
BRANCH  20  24
ATOM     24  O   LIG A   1      -4.945   2.208 127.377  0.00  0.00    -0.491 OA
ATOM     25  C   LIG A   1      -5.328   0.988 128.002  0.00  0.00    +0.277 C 
ENDBRANCH  20  24
BRANCH  21  26
ATOM     26  O   LIG A   1      -2.811   3.460 126.416  0.00  0.00    -0.491 OA
ATOM     27  C   LIG A   1      -1.488   2.954 126.277  0.00  0.00    +0.277 C 
ENDBRANCH  21  26
ENDBRANCH   3  18
TORSDOF 6
ENDMDL
MODEL 9
REMARK VINA RESULT:      -6.5      3.013      6.529
REMARK  Name = NuBBE_1659
REMARK  12 active torsions:
REMARK  status: ('A' for Active; 'I' for Inactive)
REMARK    1  A    between atoms: C_1  and  C_2
REMARK    2  A    between atoms: C_4  and  C_22
REMARK    3  A    between atoms: C_7  and  C_12
REMARK    4  A    between atoms: C_9  and  C_11
REMARK    5  A    between atoms: C_14  and  O_15
REMARK    6  A    between atoms: O_15  and  C_16
REMARK    7  A    between atoms: C_17  and  O_20
REMARK    8  A    between atoms: O_20  and  C_21
REMARK    9  A    between atoms: C_24  and  O_25
REMARK   10  A    between atoms: O_25  and  C_26
REMARK   11  A    between atoms: C_27  and  O_30
REMARK   12  A    between atoms: O_30  and  C_31
REMARK                            x       y       z     vdW  Elec       q    Type
REMARK                         _______ _______ _______ _____ _____    ______ ____
ROOT
ATOM      1  C   LIG A   1      -5.078  -3.021 129.002  0.00  0.00    +0.011 C 
ATOM      2  C   LIG A   1      -6.072  -3.553 130.036  0.00  0.00    +0.025 C 
ATOM      3  C   LIG A   1      -7.544  -3.124 129.877  0.00  0.00    +0.152 C 
ATOM      4  O   LIG A   1      -7.767  -2.024 130.773  0.00  0.00    -0.364 OA
ATOM      5  C   LIG A   1      -6.651  -1.848 131.662  0.00  0.00    +0.152 C 
ATOM      6  C   LIG A   1      -5.710  -3.039 131.434  0.00  0.00    +0.025 C 
ATOM      7  C   LIG A   1      -5.957  -4.127 132.486  0.00  0.00    +0.011 C 
ENDROOT
BRANCH   5   8
ATOM      8  C   LIG A   1      -6.028  -0.472 131.478  0.00  0.00    -0.015 A 
ATOM      9  C   LIG A   1      -6.817   0.660 131.264  0.00  0.00    +0.055 A 
ATOM     10  C   LIG A   1      -6.301   1.951 131.099  0.00  0.00    +0.162 A 
ATOM     11  C   LIG A   1      -4.915   2.145 131.194  0.00  0.00    +0.162 A 
ATOM     12  C   LIG A   1      -4.109   1.027 131.463  0.00  0.00    +0.050 A 
ATOM     13  C   LIG A   1      -4.651  -0.262 131.600  0.00  0.00    +0.010 A 
BRANCH  10  14
ATOM     14  O   LIG A   1      -7.298   2.863 130.891  0.00  0.00    -0.491 OA
ATOM     15  C   LIG A   1      -7.711   3.154 129.569  0.00  0.00    +0.277 C 
ENDBRANCH  10  14
BRANCH  11  16
ATOM     16  O   LIG A   1      -4.430   3.414 131.043  0.00  0.00    -0.491 OA
ATOM     17  C   LIG A   1      -3.877   3.772 129.782  0.00  0.00    +0.277 C 
ENDBRANCH  11  16
ENDBRANCH   5   8
BRANCH   3  18
ATOM     18  C   LIG A   1      -8.058  -2.822 128.479  0.00  0.00    -0.015 A 
ATOM     19  C   LIG A   1      -7.792  -1.585 127.876  0.00  0.00    +0.055 A 
ATOM     20  C   LIG A   1      -8.299  -1.271 126.607  0.00  0.00    +0.162 A 
ATOM     21  C   LIG A   1      -9.024  -2.226 125.877  0.00  0.00    +0.162 A 
ATOM     22  C   LIG A   1      -9.235  -3.484 126.433  0.00  0.00    +0.050 A 
ATOM     23  C   LIG A   1      -8.755  -3.772 127.717  0.00  0.00    +0.010 A 
BRANCH  20  24
ATOM     24  O   LIG A   1      -8.096  -0.048 126.002  0.00  0.00    -0.491 OA
ATOM     25  C   LIG A   1      -8.777   1.051 126.598  0.00  0.00    +0.277 C 
ENDBRANCH  20  24
BRANCH  21  26
ATOM     26  O   LIG A   1      -9.441  -1.870 124.619  0.00  0.00    -0.491 OA
ATOM     27  C   LIG A   1      -9.218  -2.832 123.595  0.00  0.00    +0.277 C 
ENDBRANCH  21  26
ENDBRANCH   3  18
TORSDOF 6
ENDMDL
