MODEL 1
REMARK VINA RESULT:      -7.6      0.000      0.000
REMARK  Name = NuBBE_1556
REMARK  8 active torsions:
REMARK  status: ('A' for Active; 'I' for Inactive)
REMARK    1  A    between atoms: C_1  and  C_2
REMARK    2  A    between atoms: C_1  and  C_14
REMARK    3  A    between atoms: C_2  and  C_3
REMARK    4  A    between atoms: C_2  and  O_13
REMARK    5  A    between atoms: C_3  and  C_4
REMARK    6  A    between atoms: C_5  and  O_6
REMARK    7  A    between atoms: C_8  and  O_11
REMARK    8  A    between atoms: O_11  and  C_12
REMARK                            x       y       z     vdW  Elec       q    Type
REMARK                         _______ _______ _______ _____ _____    ______ ____
ROOT
ATOM      1  C   LIG A   1      -9.390   0.646 123.092  0.00  0.00    +0.123 C 
ENDROOT
BRANCH   1   2
ATOM      2  O   LIG A   1     -10.663   0.332 122.510  0.00  0.00    -0.391 OA
ATOM      3  H   LIG A   1     -11.318   0.428 123.224  0.00  0.00    +0.210 HD
ENDBRANCH   1   2
BRANCH   1   4
ATOM      4  C   LIG A   1      -9.316   2.164 123.342  0.00  0.00    +0.067 C 
BRANCH   4   5
ATOM      5  C   LIG A   1      -8.316   2.858 122.441  0.00  0.00    -0.041 A 
ATOM      6  C   LIG A   1      -8.737   3.371 121.200  0.00  0.00    +0.053 A 
ATOM      7  C   LIG A   1      -7.794   3.950 120.378  0.00  0.00    +0.167 A 
ATOM      8  C   LIG A   1      -6.475   4.038 120.741  0.00  0.00    +0.166 A 
ATOM      9  C   LIG A   1      -6.020   3.555 121.952  0.00  0.00    +0.050 A 
ATOM     10  C   LIG A   1      -6.955   2.957 122.807  0.00  0.00    +0.007 A 
ATOM     11  O   LIG A   1      -5.709   4.630 119.786  0.00  0.00    -0.453 OA
ATOM     12  C   LIG A   1      -6.700   4.878 118.765  0.00  0.00    +0.466 C 
ATOM     13  O   LIG A   1      -8.030   4.475 119.145  0.00  0.00    -0.453 OA
ENDBRANCH   4   5
ENDBRANCH   1   4
BRANCH   1  14
ATOM     14  C   LIG A   1      -9.250  -0.129 124.417  0.00  0.00    +0.070 C 
BRANCH  14  15
ATOM     15  C   LIG A   1      -8.087  -1.099 124.441  0.00  0.00    -0.003 A 
ATOM     16  C   LIG A   1      -8.275  -2.479 124.322  0.00  0.00    +0.124 A 
ATOM     17  C   LIG A   1      -7.200  -3.369 124.360  0.00  0.00    +0.091 A 
ATOM     18  C   LIG A   1      -5.900  -2.886 124.511  0.00  0.00    +0.124 A 
ATOM     19  C   LIG A   1      -5.693  -1.510 124.615  0.00  0.00    +0.046 A 
ATOM     20  C   LIG A   1      -6.774  -0.623 124.582  0.00  0.00    +0.011 A 
BRANCH  16  21
ATOM     21  O   LIG A   1      -9.546  -2.958 124.164  0.00  0.00    -0.506 OA
ATOM     22  H   LIG A   1      -9.559  -3.561 123.402  0.00  0.00    +0.292 HD
ENDBRANCH  16  21
BRANCH  18  23
ATOM     23  O   LIG A   1      -4.767  -3.654 124.566  0.00  0.00    -0.495 OA
ATOM     24  C   LIG A   1      -4.581  -4.587 123.506  0.00  0.00    +0.277 C 
ENDBRANCH  18  23
ENDBRANCH  14  15
ENDBRANCH   1  14
TORSDOF 7
ENDMDL
MODEL 2
REMARK VINA RESULT:      -7.3      3.080      7.629
REMARK  Name = NuBBE_1556
REMARK  8 active torsions:
REMARK  status: ('A' for Active; 'I' for Inactive)
REMARK    1  A    between atoms: C_1  and  C_2
REMARK    2  A    between atoms: C_1  and  C_14
REMARK    3  A    between atoms: C_2  and  C_3
REMARK    4  A    between atoms: C_2  and  O_13
REMARK    5  A    between atoms: C_3  and  C_4
REMARK    6  A    between atoms: C_5  and  O_6
REMARK    7  A    between atoms: C_8  and  O_11
REMARK    8  A    between atoms: O_11  and  C_12
REMARK                            x       y       z     vdW  Elec       q    Type
REMARK                         _______ _______ _______ _____ _____    ______ ____
ROOT
ATOM      1  C   LIG A   1      -9.258  -2.655 123.966  0.00  0.00    +0.123 C 
ENDROOT
BRANCH   1   2
ATOM      2  O   LIG A   1     -10.191  -3.566 123.367  0.00  0.00    -0.391 OA
ATOM      3  H   LIG A   1     -10.355  -4.261 124.029  0.00  0.00    +0.210 HD
ENDBRANCH   1   2
BRANCH   1   4
ATOM      4  C   LIG A   1      -8.127  -3.463 124.630  0.00  0.00    +0.067 C 
BRANCH   4   5
ATOM      5  C   LIG A   1      -7.997  -3.177 126.113  0.00  0.00    -0.041 A 
ATOM      6  C   LIG A   1      -6.956  -2.348 126.571  0.00  0.00    +0.053 A 
ATOM      7  C   LIG A   1      -6.830  -2.149 127.930  0.00  0.00    +0.167 A 
ATOM      8  C   LIG A   1      -7.687  -2.731 128.828  0.00  0.00    +0.166 A 
ATOM      9  C   LIG A   1      -8.725  -3.545 128.420  0.00  0.00    +0.050 A 
ATOM     10  C   LIG A   1      -8.876  -3.769 127.046  0.00  0.00    +0.007 A 
ATOM     11  O   LIG A   1      -7.382  -2.419 130.116  0.00  0.00    -0.453 OA
ATOM     12  C   LIG A   1      -6.213  -1.594 129.922  0.00  0.00    +0.466 C 
ATOM     13  O   LIG A   1      -5.874  -1.395 128.536  0.00  0.00    -0.453 OA
ENDBRANCH   4   5
ENDBRANCH   1   4
BRANCH   1  14
ATOM     14  C   LIG A   1      -8.693  -1.736 122.866  0.00  0.00    +0.070 C 
BRANCH  14  15
ATOM     15  C   LIG A   1      -8.628  -0.274 123.261  0.00  0.00    -0.003 A 
ATOM     16  C   LIG A   1      -9.696   0.599 123.031  0.00  0.00    +0.124 A 
ATOM     17  C   LIG A   1      -9.624   1.948 123.384  0.00  0.00    +0.091 A 
ATOM     18  C   LIG A   1      -8.471   2.452 123.987  0.00  0.00    +0.124 A 
ATOM     19  C   LIG A   1      -7.402   1.589 124.237  0.00  0.00    +0.046 A 
ATOM     20  C   LIG A   1      -7.477   0.239 123.877  0.00  0.00    +0.011 A 
BRANCH  16  21
ATOM     21  O   LIG A   1     -10.833   0.110 122.450  0.00  0.00    -0.506 OA
ATOM     22  H   LIG A   1     -10.586  -0.379 121.647  0.00  0.00    +0.292 HD
ENDBRANCH  16  21
BRANCH  18  23
ATOM     23  O   LIG A   1      -8.277   3.750 124.374  0.00  0.00    -0.495 OA
ATOM     24  C   LIG A   1      -7.873   3.956 125.725  0.00  0.00    +0.277 C 
ENDBRANCH  18  23
ENDBRANCH  14  15
ENDBRANCH   1  14
TORSDOF 7
ENDMDL
MODEL 3
REMARK VINA RESULT:      -7.1      9.319     11.524
REMARK  Name = NuBBE_1556
REMARK  8 active torsions:
REMARK  status: ('A' for Active; 'I' for Inactive)
REMARK    1  A    between atoms: C_1  and  C_2
REMARK    2  A    between atoms: C_1  and  C_14
REMARK    3  A    between atoms: C_2  and  C_3
REMARK    4  A    between atoms: C_2  and  O_13
REMARK    5  A    between atoms: C_3  and  C_4
REMARK    6  A    between atoms: C_5  and  O_6
REMARK    7  A    between atoms: C_8  and  O_11
REMARK    8  A    between atoms: O_11  and  C_12
REMARK                            x       y       z     vdW  Elec       q    Type
REMARK                         _______ _______ _______ _____ _____    ______ ____
ROOT
ATOM      1  C   LIG A   1      -8.564   6.297 131.689  0.00  0.00    +0.123 C 
ENDROOT
BRANCH   1   2
ATOM      2  O   LIG A   1      -9.225   6.289 132.961  0.00  0.00    -0.391 OA
ATOM      3  H   LIG A   1      -8.534   6.455 133.627  0.00  0.00    +0.210 HD
ENDBRANCH   1   2
BRANCH   1   4
ATOM      4  C   LIG A   1      -7.331   5.376 131.760  0.00  0.00    +0.067 C 
BRANCH   4   5
ATOM      5  C   LIG A   1      -6.180   5.873 130.908  0.00  0.00    -0.041 A 
ATOM      6  C   LIG A   1      -5.507   4.975 130.058  0.00  0.00    +0.053 A 
ATOM      7  C   LIG A   1      -4.430   5.443 129.336  0.00  0.00    +0.167 A 
ATOM      8  C   LIG A   1      -4.010   6.745 129.425  0.00  0.00    +0.166 A 
ATOM      9  C   LIG A   1      -4.646   7.659 130.241  0.00  0.00    +0.050 A 
ATOM     10  C   LIG A   1      -5.741   7.212 130.991  0.00  0.00    +0.007 A 
ATOM     11  O   LIG A   1      -2.926   6.997 128.644  0.00  0.00    -0.453 OA
ATOM     12  C   LIG A   1      -2.696   5.690 128.074  0.00  0.00    +0.466 C 
ATOM     13  O   LIG A   1      -3.664   4.706 128.486  0.00  0.00    -0.453 OA
ENDBRANCH   4   5
ENDBRANCH   1   4
BRANCH   1  14
ATOM     14  C   LIG A   1      -9.553   5.797 130.617  0.00  0.00    +0.070 C 
BRANCH  14  15
ATOM     15  C   LIG A   1     -10.583   6.828 130.202  0.00  0.00    -0.003 A 
ATOM     16  C   LIG A   1     -11.807   6.955 130.865  0.00  0.00    +0.124 A 
ATOM     17  C   LIG A   1     -12.757   7.898 130.468  0.00  0.00    +0.091 A 
ATOM     18  C   LIG A   1     -12.492   8.746 129.392  0.00  0.00    +0.124 A 
ATOM     19  C   LIG A   1     -11.268   8.642 128.729  0.00  0.00    +0.046 A 
ATOM     20  C   LIG A   1     -10.321   7.692 129.128  0.00  0.00    +0.011 A 
BRANCH  16  21
ATOM     21  O   LIG A   1     -12.069   6.135 131.927  0.00  0.00    -0.506 OA
ATOM     22  H   LIG A   1     -11.269   6.070 132.475  0.00  0.00    +0.292 HD
ENDBRANCH  16  21
BRANCH  18  23
ATOM     23  O   LIG A   1     -13.341   9.704 128.906  0.00  0.00    -0.495 OA
ATOM     24  C   LIG A   1     -13.498  10.875 129.703  0.00  0.00    +0.277 C 
ENDBRANCH  18  23
ENDBRANCH  14  15
ENDBRANCH   1  14
TORSDOF 7
ENDMDL
MODEL 4
REMARK VINA RESULT:      -7.0      1.285      1.833
REMARK  Name = NuBBE_1556
REMARK  8 active torsions:
REMARK  status: ('A' for Active; 'I' for Inactive)
REMARK    1  A    between atoms: C_1  and  C_2
REMARK    2  A    between atoms: C_1  and  C_14
REMARK    3  A    between atoms: C_2  and  C_3
REMARK    4  A    between atoms: C_2  and  O_13
REMARK    5  A    between atoms: C_3  and  C_4
REMARK    6  A    between atoms: C_5  and  O_6
REMARK    7  A    between atoms: C_8  and  O_11
REMARK    8  A    between atoms: O_11  and  C_12
REMARK                            x       y       z     vdW  Elec       q    Type
REMARK                         _______ _______ _______ _____ _____    ______ ____
ROOT
ATOM      1  C   LIG A   1      -9.486   0.995 124.008  0.00  0.00    +0.123 C 
ENDROOT
BRANCH   1   2
ATOM      2  O   LIG A   1     -10.907   1.138 124.141  0.00  0.00    -0.391 OA
ATOM      3  H   LIG A   1     -11.152   0.663 124.955  0.00  0.00    +0.210 HD
ENDBRANCH   1   2
BRANCH   1   4
ATOM      4  C   LIG A   1      -8.822   2.366 124.228  0.00  0.00    +0.067 C 
BRANCH   4   5
ATOM      5  C   LIG A   1      -8.178   2.914 122.970  0.00  0.00    -0.041 A 
ATOM      6  C   LIG A   1      -6.821   3.286 122.990  0.00  0.00    +0.053 A 
ATOM      7  C   LIG A   1      -6.277   3.830 121.846  0.00  0.00    +0.167 A 
ATOM      8  C   LIG A   1      -7.018   4.011 120.707  0.00  0.00    +0.166 A 
ATOM      9  C   LIG A   1      -8.350   3.653 120.643  0.00  0.00    +0.050 A 
ATOM     10  C   LIG A   1      -8.933   3.101 121.791  0.00  0.00    +0.007 A 
ATOM     11  O   LIG A   1      -6.298   4.573 119.700  0.00  0.00    -0.453 OA
ATOM     12  C   LIG A   1      -5.022   4.752 120.351  0.00  0.00    +0.466 C 
ATOM     13  O   LIG A   1      -4.992   4.256 121.703  0.00  0.00    -0.453 OA
ENDBRANCH   4   5
ENDBRANCH   1   4
BRANCH   1  14
ATOM     14  C   LIG A   1      -8.994  -0.020 125.059  0.00  0.00    +0.070 C 
BRANCH  14  15
ATOM     15  C   LIG A   1      -7.884  -0.926 124.565  0.00  0.00    -0.003 A 
ATOM     16  C   LIG A   1      -7.349  -1.940 125.364  0.00  0.00    +0.124 A 
ATOM     17  C   LIG A   1      -6.317  -2.762 124.908  0.00  0.00    +0.091 A 
ATOM     18  C   LIG A   1      -5.799  -2.586 123.624  0.00  0.00    +0.124 A 
ATOM     19  C   LIG A   1      -6.333  -1.587 122.808  0.00  0.00    +0.046 A 
ATOM     20  C   LIG A   1      -7.364  -0.763 123.271  0.00  0.00    +0.011 A 
BRANCH  16  21
ATOM     21  O   LIG A   1      -7.859  -2.126 126.619  0.00  0.00    -0.506 OA
ATOM     22  H   LIG A   1      -7.280  -2.739 127.103  0.00  0.00    +0.292 HD
ENDBRANCH  16  21
BRANCH  18  23
ATOM     23  O   LIG A   1      -4.789  -3.321 123.066  0.00  0.00    -0.495 OA
ATOM     24  C   LIG A   1      -4.455  -4.541 123.720  0.00  0.00    +0.277 C 
ENDBRANCH  18  23
ENDBRANCH  14  15
ENDBRANCH   1  14
TORSDOF 7
ENDMDL
MODEL 5
REMARK VINA RESULT:      -7.0      2.427      3.364
REMARK  Name = NuBBE_1556
REMARK  8 active torsions:
REMARK  status: ('A' for Active; 'I' for Inactive)
REMARK    1  A    between atoms: C_1  and  C_2
REMARK    2  A    between atoms: C_1  and  C_14
REMARK    3  A    between atoms: C_2  and  C_3
REMARK    4  A    between atoms: C_2  and  O_13
REMARK    5  A    between atoms: C_3  and  C_4
REMARK    6  A    between atoms: C_5  and  O_6
REMARK    7  A    between atoms: C_8  and  O_11
REMARK    8  A    between atoms: O_11  and  C_12
REMARK                            x       y       z     vdW  Elec       q    Type
REMARK                         _______ _______ _______ _____ _____    ______ ____
ROOT
ATOM      1  C   LIG A   1      -9.700   0.229 122.835  0.00  0.00    +0.123 C 
ENDROOT
BRANCH   1   2
ATOM      2  O   LIG A   1     -11.068   0.656 122.772  0.00  0.00    -0.391 OA
ATOM      3  H   LIG A   1     -11.094   1.384 122.126  0.00  0.00    +0.210 HD
ENDBRANCH   1   2
BRANCH   1   4
ATOM      4  C   LIG A   1      -9.169   0.461 124.262  0.00  0.00    +0.067 C 
BRANCH   4   5
ATOM      5  C   LIG A   1      -8.019   1.447 124.306  0.00  0.00    -0.041 A 
ATOM      6  C   LIG A   1      -7.072   1.365 125.343  0.00  0.00    +0.053 A 
ATOM      7  C   LIG A   1      -6.068   2.308 125.387  0.00  0.00    +0.167 A 
ATOM      8  C   LIG A   1      -5.973   3.307 124.453  0.00  0.00    +0.166 A 
ATOM      9  C   LIG A   1      -6.877   3.421 123.416  0.00  0.00    +0.050 A 
ATOM     10  C   LIG A   1      -7.911   2.478 123.347  0.00  0.00    +0.007 A 
ATOM     11  O   LIG A   1      -4.922   4.138 124.685  0.00  0.00    -0.453 OA
ATOM     12  C   LIG A   1      -4.383   3.559 125.892  0.00  0.00    +0.466 C 
ATOM     13  O   LIG A   1      -5.088   2.380 126.328  0.00  0.00    -0.453 OA
ENDBRANCH   4   5
ENDBRANCH   1   4
BRANCH   1  14
ATOM     14  C   LIG A   1      -9.635  -1.267 122.469  0.00  0.00    +0.070 C 
BRANCH  14  15
ATOM     15  C   LIG A   1      -8.410  -1.978 123.010  0.00  0.00    -0.003 A 
ATOM     16  C   LIG A   1      -8.510  -2.997 123.961  0.00  0.00    +0.124 A 
ATOM     17  C   LIG A   1      -7.376  -3.638 124.466  0.00  0.00    +0.091 A 
ATOM     18  C   LIG A   1      -6.108  -3.271 124.014  0.00  0.00    +0.124 A 
ATOM     19  C   LIG A   1      -5.993  -2.266 123.052  0.00  0.00    +0.046 A 
ATOM     20  C   LIG A   1      -7.131  -1.624 122.554  0.00  0.00    +0.011 A 
BRANCH  16  21
ATOM     21  O   LIG A   1      -9.750  -3.369 124.400  0.00  0.00    -0.506 OA
ATOM     22  H   LIG A   1      -9.833  -3.130 125.339  0.00  0.00    +0.292 HD
ENDBRANCH  16  21
BRANCH  18  23
ATOM     23  O   LIG A   1      -4.925  -3.819 124.433  0.00  0.00    -0.495 OA
ATOM     24  C   LIG A   1      -4.343  -4.799 123.578  0.00  0.00    +0.277 C 
ENDBRANCH  18  23
ENDBRANCH  14  15
ENDBRANCH   1  14
TORSDOF 7
ENDMDL
MODEL 6
REMARK VINA RESULT:      -6.9      1.642      2.084
REMARK  Name = NuBBE_1556
REMARK  8 active torsions:
REMARK  status: ('A' for Active; 'I' for Inactive)
REMARK    1  A    between atoms: C_1  and  C_2
REMARK    2  A    between atoms: C_1  and  C_14
REMARK    3  A    between atoms: C_2  and  C_3
REMARK    4  A    between atoms: C_2  and  O_13
REMARK    5  A    between atoms: C_3  and  C_4
REMARK    6  A    between atoms: C_5  and  O_6
REMARK    7  A    between atoms: C_8  and  O_11
REMARK    8  A    between atoms: O_11  and  C_12
REMARK                            x       y       z     vdW  Elec       q    Type
REMARK                         _______ _______ _______ _____ _____    ______ ____
ROOT
ATOM      1  C   LIG A   1      -8.344   2.704 124.727  0.00  0.00    +0.123 C 
ENDROOT
BRANCH   1   2
ATOM      2  O   LIG A   1      -8.527   3.752 125.689  0.00  0.00    -0.391 OA
ATOM      3  H   LIG A   1      -8.833   4.529 125.187  0.00  0.00    +0.210 HD
ENDBRANCH   1   2
BRANCH   1   4
ATOM      4  C   LIG A   1      -6.950   2.849 124.089  0.00  0.00    +0.067 C 
BRANCH   4   5
ATOM      5  C   LIG A   1      -7.011   3.334 122.654  0.00  0.00    -0.041 A 
ATOM      6  C   LIG A   1      -8.253   3.409 121.998  0.00  0.00    +0.053 A 
ATOM      7  C   LIG A   1      -8.271   3.803 120.677  0.00  0.00    +0.167 A 
ATOM      8  C   LIG A   1      -7.121   4.122 120.001  0.00  0.00    +0.166 A 
ATOM      9  C   LIG A   1      -5.883   4.069 120.610  0.00  0.00    +0.050 A 
ATOM     10  C   LIG A   1      -5.832   3.668 121.951  0.00  0.00    +0.007 A 
ATOM     11  O   LIG A   1      -7.357   4.471 118.708  0.00  0.00    -0.453 OA
ATOM     12  C   LIG A   1      -8.789   4.306 118.643  0.00  0.00    +0.466 C 
ATOM     13  O   LIG A   1      -9.380   3.910 119.896  0.00  0.00    -0.453 OA
ENDBRANCH   4   5
ENDBRANCH   1   4
BRANCH   1  14
ATOM     14  C   LIG A   1      -8.470   1.347 125.448  0.00  0.00    +0.070 C 
BRANCH  14  15
ATOM     15  C   LIG A   1      -7.735   0.215 124.760  0.00  0.00    -0.003 A 
ATOM     16  C   LIG A   1      -8.234  -0.392 123.604  0.00  0.00    +0.124 A 
ATOM     17  C   LIG A   1      -7.560  -1.445 122.983  0.00  0.00    +0.091 A 
ATOM     18  C   LIG A   1      -6.354  -1.910 123.510  0.00  0.00    +0.124 A 
ATOM     19  C   LIG A   1      -5.835  -1.303 124.655  0.00  0.00    +0.046 A 
ATOM     20  C   LIG A   1      -6.517  -0.252 125.277  0.00  0.00    +0.011 A 
BRANCH  16  21
ATOM     21  O   LIG A   1      -9.410   0.065 123.076  0.00  0.00    -0.506 OA
ATOM     22  H   LIG A   1      -9.446   1.029 123.185  0.00  0.00    +0.292 HD
ENDBRANCH  16  21
BRANCH  18  23
ATOM     23  O   LIG A   1      -5.603  -2.933 122.998  0.00  0.00    -0.495 OA
ATOM     24  C   LIG A   1      -4.747  -3.611 123.913  0.00  0.00    +0.277 C 
ENDBRANCH  18  23
ENDBRANCH  14  15
ENDBRANCH   1  14
TORSDOF 7
ENDMDL
MODEL 7
REMARK VINA RESULT:      -6.8      1.703      7.021
REMARK  Name = NuBBE_1556
REMARK  8 active torsions:
REMARK  status: ('A' for Active; 'I' for Inactive)
REMARK    1  A    between atoms: C_1  and  C_2
REMARK    2  A    between atoms: C_1  and  C_14
REMARK    3  A    between atoms: C_2  and  C_3
REMARK    4  A    between atoms: C_2  and  O_13
REMARK    5  A    between atoms: C_3  and  C_4
REMARK    6  A    between atoms: C_5  and  O_6
REMARK    7  A    between atoms: C_8  and  O_11
REMARK    8  A    between atoms: O_11  and  C_12
REMARK                            x       y       z     vdW  Elec       q    Type
REMARK                         _______ _______ _______ _____ _____    ______ ____
ROOT
ATOM      1  C   LIG A   1      -7.868   3.070 124.843  0.00  0.00    +0.123 C 
ENDROOT
BRANCH   1   2
ATOM      2  O   LIG A   1      -9.051   3.844 125.089  0.00  0.00    -0.391 OA
ATOM      3  H   LIG A   1      -9.222   4.344 124.272  0.00  0.00    +0.210 HD
ENDBRANCH   1   2
BRANCH   1   4
ATOM      4  C   LIG A   1      -7.734   2.000 125.942  0.00  0.00    +0.067 C 
BRANCH   4   5
ATOM      5  C   LIG A   1      -7.630   0.595 125.383  0.00  0.00    -0.041 A 
ATOM      6  C   LIG A   1      -8.788  -0.197 125.276  0.00  0.00    +0.053 A 
ATOM      7  C   LIG A   1      -8.655  -1.489 124.813  0.00  0.00    +0.167 A 
ATOM      8  C   LIG A   1      -7.437  -2.008 124.458  0.00  0.00    +0.166 A 
ATOM      9  C   LIG A   1      -6.278  -1.263 124.540  0.00  0.00    +0.050 A 
ATOM     10  C   LIG A   1      -6.381   0.053 125.011  0.00  0.00    +0.007 A 
ATOM     11  O   LIG A   1      -7.522  -3.300 124.041  0.00  0.00    -0.453 OA
ATOM     12  C   LIG A   1      -8.936  -3.541 124.205  0.00  0.00    +0.466 C 
ATOM     13  O   LIG A   1      -9.666  -2.388 124.667  0.00  0.00    -0.453 OA
ENDBRANCH   4   5
ENDBRANCH   1   4
BRANCH   1  14
ATOM     14  C   LIG A   1      -7.994   2.409 123.456  0.00  0.00    +0.070 C 
BRANCH  14  15
ATOM     15  C   LIG A   1      -7.295   3.170 122.348  0.00  0.00    -0.003 A 
ATOM     16  C   LIG A   1      -7.938   3.477 121.145  0.00  0.00    +0.124 A 
ATOM     17  C   LIG A   1      -7.284   4.166 120.122  0.00  0.00    +0.091 A 
ATOM     18  C   LIG A   1      -5.959   4.571 120.290  0.00  0.00    +0.124 A 
ATOM     19  C   LIG A   1      -5.307   4.285 121.491  0.00  0.00    +0.046 A 
ATOM     20  C   LIG A   1      -5.966   3.591 122.511  0.00  0.00    +0.011 A 
BRANCH  16  21
ATOM     21  O   LIG A   1      -9.239   3.092 120.978  0.00  0.00    -0.506 OA
ATOM     22  H   LIG A   1      -9.347   2.195 121.336  0.00  0.00    +0.292 HD
ENDBRANCH  16  21
BRANCH  18  23
ATOM     23  O   LIG A   1      -5.210   5.246 119.364  0.00  0.00    -0.495 OA
ATOM     24  C   LIG A   1      -5.926   5.874 118.305  0.00  0.00    +0.277 C 
ENDBRANCH  18  23
ENDBRANCH  14  15
ENDBRANCH   1  14
TORSDOF 7
ENDMDL
MODEL 8
REMARK VINA RESULT:      -6.8      9.287     10.670
REMARK  Name = NuBBE_1556
REMARK  8 active torsions:
REMARK  status: ('A' for Active; 'I' for Inactive)
REMARK    1  A    between atoms: C_1  and  C_2
REMARK    2  A    between atoms: C_1  and  C_14
REMARK    3  A    between atoms: C_2  and  C_3
REMARK    4  A    between atoms: C_2  and  O_13
REMARK    5  A    between atoms: C_3  and  C_4
REMARK    6  A    between atoms: C_5  and  O_6
REMARK    7  A    between atoms: C_8  and  O_11
REMARK    8  A    between atoms: O_11  and  C_12
REMARK                            x       y       z     vdW  Elec       q    Type
REMARK                         _______ _______ _______ _____ _____    ______ ____
ROOT
ATOM      1  C   LIG A   1      -9.208   4.466 132.898  0.00  0.00    +0.123 C 
ENDROOT
BRANCH   1   2
ATOM      2  O   LIG A   1      -9.900   3.828 133.981  0.00  0.00    -0.391 OA
ATOM      3  H   LIG A   1     -10.806   4.185 133.971  0.00  0.00    +0.210 HD
ENDBRANCH   1   2
BRANCH   1   4
ATOM      4  C   LIG A   1      -9.487   5.979 132.949  0.00  0.00    +0.067 C 
BRANCH   4   5
ATOM      5  C   LIG A   1     -10.280   6.470 131.755  0.00  0.00    -0.041 A 
ATOM      6  C   LIG A   1      -9.602   6.951 130.620  0.00  0.00    +0.053 A 
ATOM      7  C   LIG A   1     -10.351   7.439 129.570  0.00  0.00    +0.167 A 
ATOM      8  C   LIG A   1     -11.721   7.462 129.608  0.00  0.00    +0.166 A 
ATOM      9  C   LIG A   1     -12.426   6.993 130.699  0.00  0.00    +0.050 A 
ATOM     10  C   LIG A   1     -11.692   6.494 131.783  0.00  0.00    +0.007 A 
ATOM     11  O   LIG A   1     -12.264   7.994 128.481  0.00  0.00    -0.453 OA
ATOM     12  C   LIG A   1     -11.071   8.330 127.741  0.00  0.00    +0.466 C 
ATOM     13  O   LIG A   1      -9.853   7.955 128.413  0.00  0.00    -0.453 OA
ENDBRANCH   4   5
ENDBRANCH   1   4
BRANCH   1  14
ATOM     14  C   LIG A   1      -7.699   4.187 133.047  0.00  0.00    +0.070 C 
BRANCH  14  15
ATOM     15  C   LIG A   1      -6.842   4.874 132.002  0.00  0.00    -0.003 A 
ATOM     16  C   LIG A   1      -6.618   4.307 130.745  0.00  0.00    +0.124 A 
ATOM     17  C   LIG A   1      -5.815   4.937 129.792  0.00  0.00    +0.091 A 
ATOM     18  C   LIG A   1      -5.221   6.166 130.083  0.00  0.00    +0.124 A 
ATOM     19  C   LIG A   1      -5.448   6.753 131.329  0.00  0.00    +0.046 A 
ATOM     20  C   LIG A   1      -6.249   6.114 132.282  0.00  0.00    +0.011 A 
BRANCH  16  21
ATOM     21  O   LIG A   1      -7.205   3.108 130.449  0.00  0.00    -0.506 OA
ATOM     22  H   LIG A   1      -6.755   2.722 129.679  0.00  0.00    +0.292 HD
ENDBRANCH  16  21
BRANCH  18  23
ATOM     23  O   LIG A   1      -4.413   6.879 129.239  0.00  0.00    -0.495 OA
ATOM     24  C   LIG A   1      -3.985   8.156 129.700  0.00  0.00    +0.277 C 
ENDBRANCH  18  23
ENDBRANCH  14  15
ENDBRANCH   1  14
TORSDOF 7
ENDMDL
MODEL 9
REMARK VINA RESULT:      -6.8      9.888     12.064
REMARK  Name = NuBBE_1556
REMARK  8 active torsions:
REMARK  status: ('A' for Active; 'I' for Inactive)
REMARK    1  A    between atoms: C_1  and  C_2
REMARK    2  A    between atoms: C_1  and  C_14
REMARK    3  A    between atoms: C_2  and  C_3
REMARK    4  A    between atoms: C_2  and  O_13
REMARK    5  A    between atoms: C_3  and  C_4
REMARK    6  A    between atoms: C_5  and  O_6
REMARK    7  A    between atoms: C_8  and  O_11
REMARK    8  A    between atoms: O_11  and  C_12
REMARK                            x       y       z     vdW  Elec       q    Type
REMARK                         _______ _______ _______ _____ _____    ______ ____
ROOT
ATOM      1  C   LIG A   1      -9.550   5.600 132.062  0.00  0.00    +0.123 C 
ENDROOT
BRANCH   1   2
ATOM      2  O   LIG A   1     -10.322   5.343 133.243  0.00  0.00    -0.391 OA
ATOM      3  H   LIG A   1     -10.541   6.214 133.619  0.00  0.00    +0.210 HD
ENDBRANCH   1   2
BRANCH   1   4
ATOM      4  C   LIG A   1      -8.300   4.701 132.076  0.00  0.00    +0.067 C 
BRANCH   4   5
ATOM      5  C   LIG A   1      -7.008   5.493 132.042  0.00  0.00    -0.041 A 
ATOM      6  C   LIG A   1      -6.748   6.352 130.958  0.00  0.00    +0.053 A 
ATOM      7  C   LIG A   1      -5.542   7.019 130.928  0.00  0.00    +0.167 A 
ATOM      8  C   LIG A   1      -4.607   6.867 131.919  0.00  0.00    +0.166 A 
ATOM      9  C   LIG A   1      -4.825   6.041 133.004  0.00  0.00    +0.050 A 
ATOM     10  C   LIG A   1      -6.040   5.347 133.060  0.00  0.00    +0.007 A 
ATOM     11  O   LIG A   1      -3.484   7.601 131.693  0.00  0.00    -0.453 OA
ATOM     12  C   LIG A   1      -3.813   8.210 130.426  0.00  0.00    +0.466 C 
ATOM     13  O   LIG A   1      -5.129   7.868 129.948  0.00  0.00    -0.453 OA
ENDBRANCH   4   5
ENDBRANCH   1   4
BRANCH   1  14
ATOM     14  C   LIG A   1     -10.422   5.295 130.828  0.00  0.00    +0.070 C 
BRANCH  14  15
ATOM     15  C   LIG A   1     -11.145   6.506 130.273  0.00  0.00    -0.003 A 
ATOM     16  C   LIG A   1     -10.813   7.057 129.032  0.00  0.00    +0.124 A 
ATOM     17  C   LIG A   1     -11.474   8.182 128.533  0.00  0.00    +0.091 A 
ATOM     18  C   LIG A   1     -12.496   8.777 129.273  0.00  0.00    +0.124 A 
ATOM     19  C   LIG A   1     -12.849   8.229 130.507  0.00  0.00    +0.046 A 
ATOM     20  C   LIG A   1     -12.181   7.105 131.005  0.00  0.00    +0.011 A 
BRANCH  16  21
ATOM     21  O   LIG A   1      -9.820   6.473 128.297  0.00  0.00    -0.506 OA
ATOM     22  H   LIG A   1     -10.053   5.542 128.142  0.00  0.00    +0.292 HD
ENDBRANCH  16  21
BRANCH  18  23
ATOM     23  O   LIG A   1     -13.213   9.880 128.896  0.00  0.00    -0.495 OA
ATOM     24  C   LIG A   1     -13.467  10.848 129.909  0.00  0.00    +0.277 C 
ENDBRANCH  18  23
ENDBRANCH  14  15
ENDBRANCH   1  14
TORSDOF 7
ENDMDL
