MODEL 1
REMARK VINA RESULT:      -7.9      0.000      0.000
REMARK  Name = NuBBE_1651
REMARK  14 active torsions:
REMARK  status: ('A' for Active; 'I' for Inactive)
REMARK    1  A    between atoms: C_1  and  C_2
REMARK    2  A    between atoms: C_1  and  C_6
REMARK    3  A    between atoms: C_3  and  C_4
REMARK    4  A    between atoms: C_3  and  C_5
REMARK    5  A    between atoms: C_10  and  C_13
REMARK    6  A    between atoms: C_13  and  C_14
REMARK    7  A    between atoms: C_13  and  C_20
REMARK    8  A    between atoms: C_13  and  O_21
REMARK    9  A    between atoms: C_14  and  C_15
REMARK   10  A    between atoms: C_15  and  C_16
REMARK   11  A    between atoms: C_17  and  C_18
REMARK   12  A    between atoms: C_17  and  C_19
REMARK   13  A    between atoms: C_23  and  C_25
REMARK   14  A    between atoms: C_25  and  O_27
REMARK                            x       y       z     vdW  Elec       q    Type
REMARK                         _______ _______ _______ _____ _____    ______ ____
ROOT
ATOM      1  C   LIG A   1      -6.297   3.683 124.847  0.00  0.00    -0.001 A 
ATOM      2  C   LIG A   1      -7.487   2.970 124.686  0.00  0.00    +0.128 A 
ATOM      3  C   LIG A   1      -8.048   2.790 123.443  0.00  0.00    -0.001 A 
ATOM      4  C   LIG A   1      -9.286   1.991 123.535  0.00  0.00    +0.086 C 
ATOM      5  C   LIG A   1      -9.184   1.471 124.981  0.00  0.00    +0.209 C 
ATOM      6  O   LIG A   1      -8.172   2.289 125.660  0.00  0.00    -0.485 OA
ATOM      7  C   LIG A   1      -7.415   3.234 122.300  0.00  0.00    +0.022 A 
ATOM      8  C   LIG A   1      -6.167   3.843 122.428  0.00  0.00    +0.060 A 
ATOM      9  C   LIG A   1      -5.633   4.121 123.702  0.00  0.00    +0.022 A 
ENDROOT
BRANCH   5  10
ATOM     10  C   LIG A   1      -8.815  -0.053 125.077  0.00  0.00    +0.101 C 
ATOM     11  C   LIG A   1      -7.759  -0.339 126.187  0.00  0.00    +0.045 C 
BRANCH  10  12
ATOM     12  O   LIG A   1      -9.959  -0.796 125.526  0.00  0.00    -0.385 OA
ATOM     13  H   LIG A   1      -9.968  -1.633 125.031  0.00  0.00    +0.210 HD
ENDBRANCH  10  12
BRANCH  10  14
ATOM     14  C   LIG A   1      -8.280  -0.647 123.729  0.00  0.00    +0.042 C 
BRANCH  14  15
ATOM     15  C   LIG A   1      -6.759  -0.725 123.376  0.00  0.00    +0.030 C 
BRANCH  15  16
ATOM     16  C   LIG A   1      -6.080  -2.060 123.054  0.00  0.00    -0.028 C 
ATOM     17  C   LIG A   1      -5.413  -2.849 123.938  0.00  0.00    -0.080 C 
ATOM     18  C   LIG A   1      -5.251  -2.468 125.380  0.00  0.00    +0.038 C 
ATOM     19  C   LIG A   1      -4.853  -4.234 123.657  0.00  0.00    +0.038 C 
ENDBRANCH  15  16
ENDBRANCH  14  15
ENDBRANCH  10  14
ENDBRANCH   5  10
BRANCH   8  20
ATOM     20  C   LIG A   1      -5.380   4.129 121.228  0.00  0.00    +0.337 C 
ATOM     21  O   LIG A   1      -5.108   5.306 120.862  0.00  0.00    -0.245 OA
BRANCH  20  22
ATOM     22  O   LIG A   1      -4.922   3.051 120.576  0.00  0.00    -0.477 OA
ATOM     23  H   LIG A   1      -3.969   3.088 120.350  0.00  0.00    +0.295 HD
ENDBRANCH  20  22
ENDBRANCH   8  20
BRANCH   1  24
ATOM     24  C   LIG A   1      -5.645   3.879 126.181  0.00  0.00    +0.066 C 
BRANCH  24  25
ATOM     25  C   LIG A   1      -4.140   3.754 126.076  0.00  0.00    -0.023 C 
ATOM     26  C   LIG A   1      -3.182   3.254 126.892  0.00  0.00    -0.079 C 
ATOM     27  C   LIG A   1      -3.444   2.894 128.318  0.00  0.00    +0.038 C 
ATOM     28  C   LIG A   1      -1.712   3.021 126.537  0.00  0.00    +0.038 C 
ENDBRANCH  24  25
ENDBRANCH   1  24
TORSDOF 9
ENDMDL
MODEL 2
REMARK VINA RESULT:      -7.6      2.018      5.146
REMARK  Name = NuBBE_1651
REMARK  14 active torsions:
REMARK  status: ('A' for Active; 'I' for Inactive)
REMARK    1  A    between atoms: C_1  and  C_2
REMARK    2  A    between atoms: C_1  and  C_6
REMARK    3  A    between atoms: C_3  and  C_4
REMARK    4  A    between atoms: C_3  and  C_5
REMARK    5  A    between atoms: C_10  and  C_13
REMARK    6  A    between atoms: C_13  and  C_14
REMARK    7  A    between atoms: C_13  and  C_20
REMARK    8  A    between atoms: C_13  and  O_21
REMARK    9  A    between atoms: C_14  and  C_15
REMARK   10  A    between atoms: C_15  and  C_16
REMARK   11  A    between atoms: C_17  and  C_18
REMARK   12  A    between atoms: C_17  and  C_19
REMARK   13  A    between atoms: C_23  and  C_25
REMARK   14  A    between atoms: C_25  and  O_27
REMARK                            x       y       z     vdW  Elec       q    Type
REMARK                         _______ _______ _______ _____ _____    ______ ____
ROOT
ATOM      1  C   LIG A   1      -7.266   3.093 123.265  0.00  0.00    -0.001 A 
ATOM      2  C   LIG A   1      -7.074   3.304 124.633  0.00  0.00    +0.128 A 
ATOM      3  C   LIG A   1      -8.019   2.917 125.554  0.00  0.00    -0.001 A 
ATOM      4  C   LIG A   1      -7.577   3.231 126.927  0.00  0.00    +0.086 C 
ATOM      5  C   LIG A   1      -6.095   3.571 126.678  0.00  0.00    +0.209 C 
ATOM      6  O   LIG A   1      -5.943   3.792 125.235  0.00  0.00    -0.485 OA
ATOM      7  C   LIG A   1      -9.155   2.231 125.172  0.00  0.00    +0.022 A 
ATOM      8  C   LIG A   1      -9.308   1.904 123.824  0.00  0.00    +0.060 A 
ATOM      9  C   LIG A   1      -8.397   2.383 122.862  0.00  0.00    +0.022 A 
ENDROOT
BRANCH   5  10
ATOM     10  C   LIG A   1      -5.103   2.459 127.172  0.00  0.00    +0.101 C 
ATOM     11  C   LIG A   1      -3.707   2.561 126.486  0.00  0.00    +0.045 C 
BRANCH  10  12
ATOM     12  O   LIG A   1      -4.793   2.675 128.558  0.00  0.00    -0.385 OA
ATOM     13  H   LIG A   1      -4.419   3.570 128.631  0.00  0.00    +0.210 HD
ENDBRANCH  10  12
BRANCH  10  14
ATOM     14  C   LIG A   1      -5.646   1.004 126.961  0.00  0.00    +0.042 C 
BRANCH  14  15
ATOM     15  C   LIG A   1      -5.245   0.113 125.741  0.00  0.00    +0.030 C 
BRANCH  15  16
ATOM     16  C   LIG A   1      -5.828  -1.290 125.549  0.00  0.00    -0.028 C 
ATOM     17  C   LIG A   1      -6.495  -1.733 124.449  0.00  0.00    -0.080 C 
ATOM     18  C   LIG A   1      -6.754  -0.848 123.265  0.00  0.00    +0.038 C 
ATOM     19  C   LIG A   1      -6.959  -3.158 124.196  0.00  0.00    +0.038 C 
ENDBRANCH  15  16
ENDBRANCH  14  15
ENDBRANCH  10  14
ENDBRANCH   5  10
BRANCH   8  20
ATOM     20  C   LIG A   1     -10.385   0.998 123.422  0.00  0.00    +0.337 C 
ATOM     21  O   LIG A   1     -10.171  -0.053 122.757  0.00  0.00    -0.245 OA
BRANCH  20  22
ATOM     22  O   LIG A   1     -11.606   1.336 123.857  0.00  0.00    -0.477 OA
ATOM     23  H   LIG A   1     -12.307   0.685 123.644  0.00  0.00    +0.295 HD
ENDBRANCH  20  22
ENDBRANCH   8  20
BRANCH   1  24
ATOM     24  C   LIG A   1      -6.250   3.480 122.237  0.00  0.00    +0.066 C 
BRANCH  24  25
ATOM     25  C   LIG A   1      -6.907   3.784 120.907  0.00  0.00    -0.023 C 
ATOM     26  C   LIG A   1      -6.518   4.461 119.801  0.00  0.00    -0.079 C 
ATOM     27  C   LIG A   1      -5.305   5.332 119.775  0.00  0.00    +0.038 C 
ATOM     28  C   LIG A   1      -7.239   4.497 118.451  0.00  0.00    +0.038 C 
ENDBRANCH  24  25
ENDBRANCH   1  24
TORSDOF 9
ENDMDL
MODEL 3
REMARK VINA RESULT:      -7.5      2.060      2.805
REMARK  Name = NuBBE_1651
REMARK  14 active torsions:
REMARK  status: ('A' for Active; 'I' for Inactive)
REMARK    1  A    between atoms: C_1  and  C_2
REMARK    2  A    between atoms: C_1  and  C_6
REMARK    3  A    between atoms: C_3  and  C_4
REMARK    4  A    between atoms: C_3  and  C_5
REMARK    5  A    between atoms: C_10  and  C_13
REMARK    6  A    between atoms: C_13  and  C_14
REMARK    7  A    between atoms: C_13  and  C_20
REMARK    8  A    between atoms: C_13  and  O_21
REMARK    9  A    between atoms: C_14  and  C_15
REMARK   10  A    between atoms: C_15  and  C_16
REMARK   11  A    between atoms: C_17  and  C_18
REMARK   12  A    between atoms: C_17  and  C_19
REMARK   13  A    between atoms: C_23  and  C_25
REMARK   14  A    between atoms: C_25  and  O_27
REMARK                            x       y       z     vdW  Elec       q    Type
REMARK                         _______ _______ _______ _____ _____    ______ ____
ROOT
ATOM      1  C   LIG A   1      -6.303   2.424 125.172  0.00  0.00    -0.001 A 
ATOM      2  C   LIG A   1      -7.325   1.539 124.819  0.00  0.00    +0.128 A 
ATOM      3  C   LIG A   1      -7.921   1.594 123.581  0.00  0.00    -0.001 A 
ATOM      4  C   LIG A   1      -8.954   0.548 123.446  0.00  0.00    +0.086 C 
ATOM      5  C   LIG A   1      -8.643  -0.320 124.681  0.00  0.00    +0.209 C 
ATOM      6  O   LIG A   1      -7.781   0.479 125.560  0.00  0.00    -0.485 OA
ATOM      7  C   LIG A   1      -7.478   2.469 122.610  0.00  0.00    +0.022 A 
ATOM      8  C   LIG A   1      -6.380   3.280 122.900  0.00  0.00    +0.060 A 
ATOM      9  C   LIG A   1      -5.829   3.302 124.197  0.00  0.00    +0.022 A 
ENDROOT
BRANCH   5  10
ATOM     10  C   LIG A   1      -7.955  -1.688 124.331  0.00  0.00    +0.101 C 
ATOM     11  C   LIG A   1      -7.681  -1.841 122.804  0.00  0.00    +0.045 C 
BRANCH  10  12
ATOM     12  O   LIG A   1      -6.636  -1.719 124.896  0.00  0.00    -0.385 OA
ATOM     13  H   LIG A   1      -6.631  -1.097 125.644  0.00  0.00    +0.210 HD
ENDBRANCH  10  12
BRANCH  10  14
ATOM     14  C   LIG A   1      -8.777  -2.935 124.807  0.00  0.00    +0.042 C 
BRANCH  14  15
ATOM     15  C   LIG A   1      -9.458  -3.021 126.211  0.00  0.00    +0.030 C 
BRANCH  15  16
ATOM     16  C   LIG A   1      -8.750  -3.669 127.405  0.00  0.00    -0.028 C 
ATOM     17  C   LIG A   1      -7.988  -3.022 128.327  0.00  0.00    -0.080 C 
ATOM     18  C   LIG A   1      -7.737  -1.544 128.257  0.00  0.00    +0.038 C 
ATOM     19  C   LIG A   1      -7.393  -3.632 129.586  0.00  0.00    +0.038 C 
ENDBRANCH  15  16
ENDBRANCH  14  15
ENDBRANCH  10  14
ENDBRANCH   5  10
BRANCH   8  20
ATOM     20  C   LIG A   1      -5.757   4.057 121.829  0.00  0.00    +0.337 C 
ATOM     21  O   LIG A   1      -6.028   3.868 120.610  0.00  0.00    -0.245 OA
BRANCH  20  22
ATOM     22  O   LIG A   1      -4.920   5.020 122.235  0.00  0.00    -0.477 OA
ATOM     23  H   LIG A   1      -4.301   5.338 121.545  0.00  0.00    +0.295 HD
ENDBRANCH  20  22
ENDBRANCH   8  20
BRANCH   1  24
ATOM     24  C   LIG A   1      -5.616   2.379 126.500  0.00  0.00    +0.066 C 
BRANCH  24  25
ATOM     25  C   LIG A   1      -4.111   2.370 126.336  0.00  0.00    -0.023 C 
ATOM     26  C   LIG A   1      -3.124   3.226 126.690  0.00  0.00    -0.079 C 
ATOM     27  C   LIG A   1      -3.394   4.616 127.165  0.00  0.00    +0.038 C 
ATOM     28  C   LIG A   1      -1.618   2.960 126.627  0.00  0.00    +0.038 C 
ENDBRANCH  24  25
ENDBRANCH   1  24
TORSDOF 9
ENDMDL
MODEL 4
REMARK VINA RESULT:      -7.4      6.745      9.842
REMARK  Name = NuBBE_1651
REMARK  14 active torsions:
REMARK  status: ('A' for Active; 'I' for Inactive)
REMARK    1  A    between atoms: C_1  and  C_2
REMARK    2  A    between atoms: C_1  and  C_6
REMARK    3  A    between atoms: C_3  and  C_4
REMARK    4  A    between atoms: C_3  and  C_5
REMARK    5  A    between atoms: C_10  and  C_13
REMARK    6  A    between atoms: C_13  and  C_14
REMARK    7  A    between atoms: C_13  and  C_20
REMARK    8  A    between atoms: C_13  and  O_21
REMARK    9  A    between atoms: C_14  and  C_15
REMARK   10  A    between atoms: C_15  and  C_16
REMARK   11  A    between atoms: C_17  and  C_18
REMARK   12  A    between atoms: C_17  and  C_19
REMARK   13  A    between atoms: C_23  and  C_25
REMARK   14  A    between atoms: C_25  and  O_27
REMARK                            x       y       z     vdW  Elec       q    Type
REMARK                         _______ _______ _______ _____ _____    ______ ____
ROOT
ATOM      1  C   LIG A   1      -7.977   6.875 131.092  0.00  0.00    -0.001 A 
ATOM      2  C   LIG A   1      -6.582   6.937 131.141  0.00  0.00    +0.128 A 
ATOM      3  C   LIG A   1      -5.878   6.363 132.174  0.00  0.00    -0.001 A 
ATOM      4  C   LIG A   1      -4.425   6.547 131.988  0.00  0.00    +0.086 C 
ATOM      5  C   LIG A   1      -4.384   7.041 130.530  0.00  0.00    +0.209 C 
ATOM      6  O   LIG A   1      -5.751   7.445 130.176  0.00  0.00    -0.485 OA
ATOM      7  C   LIG A   1      -6.515   5.632 133.157  0.00  0.00    +0.022 A 
ATOM      8  C   LIG A   1      -7.896   5.457 133.062  0.00  0.00    +0.060 A 
ATOM      9  C   LIG A   1      -8.636   6.124 132.066  0.00  0.00    +0.022 A 
ENDROOT
BRANCH   5  10
ATOM     10  C   LIG A   1      -3.848   5.967 129.517  0.00  0.00    +0.101 C 
ATOM     11  C   LIG A   1      -2.836   6.568 128.496  0.00  0.00    +0.045 C 
BRANCH  10  12
ATOM     12  O   LIG A   1      -3.055   4.999 130.220  0.00  0.00    -0.385 OA
ATOM     13  H   LIG A   1      -3.659   4.496 130.793  0.00  0.00    +0.210 HD
ENDBRANCH  10  12
BRANCH  10  14
ATOM     14  C   LIG A   1      -4.987   5.250 128.713  0.00  0.00    +0.042 C 
BRANCH  14  15
ATOM     15  C   LIG A   1      -5.715   3.966 129.227  0.00  0.00    +0.030 C 
BRANCH  15  16
ATOM     16  C   LIG A   1      -7.242   3.850 129.207  0.00  0.00    -0.028 C 
ATOM     17  C   LIG A   1      -7.999   3.131 130.078  0.00  0.00    -0.080 C 
ATOM     18  C   LIG A   1      -7.388   2.328 131.189  0.00  0.00    +0.038 C 
ATOM     19  C   LIG A   1      -9.518   3.118 130.146  0.00  0.00    +0.038 C 
ENDBRANCH  15  16
ENDBRANCH  14  15
ENDBRANCH  10  14
ENDBRANCH   5  10
BRANCH   8  20
ATOM     20  C   LIG A   1      -8.565   4.516 133.961  0.00  0.00    +0.337 C 
ATOM     21  O   LIG A   1      -7.959   3.935 134.905  0.00  0.00    -0.245 OA
BRANCH  20  22
ATOM     22  O   LIG A   1      -9.877   4.356 133.746  0.00  0.00    -0.477 OA
ATOM     23  H   LIG A   1     -10.374   4.000 134.512  0.00  0.00    +0.295 HD
ENDBRANCH  20  22
ENDBRANCH   8  20
BRANCH   1  24
ATOM     24  C   LIG A   1      -8.774   7.468 129.973  0.00  0.00    +0.066 C 
BRANCH  24  25
ATOM     25  C   LIG A   1     -10.244   7.133 130.113  0.00  0.00    -0.023 C 
ATOM     26  C   LIG A   1     -11.352   7.461 129.406  0.00  0.00    -0.079 C 
ATOM     27  C   LIG A   1     -11.355   8.529 128.362  0.00  0.00    +0.038 C 
ATOM     28  C   LIG A   1     -12.750   6.861 129.572  0.00  0.00    +0.038 C 
ENDBRANCH  24  25
ENDBRANCH   1  24
TORSDOF 9
ENDMDL
MODEL 5
REMARK VINA RESULT:      -7.4      5.589      9.122
REMARK  Name = NuBBE_1651
REMARK  14 active torsions:
REMARK  status: ('A' for Active; 'I' for Inactive)
REMARK    1  A    between atoms: C_1  and  C_2
REMARK    2  A    between atoms: C_1  and  C_6
REMARK    3  A    between atoms: C_3  and  C_4
REMARK    4  A    between atoms: C_3  and  C_5
REMARK    5  A    between atoms: C_10  and  C_13
REMARK    6  A    between atoms: C_13  and  C_14
REMARK    7  A    between atoms: C_13  and  C_20
REMARK    8  A    between atoms: C_13  and  O_21
REMARK    9  A    between atoms: C_14  and  C_15
REMARK   10  A    between atoms: C_15  and  C_16
REMARK   11  A    between atoms: C_17  and  C_18
REMARK   12  A    between atoms: C_17  and  C_19
REMARK   13  A    between atoms: C_23  and  C_25
REMARK   14  A    between atoms: C_25  and  O_27
REMARK                            x       y       z     vdW  Elec       q    Type
REMARK                         _______ _______ _______ _____ _____    ______ ____
ROOT
ATOM      1  C   LIG A   1      -4.586   6.965 130.482  0.00  0.00    -0.001 A 
ATOM      2  C   LIG A   1      -4.108   6.252 129.380  0.00  0.00    +0.128 A 
ATOM      3  C   LIG A   1      -2.764   6.007 129.216  0.00  0.00    -0.001 A 
ATOM      4  C   LIG A   1      -2.516   5.222 127.991  0.00  0.00    +0.086 C 
ATOM      5  C   LIG A   1      -3.950   4.781 127.640  0.00  0.00    +0.209 C 
ATOM      6  O   LIG A   1      -4.862   5.630 128.418  0.00  0.00    -0.485 OA
ATOM      7  C   LIG A   1      -1.845   6.384 130.175  0.00  0.00    +0.022 A 
ATOM      8  C   LIG A   1      -2.314   6.992 131.339  0.00  0.00    +0.060 A 
ATOM      9  C   LIG A   1      -3.674   7.336 131.470  0.00  0.00    +0.022 A 
ENDROOT
BRANCH   5  10
ATOM     10  C   LIG A   1      -4.230   3.263 127.929  0.00  0.00    +0.101 C 
ATOM     11  C   LIG A   1      -5.081   2.593 126.809  0.00  0.00    +0.045 C 
BRANCH  10  12
ATOM     12  O   LIG A   1      -2.997   2.529 127.873  0.00  0.00    -0.385 OA
ATOM     13  H   LIG A   1      -3.141   1.773 127.279  0.00  0.00    +0.210 HD
ENDBRANCH  10  12
BRANCH  10  14
ATOM     14  C   LIG A   1      -4.945   3.014 129.301  0.00  0.00    +0.042 C 
BRANCH  14  15
ATOM     15  C   LIG A   1      -4.167   2.787 130.638  0.00  0.00    +0.030 C 
BRANCH  15  16
ATOM     16  C   LIG A   1      -4.563   3.514 131.928  0.00  0.00    -0.028 C 
ATOM     17  C   LIG A   1      -3.713   3.912 132.911  0.00  0.00    -0.080 C 
ATOM     18  C   LIG A   1      -2.237   3.655 132.840  0.00  0.00    +0.038 C 
ATOM     19  C   LIG A   1      -4.079   4.749 134.127  0.00  0.00    +0.038 C 
ENDBRANCH  15  16
ENDBRANCH  14  15
ENDBRANCH  10  14
ENDBRANCH   5  10
BRANCH   8  20
ATOM     20  C   LIG A   1      -1.396   7.207 132.458  0.00  0.00    +0.337 C 
ATOM     21  O   LIG A   1      -1.785   7.641 133.578  0.00  0.00    -0.245 OA
BRANCH  20  22
ATOM     22  O   LIG A   1      -0.123   6.859 132.227  0.00  0.00    -0.477 OA
ATOM     23  H   LIG A   1       0.446   7.590 131.908  0.00  0.00    +0.295 HD
ENDBRANCH  20  22
ENDBRANCH   8  20
BRANCH   1  24
ATOM     24  C   LIG A   1      -6.042   7.230 130.704  0.00  0.00    +0.066 C 
BRANCH  24  25
ATOM     25  C   LIG A   1      -6.558   6.469 131.907  0.00  0.00    -0.023 C 
ATOM     26  C   LIG A   1      -7.776   6.001 132.269  0.00  0.00    -0.079 C 
ATOM     27  C   LIG A   1      -9.033   6.398 131.567  0.00  0.00    +0.038 C 
ATOM     28  C   LIG A   1      -8.082   5.063 133.439  0.00  0.00    +0.038 C 
ENDBRANCH  24  25
ENDBRANCH   1  24
TORSDOF 9
ENDMDL
MODEL 6
REMARK VINA RESULT:      -7.4      2.559      6.057
REMARK  Name = NuBBE_1651
REMARK  14 active torsions:
REMARK  status: ('A' for Active; 'I' for Inactive)
REMARK    1  A    between atoms: C_1  and  C_2
REMARK    2  A    between atoms: C_1  and  C_6
REMARK    3  A    between atoms: C_3  and  C_4
REMARK    4  A    between atoms: C_3  and  C_5
REMARK    5  A    between atoms: C_10  and  C_13
REMARK    6  A    between atoms: C_13  and  C_14
REMARK    7  A    between atoms: C_13  and  C_20
REMARK    8  A    between atoms: C_13  and  O_21
REMARK    9  A    between atoms: C_14  and  C_15
REMARK   10  A    between atoms: C_15  and  C_16
REMARK   11  A    between atoms: C_17  and  C_18
REMARK   12  A    between atoms: C_17  and  C_19
REMARK   13  A    between atoms: C_23  and  C_25
REMARK   14  A    between atoms: C_25  and  O_27
REMARK                            x       y       z     vdW  Elec       q    Type
REMARK                         _______ _______ _______ _____ _____    ______ ____
ROOT
ATOM      1  C   LIG A   1      -5.582   1.397 126.716  0.00  0.00    -0.001 A 
ATOM      2  C   LIG A   1      -6.310   2.378 126.038  0.00  0.00    +0.128 A 
ATOM      3  C   LIG A   1      -5.848   3.670 125.941  0.00  0.00    -0.001 A 
ATOM      4  C   LIG A   1      -6.784   4.507 125.164  0.00  0.00    +0.086 C 
ATOM      5  C   LIG A   1      -7.701   3.426 124.561  0.00  0.00    +0.209 C 
ATOM      6  O   LIG A   1      -7.462   2.190 125.318  0.00  0.00    -0.485 OA
ATOM      7  C   LIG A   1      -4.610   4.028 126.435  0.00  0.00    +0.022 A 
ATOM      8  C   LIG A   1      -3.815   3.037 127.010  0.00  0.00    +0.060 A 
ATOM      9  C   LIG A   1      -4.319   1.736 127.204  0.00  0.00    +0.022 A 
ENDROOT
BRANCH   5  10
ATOM     10  C   LIG A   1      -7.465   3.185 123.027  0.00  0.00    +0.101 C 
ATOM     11  C   LIG A   1      -7.424   1.670 122.664  0.00  0.00    +0.045 C 
BRANCH  10  12
ATOM     12  O   LIG A   1      -8.600   3.660 122.287  0.00  0.00    -0.385 OA
ATOM     13  H   LIG A   1      -8.266   4.003 121.441  0.00  0.00    +0.210 HD
ENDBRANCH  10  12
BRANCH  10  14
ATOM     14  C   LIG A   1      -6.153   3.852 122.489  0.00  0.00    +0.042 C 
BRANCH  14  15
ATOM     15  C   LIG A   1      -5.556   3.542 121.078  0.00  0.00    +0.030 C 
BRANCH  15  16
ATOM     16  C   LIG A   1      -5.321   4.651 120.048  0.00  0.00    -0.028 C 
ATOM     17  C   LIG A   1      -6.195   5.040 119.082  0.00  0.00    -0.080 C 
ATOM     18  C   LIG A   1      -7.532   4.382 118.906  0.00  0.00    +0.038 C 
ATOM     19  C   LIG A   1      -6.025   6.225 118.144  0.00  0.00    +0.038 C 
ENDBRANCH  15  16
ENDBRANCH  14  15
ENDBRANCH  10  14
ENDBRANCH   5  10
BRANCH   8  20
ATOM     20  C   LIG A   1      -2.423   3.337 127.346  0.00  0.00    +0.337 C 
ATOM     21  O   LIG A   1      -2.100   4.308 128.085  0.00  0.00    -0.245 OA
BRANCH  20  22
ATOM     22  O   LIG A   1      -1.519   2.476 126.858  0.00  0.00    -0.477 OA
ATOM     23  H   LIG A   1      -0.704   2.896 126.512  0.00  0.00    +0.295 HD
ENDBRANCH  20  22
ENDBRANCH   8  20
BRANCH   1  24
ATOM     24  C   LIG A   1      -6.042  -0.023 126.822  0.00  0.00    +0.066 C 
BRANCH  24  25
ATOM     25  C   LIG A   1      -5.537  -0.849 125.658  0.00  0.00    -0.023 C 
ATOM     26  C   LIG A   1      -6.139  -1.648 124.745  0.00  0.00    -0.079 C 
ATOM     27  C   LIG A   1      -7.558  -2.095 124.876  0.00  0.00    +0.038 C 
ATOM     28  C   LIG A   1      -5.494  -2.253 123.496  0.00  0.00    +0.038 C 
ENDBRANCH  24  25
ENDBRANCH   1  24
TORSDOF 9
ENDMDL
MODEL 7
REMARK VINA RESULT:      -7.0      2.448      4.034
REMARK  Name = NuBBE_1651
REMARK  14 active torsions:
REMARK  status: ('A' for Active; 'I' for Inactive)
REMARK    1  A    between atoms: C_1  and  C_2
REMARK    2  A    between atoms: C_1  and  C_6
REMARK    3  A    between atoms: C_3  and  C_4
REMARK    4  A    between atoms: C_3  and  C_5
REMARK    5  A    between atoms: C_10  and  C_13
REMARK    6  A    between atoms: C_13  and  C_14
REMARK    7  A    between atoms: C_13  and  C_20
REMARK    8  A    between atoms: C_13  and  O_21
REMARK    9  A    between atoms: C_14  and  C_15
REMARK   10  A    between atoms: C_15  and  C_16
REMARK   11  A    between atoms: C_17  and  C_18
REMARK   12  A    between atoms: C_17  and  C_19
REMARK   13  A    between atoms: C_23  and  C_25
REMARK   14  A    between atoms: C_25  and  O_27
REMARK                            x       y       z     vdW  Elec       q    Type
REMARK                         _______ _______ _______ _____ _____    ______ ____
ROOT
ATOM      1  C   LIG A   1      -5.738   1.726 126.528  0.00  0.00    -0.001 A 
ATOM      2  C   LIG A   1      -6.320   1.050 127.603  0.00  0.00    +0.128 A 
ATOM      3  C   LIG A   1      -7.684   1.036 127.783  0.00  0.00    -0.001 A 
ATOM      4  C   LIG A   1      -8.051   0.243 128.972  0.00  0.00    +0.086 C 
ATOM      5  C   LIG A   1      -6.713  -0.460 129.270  0.00  0.00    +0.209 C 
ATOM      6  O   LIG A   1      -5.676   0.256 128.516  0.00  0.00    -0.485 OA
ATOM      7  C   LIG A   1      -8.534   1.619 126.864  0.00  0.00    +0.022 A 
ATOM      8  C   LIG A   1      -7.980   2.196 125.722  0.00  0.00    +0.060 A 
ATOM      9  C   LIG A   1      -6.582   2.303 125.579  0.00  0.00    +0.022 A 
ENDROOT
BRANCH   5  10
ATOM     10  C   LIG A   1      -6.708  -1.986 128.900  0.00  0.00    +0.101 C 
ATOM     11  C   LIG A   1      -5.373  -2.430 128.229  0.00  0.00    +0.045 C 
BRANCH  10  12
ATOM     12  O   LIG A   1      -6.737  -2.771 130.102  0.00  0.00    -0.385 OA
ATOM     13  H   LIG A   1      -7.665  -2.823 130.387  0.00  0.00    +0.210 HD
ENDBRANCH  10  12
BRANCH  10  14
ATOM     14  C   LIG A   1      -7.889  -2.399 127.957  0.00  0.00    +0.042 C 
BRANCH  14  15
ATOM     15  C   LIG A   1      -7.688  -2.779 126.454  0.00  0.00    +0.030 C 
BRANCH  15  16
ATOM     16  C   LIG A   1      -7.835  -1.739 125.339  0.00  0.00    -0.028 C 
ATOM     17  C   LIG A   1      -6.845  -1.311 124.511  0.00  0.00    -0.080 C 
ATOM     18  C   LIG A   1      -5.439  -1.824 124.620  0.00  0.00    +0.038 C 
ATOM     19  C   LIG A   1      -7.012  -0.381 123.320  0.00  0.00    +0.038 C 
ENDBRANCH  15  16
ENDBRANCH  14  15
ENDBRANCH  10  14
ENDBRANCH   5  10
BRANCH   8  20
ATOM     20  C   LIG A   1      -8.859   2.627 124.635  0.00  0.00    +0.337 C 
ATOM     21  O   LIG A   1      -8.489   3.448 123.750  0.00  0.00    -0.245 OA
BRANCH  20  22
ATOM     22  O   LIG A   1     -10.067   2.048 124.615  0.00  0.00    -0.477 OA
ATOM     23  H   LIG A   1     -10.521   2.087 123.747  0.00  0.00    +0.295 HD
ENDBRANCH  20  22
ENDBRANCH   8  20
BRANCH   1  24
ATOM     24  C   LIG A   1      -4.261   1.744 126.288  0.00  0.00    +0.066 C 
BRANCH  24  25
ATOM     25  C   LIG A   1      -3.671   3.101 126.610  0.00  0.00    -0.023 C 
ATOM     26  C   LIG A   1      -3.314   3.719 127.760  0.00  0.00    -0.079 C 
ATOM     27  C   LIG A   1      -3.696   3.198 129.107  0.00  0.00    +0.038 C 
ATOM     28  C   LIG A   1      -2.534   5.030 127.888  0.00  0.00    +0.038 C 
ENDBRANCH  24  25
ENDBRANCH   1  24
TORSDOF 9
ENDMDL
MODEL 8
REMARK VINA RESULT:      -7.0      6.694      9.021
REMARK  Name = NuBBE_1651
REMARK  14 active torsions:
REMARK  status: ('A' for Active; 'I' for Inactive)
REMARK    1  A    between atoms: C_1  and  C_2
REMARK    2  A    between atoms: C_1  and  C_6
REMARK    3  A    between atoms: C_3  and  C_4
REMARK    4  A    between atoms: C_3  and  C_5
REMARK    5  A    between atoms: C_10  and  C_13
REMARK    6  A    between atoms: C_13  and  C_14
REMARK    7  A    between atoms: C_13  and  C_20
REMARK    8  A    between atoms: C_13  and  O_21
REMARK    9  A    between atoms: C_14  and  C_15
REMARK   10  A    between atoms: C_15  and  C_16
REMARK   11  A    between atoms: C_17  and  C_18
REMARK   12  A    between atoms: C_17  and  C_19
REMARK   13  A    between atoms: C_23  and  C_25
REMARK   14  A    between atoms: C_25  and  O_27
REMARK                            x       y       z     vdW  Elec       q    Type
REMARK                         _______ _______ _______ _____ _____    ______ ____
ROOT
ATOM      1  C   LIG A   1      -6.688   5.479 133.237  0.00  0.00    -0.001 A 
ATOM      2  C   LIG A   1      -7.912   5.563 132.570  0.00  0.00    +0.128 A 
ATOM      3  C   LIG A   1      -8.066   6.357 131.457  0.00  0.00    -0.001 A 
ATOM      4  C   LIG A   1      -9.440   6.261 130.927  0.00  0.00    +0.086 C 
ATOM      5  C   LIG A   1      -9.967   5.048 131.717  0.00  0.00    +0.209 C 
ATOM      6  O   LIG A   1      -9.041   4.830 132.835  0.00  0.00    -0.485 OA
ATOM      7  C   LIG A   1      -6.997   7.036 130.908  0.00  0.00    +0.022 A 
ATOM      8  C   LIG A   1      -5.739   6.870 131.488  0.00  0.00    +0.060 A 
ATOM      9  C   LIG A   1      -5.591   6.141 132.684  0.00  0.00    +0.022 A 
ENDROOT
BRANCH   5  10
ATOM     10  C   LIG A   1     -10.101   3.744 130.852  0.00  0.00    +0.101 C 
ATOM     11  C   LIG A   1      -9.998   2.449 131.711  0.00  0.00    +0.045 C 
BRANCH  10  12
ATOM     12  O   LIG A   1     -11.429   3.663 130.311  0.00  0.00    -0.385 OA
ATOM     13  H   LIG A   1     -11.816   2.829 130.630  0.00  0.00    +0.210 HD
ENDBRANCH  10  12
BRANCH  10  14
ATOM     14  C   LIG A   1      -9.042   3.652 129.700  0.00  0.00    +0.042 C 
BRANCH  14  15
ATOM     15  C   LIG A   1      -7.966   2.522 129.620  0.00  0.00    +0.030 C 
BRANCH  15  16
ATOM     16  C   LIG A   1      -6.628   2.637 130.358  0.00  0.00    -0.028 C 
ATOM     17  C   LIG A   1      -5.561   3.381 129.961  0.00  0.00    -0.080 C 
ATOM     18  C   LIG A   1      -5.578   4.187 128.696  0.00  0.00    +0.038 C 
ATOM     19  C   LIG A   1      -4.282   3.607 130.752  0.00  0.00    +0.038 C 
ENDBRANCH  15  16
ENDBRANCH  14  15
ENDBRANCH  10  14
ENDBRANCH   5  10
BRANCH   8  20
ATOM     20  C   LIG A   1      -4.557   7.400 130.806  0.00  0.00    +0.337 C 
ATOM     21  O   LIG A   1      -3.382   7.125 131.177  0.00  0.00    -0.245 OA
BRANCH  20  22
ATOM     22  O   LIG A   1      -4.811   8.154 129.728  0.00  0.00    -0.477 OA
ATOM     23  H   LIG A   1      -5.664   7.957 129.287  0.00  0.00    +0.295 HD
ENDBRANCH  20  22
ENDBRANCH   8  20
BRANCH   1  24
ATOM     24  C   LIG A   1      -6.478   4.608 134.436  0.00  0.00    +0.066 C 
BRANCH  24  25
ATOM     25  C   LIG A   1      -7.264   5.118 135.625  0.00  0.00    -0.023 C 
ATOM     26  C   LIG A   1      -7.080   6.127 136.509  0.00  0.00    -0.079 C 
ATOM     27  C   LIG A   1      -5.790   6.872 136.624  0.00  0.00    +0.038 C 
ATOM     28  C   LIG A   1      -8.091   6.635 137.539  0.00  0.00    +0.038 C 
ENDBRANCH  24  25
ENDBRANCH   1  24
TORSDOF 9
ENDMDL
MODEL 9
REMARK VINA RESULT:      -7.0      3.265      6.518
REMARK  Name = NuBBE_1651
REMARK  14 active torsions:
REMARK  status: ('A' for Active; 'I' for Inactive)
REMARK    1  A    between atoms: C_1  and  C_2
REMARK    2  A    between atoms: C_1  and  C_6
REMARK    3  A    between atoms: C_3  and  C_4
REMARK    4  A    between atoms: C_3  and  C_5
REMARK    5  A    between atoms: C_10  and  C_13
REMARK    6  A    between atoms: C_13  and  C_14
REMARK    7  A    between atoms: C_13  and  C_20
REMARK    8  A    between atoms: C_13  and  O_21
REMARK    9  A    between atoms: C_14  and  C_15
REMARK   10  A    between atoms: C_15  and  C_16
REMARK   11  A    between atoms: C_17  and  C_18
REMARK   12  A    between atoms: C_17  and  C_19
REMARK   13  A    between atoms: C_23  and  C_25
REMARK   14  A    between atoms: C_25  and  O_27
REMARK                            x       y       z     vdW  Elec       q    Type
REMARK                         _______ _______ _______ _____ _____    ______ ____
ROOT
ATOM      1  C   LIG A   1      -7.675  -2.261 127.150  0.00  0.00    -0.001 A 
ATOM      2  C   LIG A   1      -6.736  -1.239 126.991  0.00  0.00    +0.128 A 
ATOM      3  C   LIG A   1      -6.353  -0.809 125.742  0.00  0.00    -0.001 A 
ATOM      4  C   LIG A   1      -5.369   0.287 125.840  0.00  0.00    +0.086 C 
ATOM      5  C   LIG A   1      -5.479   0.636 127.336  0.00  0.00    +0.209 C 
ATOM      6  O   LIG A   1      -6.174  -0.482 127.987  0.00  0.00    -0.485 OA
ATOM      7  C   LIG A   1      -6.942  -1.311 124.599  0.00  0.00    +0.022 A 
ATOM      8  C   LIG A   1      -7.967  -2.247 124.739  0.00  0.00    +0.060 A 
ATOM      9  C   LIG A   1      -8.295  -2.767 126.007  0.00  0.00    +0.022 A 
ENDROOT
BRANCH   5  10
ATOM     10  C   LIG A   1      -6.231   1.987 127.613  0.00  0.00    +0.101 C 
ATOM     11  C   LIG A   1      -7.571   1.774 128.379  0.00  0.00    +0.045 C 
BRANCH  10  12
ATOM     12  O   LIG A   1      -5.464   2.783 128.530  0.00  0.00    -0.385 OA
ATOM     13  H   LIG A   1      -5.473   3.695 128.192  0.00  0.00    +0.210 HD
ENDBRANCH  10  12
BRANCH  10  14
ATOM     14  C   LIG A   1      -6.536   2.805 126.312  0.00  0.00    +0.042 C 
BRANCH  14  15
ATOM     15  C   LIG A   1      -7.987   3.121 125.824  0.00  0.00    +0.030 C 
BRANCH  15  16
ATOM     16  C   LIG A   1      -8.542   2.526 124.526  0.00  0.00    -0.028 C 
ATOM     17  C   LIG A   1      -9.369   1.450 124.431  0.00  0.00    -0.080 C 
ATOM     18  C   LIG A   1      -9.831   0.692 125.641  0.00  0.00    +0.038 C 
ATOM     19  C   LIG A   1     -10.028   0.936 123.162  0.00  0.00    +0.038 C 
ENDBRANCH  15  16
ENDBRANCH  14  15
ENDBRANCH  10  14
ENDBRANCH   5  10
BRANCH   8  20
ATOM     20  C   LIG A   1      -8.752  -2.635 123.566  0.00  0.00    +0.337 C 
ATOM     21  O   LIG A   1      -9.833  -3.280 123.659  0.00  0.00    -0.245 OA
BRANCH  20  22
ATOM     22  O   LIG A   1      -8.269  -2.211 122.391  0.00  0.00    -0.477 OA
ATOM     23  H   LIG A   1      -8.937  -1.805 121.800  0.00  0.00    +0.295 HD
ENDBRANCH  20  22
ENDBRANCH   8  20
BRANCH   1  24
ATOM     24  C   LIG A   1      -8.131  -2.739 128.492  0.00  0.00    +0.066 C 
BRANCH  24  25
ATOM     25  C   LIG A   1      -7.049  -3.541 129.184  0.00  0.00    -0.023 C 
ATOM     26  C   LIG A   1      -6.702  -3.726 130.480  0.00  0.00    -0.079 C 
ATOM     27  C   LIG A   1      -7.252  -2.890 131.589  0.00  0.00    +0.038 C 
ATOM     28  C   LIG A   1      -5.695  -4.745 131.018  0.00  0.00    +0.038 C 
ENDBRANCH  24  25
ENDBRANCH   1  24
TORSDOF 9
ENDMDL
