MODEL 1
REMARK VINA RESULT:      -7.4      0.000      0.000
REMARK  Name = NuBBE_2401
REMARK  6 active torsions:
REMARK  status: ('A' for Active; 'I' for Inactive)
REMARK    1  A    between atoms: O_1  and  C_2
REMARK    2  A    between atoms: O_1  and  C_3
REMARK    3  A    between atoms: C_4  and  C_11
REMARK    4  A    between atoms: C_7  and  O_9
REMARK    5  A    between atoms: O_9  and  C_10
REMARK    6  A    between atoms: C_19  and  O_22
REMARK                            x       y       z     vdW  Elec       q    Type
REMARK                         _______ _______ _______ _____ _____    ______ ____
ROOT
ATOM      1  C   LIG A   1     -10.168   6.358 131.517  0.00  0.00    +0.064 C 
ATOM      2  C   LIG A   1     -11.550   6.870 131.087  0.00  0.00    +0.050 C 
ATOM      3  C   LIG A   1     -11.692   6.979 129.594  0.00  0.00    -0.005 A 
ATOM      4  C   LIG A   1     -10.572   6.933 128.757  0.00  0.00    +0.127 A 
ATOM      5  O   LIG A   1      -9.298   6.732 129.212  0.00  0.00    -0.491 OA
ATOM      6  C   LIG A   1      -9.102   6.981 130.609  0.00  0.00    +0.237 C 
ATOM      7  C   LIG A   1     -10.719   7.030 127.373  0.00  0.00    +0.091 A 
ATOM      8  C   LIG A   1     -11.988   7.183 126.827  0.00  0.00    +0.120 A 
ATOM      9  C   LIG A   1     -13.113   7.230 127.642  0.00  0.00    +0.046 A 
ATOM     10  C   LIG A   1     -12.964   7.130 129.025  0.00  0.00    +0.011 A 
ENDROOT
BRANCH   1  12
ATOM     11  C   LIG A   1      -9.372   4.251 132.719  0.00  0.00    +0.127 A 
ATOM     12  C   LIG A   1     -10.033   4.837 131.619  0.00  0.00    +0.001 A 
ATOM     13  C   LIG A   1     -10.549   3.987 130.630  0.00  0.00    +0.011 A 
ATOM     14  C   LIG A   1     -10.459   2.599 130.740  0.00  0.00    +0.046 A 
ATOM     15  C   LIG A   1      -9.839   2.026 131.846  0.00  0.00    +0.124 A 
ATOM     16  C   LIG A   1      -9.295   2.857 132.830  0.00  0.00    +0.091 A 
BRANCH  11  17
ATOM     17  O   LIG A   1      -8.882   5.115 133.666  0.00  0.00    -0.495 OA
ATOM     18  C   LIG A   1      -8.075   4.533 134.686  0.00  0.00    +0.277 C 
ENDBRANCH  11  17
BRANCH  15  19
ATOM     19  O   LIG A   1      -9.707   0.683 132.071  0.00  0.00    -0.495 OA
ATOM     20  C   LIG A   1      -8.709   0.008 131.313  0.00  0.00    +0.277 C 
ENDBRANCH  15  19
ENDBRANCH   1  12
BRANCH   8  21
ATOM     21  O   LIG A   1     -12.178   7.291 125.481  0.00  0.00    -0.507 OA
ATOM     22  H   LIG A   1     -11.311   7.405 125.057  0.00  0.00    +0.292 HD
ENDBRANCH   8  21
TORSDOF 4
ENDMDL
MODEL 2
REMARK VINA RESULT:      -6.9      7.528      8.915
REMARK  Name = NuBBE_2401
REMARK  6 active torsions:
REMARK  status: ('A' for Active; 'I' for Inactive)
REMARK    1  A    between atoms: O_1  and  C_2
REMARK    2  A    between atoms: O_1  and  C_3
REMARK    3  A    between atoms: C_4  and  C_11
REMARK    4  A    between atoms: C_7  and  O_9
REMARK    5  A    between atoms: O_9  and  C_10
REMARK    6  A    between atoms: C_19  and  O_22
REMARK                            x       y       z     vdW  Elec       q    Type
REMARK                         _______ _______ _______ _____ _____    ______ ____
ROOT
ATOM      1  C   LIG A   1      -8.047   1.883 124.536  0.00  0.00    +0.064 C 
ATOM      2  C   LIG A   1      -8.773   2.462 123.314  0.00  0.00    +0.050 C 
ATOM      3  C   LIG A   1      -7.838   3.130 122.344  0.00  0.00    -0.005 A 
ATOM      4  C   LIG A   1      -6.528   3.457 122.712  0.00  0.00    +0.127 A 
ATOM      5  O   LIG A   1      -5.988   3.150 123.930  0.00  0.00    -0.491 OA
ATOM      6  C   LIG A   1      -6.937   2.851 124.961  0.00  0.00    +0.237 C 
ATOM      7  C   LIG A   1      -5.671   4.073 121.799  0.00  0.00    +0.091 A 
ATOM      8  C   LIG A   1      -6.128   4.370 120.521  0.00  0.00    +0.120 A 
ATOM      9  C   LIG A   1      -7.426   4.052 120.137  0.00  0.00    +0.046 A 
ATOM     10  C   LIG A   1      -8.281   3.435 121.049  0.00  0.00    +0.011 A 
ENDROOT
BRANCH   1  12
ATOM     11  C   LIG A   1      -7.566  -0.441 125.476  0.00  0.00    +0.127 A 
ATOM     12  C   LIG A   1      -7.541   0.447 124.381  0.00  0.00    +0.001 A 
ATOM     13  C   LIG A   1      -7.036  -0.025 123.161  0.00  0.00    +0.011 A 
ATOM     14  C   LIG A   1      -6.610  -1.345 123.008  0.00  0.00    +0.046 A 
ATOM     15  C   LIG A   1      -6.671  -2.227 124.082  0.00  0.00    +0.124 A 
ATOM     16  C   LIG A   1      -7.148  -1.769 125.314  0.00  0.00    +0.091 A 
BRANCH  11  17
ATOM     17  O   LIG A   1      -8.068   0.056 126.653  0.00  0.00    -0.495 OA
ATOM     18  C   LIG A   1      -7.147   0.148 127.736  0.00  0.00    +0.277 C 
ENDBRANCH  11  17
BRANCH  15  19
ATOM     19  O   LIG A   1      -6.300  -3.543 124.047  0.00  0.00    -0.495 OA
ATOM     20  C   LIG A   1      -4.917  -3.806 123.835  0.00  0.00    +0.277 C 
ENDBRANCH  15  19
ENDBRANCH   1  12
BRANCH   8  21
ATOM     21  O   LIG A   1      -5.327   4.979 119.601  0.00  0.00    -0.507 OA
ATOM     22  H   LIG A   1      -4.634   5.470 120.073  0.00  0.00    +0.292 HD
ENDBRANCH   8  21
TORSDOF 4
ENDMDL
MODEL 3
REMARK VINA RESULT:      -6.5      2.056      2.382
REMARK  Name = NuBBE_2401
REMARK  6 active torsions:
REMARK  status: ('A' for Active; 'I' for Inactive)
REMARK    1  A    between atoms: O_1  and  C_2
REMARK    2  A    between atoms: O_1  and  C_3
REMARK    3  A    between atoms: C_4  and  C_11
REMARK    4  A    between atoms: C_7  and  O_9
REMARK    5  A    between atoms: O_9  and  C_10
REMARK    6  A    between atoms: C_19  and  O_22
REMARK                            x       y       z     vdW  Elec       q    Type
REMARK                         _______ _______ _______ _____ _____    ______ ____
ROOT
ATOM      1  C   LIG A   1      -8.595   5.598 131.952  0.00  0.00    +0.064 C 
ATOM      2  C   LIG A   1     -10.038   5.963 132.331  0.00  0.00    +0.050 C 
ATOM      3  C   LIG A   1     -10.757   6.705 131.240  0.00  0.00    -0.005 A 
ATOM      4  C   LIG A   1     -10.057   7.268 130.167  0.00  0.00    +0.127 A 
ATOM      5  O   LIG A   1      -8.706   7.141 129.998  0.00  0.00    -0.491 OA
ATOM      6  C   LIG A   1      -7.977   6.763 131.171  0.00  0.00    +0.237 C 
ATOM      7  C   LIG A   1     -10.739   7.950 129.158  0.00  0.00    +0.091 A 
ATOM      8  C   LIG A   1     -12.120   8.078 129.229  0.00  0.00    +0.120 A 
ATOM      9  C   LIG A   1     -12.833   7.525 130.287  0.00  0.00    +0.046 A 
ATOM     10  C   LIG A   1     -12.151   6.842 131.293  0.00  0.00    +0.011 A 
ENDROOT
BRANCH   1  12
ATOM     11  C   LIG A   1      -7.273   3.472 131.455  0.00  0.00    +0.127 A 
ATOM     12  C   LIG A   1      -8.423   4.257 131.235  0.00  0.00    +0.001 A 
ATOM     13  C   LIG A   1      -9.390   3.775 130.340  0.00  0.00    +0.011 A 
ATOM     14  C   LIG A   1      -9.252   2.535 129.715  0.00  0.00    +0.046 A 
ATOM     15  C   LIG A   1      -8.132   1.749 129.964  0.00  0.00    +0.124 A 
ATOM     16  C   LIG A   1      -7.145   2.223 130.833  0.00  0.00    +0.091 A 
BRANCH  11  17
ATOM     17  O   LIG A   1      -6.350   3.977 132.337  0.00  0.00    -0.495 OA
ATOM     18  C   LIG A   1      -5.048   4.218 131.811  0.00  0.00    +0.277 C 
ENDBRANCH  11  17
BRANCH  15  19
ATOM     19  O   LIG A   1      -7.897   0.513 129.425  0.00  0.00    -0.495 OA
ATOM     20  C   LIG A   1      -7.888  -0.583 130.332  0.00  0.00    +0.277 C 
ENDBRANCH  15  19
ENDBRANCH   1  12
BRANCH   8  21
ATOM     21  O   LIG A   1     -12.826   8.744 128.271  0.00  0.00    -0.507 OA
ATOM     22  H   LIG A   1     -12.392   8.599 127.414  0.00  0.00    +0.292 HD
ENDBRANCH   8  21
TORSDOF 4
ENDMDL
MODEL 4
REMARK VINA RESULT:      -6.5      4.512      6.761
REMARK  Name = NuBBE_2401
REMARK  6 active torsions:
REMARK  status: ('A' for Active; 'I' for Inactive)
REMARK    1  A    between atoms: O_1  and  C_2
REMARK    2  A    between atoms: O_1  and  C_3
REMARK    3  A    between atoms: C_4  and  C_11
REMARK    4  A    between atoms: C_7  and  O_9
REMARK    5  A    between atoms: O_9  and  C_10
REMARK    6  A    between atoms: C_19  and  O_22
REMARK                            x       y       z     vdW  Elec       q    Type
REMARK                         _______ _______ _______ _____ _____    ______ ____
ROOT
ATOM      1  C   LIG A   1      -5.094   5.936 132.786  0.00  0.00    +0.064 C 
ATOM      2  C   LIG A   1      -4.085   6.819 132.037  0.00  0.00    +0.050 C 
ATOM      3  C   LIG A   1      -3.566   6.174 130.782  0.00  0.00    -0.005 A 
ATOM      4  C   LIG A   1      -3.749   4.807 130.544  0.00  0.00    +0.127 A 
ATOM      5  O   LIG A   1      -4.445   3.982 131.383  0.00  0.00    -0.491 OA
ATOM      6  C   LIG A   1      -4.628   4.478 132.713  0.00  0.00    +0.237 C 
ATOM      7  C   LIG A   1      -3.266   4.224 129.371  0.00  0.00    +0.091 A 
ATOM      8  C   LIG A   1      -2.592   5.007 128.442  0.00  0.00    +0.120 A 
ATOM      9  C   LIG A   1      -2.402   6.367 128.661  0.00  0.00    +0.046 A 
ATOM     10  C   LIG A   1      -2.887   6.949 129.831  0.00  0.00    +0.011 A 
ENDROOT
BRANCH   1  12
ATOM     11  C   LIG A   1      -7.595   5.609 133.176  0.00  0.00    +0.127 A 
ATOM     12  C   LIG A   1      -6.555   6.105 132.364  0.00  0.00    +0.001 A 
ATOM     13  C   LIG A   1      -6.903   6.745 131.165  0.00  0.00    +0.011 A 
ATOM     14  C   LIG A   1      -8.236   6.932 130.797  0.00  0.00    +0.046 A 
ATOM     15  C   LIG A   1      -9.258   6.473 131.622  0.00  0.00    +0.124 A 
ATOM     16  C   LIG A   1      -8.932   5.810 132.808  0.00  0.00    +0.091 A 
BRANCH  11  17
ATOM     17  O   LIG A   1      -7.216   4.990 134.342  0.00  0.00    -0.495 OA
ATOM     18  C   LIG A   1      -7.611   5.634 135.549  0.00  0.00    +0.277 C 
ENDBRANCH  11  17
BRANCH  15  19
ATOM     19  O   LIG A   1     -10.597   6.615 131.375  0.00  0.00    -0.495 OA
ATOM     20  C   LIG A   1     -10.955   7.116 130.091  0.00  0.00    +0.277 C 
ENDBRANCH  15  19
ENDBRANCH   1  12
BRANCH   8  21
ATOM     21  O   LIG A   1      -2.096   4.477 127.288  0.00  0.00    -0.507 OA
ATOM     22  H   LIG A   1      -2.075   3.510 127.379  0.00  0.00    +0.292 HD
ENDBRANCH   8  21
TORSDOF 4
ENDMDL
MODEL 5
REMARK VINA RESULT:      -6.4      7.212      9.845
REMARK  Name = NuBBE_2401
REMARK  6 active torsions:
REMARK  status: ('A' for Active; 'I' for Inactive)
REMARK    1  A    between atoms: O_1  and  C_2
REMARK    2  A    between atoms: O_1  and  C_3
REMARK    3  A    between atoms: C_4  and  C_11
REMARK    4  A    between atoms: C_7  and  O_9
REMARK    5  A    between atoms: O_9  and  C_10
REMARK    6  A    between atoms: C_19  and  O_22
REMARK                            x       y       z     vdW  Elec       q    Type
REMARK                         _______ _______ _______ _____ _____    ______ ____
ROOT
ATOM      1  C   LIG A   1      -6.405   1.112 126.035  0.00  0.00    +0.064 C 
ATOM      2  C   LIG A   1      -5.961  -0.329 125.749  0.00  0.00    +0.050 C 
ATOM      3  C   LIG A   1      -7.063  -1.175 125.173  0.00  0.00    -0.005 A 
ATOM      4  C   LIG A   1      -8.397  -0.754 125.225  0.00  0.00    +0.127 A 
ATOM      5  O   LIG A   1      -8.789   0.452 125.736  0.00  0.00    -0.491 OA
ATOM      6  C   LIG A   1      -7.834   1.092 126.590  0.00  0.00    +0.237 C 
ATOM      7  C   LIG A   1      -9.409  -1.547 124.681  0.00  0.00    +0.091 A 
ATOM      8  C   LIG A   1      -9.086  -2.765 124.096  0.00  0.00    +0.120 A 
ATOM      9  C   LIG A   1      -7.767  -3.199 124.034  0.00  0.00    +0.046 A 
ATOM     10  C   LIG A   1      -6.757  -2.405 124.576  0.00  0.00    +0.011 A 
ENDROOT
BRANCH   1  12
ATOM     11  C   LIG A   1      -5.522   3.293 125.044  0.00  0.00    +0.127 A 
ATOM     12  C   LIG A   1      -6.242   2.093 124.872  0.00  0.00    +0.001 A 
ATOM     13  C   LIG A   1      -6.805   1.836 123.613  0.00  0.00    +0.011 A 
ATOM     14  C   LIG A   1      -6.626   2.711 122.541  0.00  0.00    +0.046 A 
ATOM     15  C   LIG A   1      -5.883   3.876 122.707  0.00  0.00    +0.124 A 
ATOM     16  C   LIG A   1      -5.336   4.163 123.961  0.00  0.00    +0.091 A 
BRANCH  11  17
ATOM     17  O   LIG A   1      -4.986   3.509 126.290  0.00  0.00    -0.495 OA
ATOM     18  C   LIG A   1      -3.568   3.630 126.348  0.00  0.00    +0.277 C 
ENDBRANCH  11  17
BRANCH  15  19
ATOM     19  O   LIG A   1      -5.627   4.797 121.728  0.00  0.00    -0.495 OA
ATOM     20  C   LIG A   1      -5.749   4.344 120.384  0.00  0.00    +0.277 C 
ENDBRANCH  15  19
ENDBRANCH   1  12
BRANCH   8  21
ATOM     21  O   LIG A   1     -10.044  -3.575 123.560  0.00  0.00    -0.507 OA
ATOM     22  H   LIG A   1      -9.892  -3.639 122.603  0.00  0.00    +0.292 HD
ENDBRANCH   8  21
TORSDOF 4
ENDMDL
MODEL 6
REMARK VINA RESULT:      -6.4      6.158     10.174
REMARK  Name = NuBBE_2401
REMARK  6 active torsions:
REMARK  status: ('A' for Active; 'I' for Inactive)
REMARK    1  A    between atoms: O_1  and  C_2
REMARK    2  A    between atoms: O_1  and  C_3
REMARK    3  A    between atoms: C_4  and  C_11
REMARK    4  A    between atoms: C_7  and  O_9
REMARK    5  A    between atoms: O_9  and  C_10
REMARK    6  A    between atoms: C_19  and  O_22
REMARK                            x       y       z     vdW  Elec       q    Type
REMARK                         _______ _______ _______ _____ _____    ______ ____
ROOT
ATOM      1  C   LIG A   1      -7.120  -1.348 124.475  0.00  0.00    +0.064 C 
ATOM      2  C   LIG A   1      -8.093  -2.363 125.091  0.00  0.00    +0.050 C 
ATOM      3  C   LIG A   1      -7.793  -2.656 126.535  0.00  0.00    -0.005 A 
ATOM      4  C   LIG A   1      -6.570  -2.287 127.107  0.00  0.00    +0.127 A 
ATOM      5  O   LIG A   1      -5.600  -1.596 126.434  0.00  0.00    -0.491 OA
ATOM      6  C   LIG A   1      -5.709  -1.625 125.007  0.00  0.00    +0.237 C 
ATOM      7  C   LIG A   1      -6.307  -2.561 128.450  0.00  0.00    +0.091 A 
ATOM      8  C   LIG A   1      -7.264  -3.214 129.217  0.00  0.00    +0.120 A 
ATOM      9  C   LIG A   1      -8.485  -3.587 128.666  0.00  0.00    +0.046 A 
ATOM     10  C   LIG A   1      -8.747  -3.311 127.325  0.00  0.00    +0.011 A 
ENDROOT
BRANCH   1  12
ATOM     11  C   LIG A   1      -8.778   0.568 124.165  0.00  0.00    +0.127 A 
ATOM     12  C   LIG A   1      -7.522   0.121 124.624  0.00  0.00    +0.001 A 
ATOM     13  C   LIG A   1      -6.660   1.062 125.208  0.00  0.00    +0.011 A 
ATOM     14  C   LIG A   1      -7.040   2.394 125.378  0.00  0.00    +0.046 A 
ATOM     15  C   LIG A   1      -8.296   2.820 124.956  0.00  0.00    +0.124 A 
ATOM     16  C   LIG A   1      -9.159   1.904 124.348  0.00  0.00    +0.091 A 
BRANCH  11  17
ATOM     17  O   LIG A   1      -9.594  -0.381 123.600  0.00  0.00    -0.495 OA
ATOM     18  C   LIG A   1     -10.137  -0.059 122.324  0.00  0.00    +0.277 C 
ENDBRANCH  11  17
BRANCH  15  19
ATOM     19  O   LIG A   1      -8.783   4.092 125.086  0.00  0.00    -0.495 OA
ATOM     20  C   LIG A   1      -8.052   4.967 125.938  0.00  0.00    +0.277 C 
ENDBRANCH  15  19
ENDBRANCH   1  12
BRANCH   8  21
ATOM     21  O   LIG A   1      -7.046  -3.509 130.531  0.00  0.00    -0.507 OA
ATOM     22  H   LIG A   1      -7.297  -4.435 130.682  0.00  0.00    +0.292 HD
ENDBRANCH   8  21
TORSDOF 4
ENDMDL
MODEL 7
REMARK VINA RESULT:      -6.3      4.855      8.516
REMARK  Name = NuBBE_2401
REMARK  6 active torsions:
REMARK  status: ('A' for Active; 'I' for Inactive)
REMARK    1  A    between atoms: O_1  and  C_2
REMARK    2  A    between atoms: O_1  and  C_3
REMARK    3  A    between atoms: C_4  and  C_11
REMARK    4  A    between atoms: C_7  and  O_9
REMARK    5  A    between atoms: O_9  and  C_10
REMARK    6  A    between atoms: C_19  and  O_22
REMARK                            x       y       z     vdW  Elec       q    Type
REMARK                         _______ _______ _______ _____ _____    ______ ____
ROOT
ATOM      1  C   LIG A   1      -6.822  -2.348 128.972  0.00  0.00    +0.064 C 
ATOM      2  C   LIG A   1      -6.238  -2.244 127.556  0.00  0.00    +0.050 C 
ATOM      3  C   LIG A   1      -7.260  -2.505 126.484  0.00  0.00    -0.005 A 
ATOM      4  C   LIG A   1      -8.491  -3.097 126.790  0.00  0.00    +0.127 A 
ATOM      5  O   LIG A   1      -8.877  -3.422 128.061  0.00  0.00    -0.491 OA
ATOM      6  C   LIG A   1      -7.815  -3.515 129.017  0.00  0.00    +0.237 C 
ATOM      7  C   LIG A   1      -9.432  -3.329 125.786  0.00  0.00    +0.091 A 
ATOM      8  C   LIG A   1      -9.137  -2.978 124.474  0.00  0.00    +0.120 A 
ATOM      9  C   LIG A   1      -7.920  -2.388 124.152  0.00  0.00    +0.046 A 
ATOM     10  C   LIG A   1      -6.981  -2.155 125.156  0.00  0.00    +0.011 A 
ENDROOT
BRANCH   1  12
ATOM     11  C   LIG A   1      -7.660  -0.925 130.918  0.00  0.00    +0.127 A 
ATOM     12  C   LIG A   1      -7.414  -1.055 129.536  0.00  0.00    +0.001 A 
ATOM     13  C   LIG A   1      -7.734   0.029 128.704  0.00  0.00    +0.011 A 
ATOM     14  C   LIG A   1      -8.238   1.222 129.222  0.00  0.00    +0.046 A 
ATOM     15  C   LIG A   1      -8.445   1.357 130.591  0.00  0.00    +0.124 A 
ATOM     16  C   LIG A   1      -8.156   0.280 131.434  0.00  0.00    +0.091 A 
BRANCH  11  17
ATOM     17  O   LIG A   1      -7.333  -2.005 131.700  0.00  0.00    -0.495 OA
ATOM     18  C   LIG A   1      -7.770  -1.952 133.055  0.00  0.00    +0.277 C 
ENDBRANCH  11  17
BRANCH  15  19
ATOM     19  O   LIG A   1      -8.916   2.481 131.213  0.00  0.00    -0.495 OA
ATOM     20  C   LIG A   1      -9.463   2.304 132.515  0.00  0.00    +0.277 C 
ENDBRANCH  15  19
ENDBRANCH   1  12
BRANCH   8  21
ATOM     21  O   LIG A   1     -10.023  -3.195 123.460  0.00  0.00    -0.507 OA
ATOM     22  H   LIG A   1     -10.923  -3.100 123.814  0.00  0.00    +0.292 HD
ENDBRANCH   8  21
TORSDOF 4
ENDMDL
MODEL 8
REMARK VINA RESULT:      -6.2      6.400      8.608
REMARK  Name = NuBBE_2401
REMARK  6 active torsions:
REMARK  status: ('A' for Active; 'I' for Inactive)
REMARK    1  A    between atoms: O_1  and  C_2
REMARK    2  A    between atoms: O_1  and  C_3
REMARK    3  A    between atoms: C_4  and  C_11
REMARK    4  A    between atoms: C_7  and  O_9
REMARK    5  A    between atoms: O_9  and  C_10
REMARK    6  A    between atoms: C_19  and  O_22
REMARK                            x       y       z     vdW  Elec       q    Type
REMARK                         _______ _______ _______ _____ _____    ______ ____
ROOT
ATOM      1  C   LIG A   1      -7.715  -0.707 123.832  0.00  0.00    +0.064 C 
ATOM      2  C   LIG A   1      -6.569   0.314 123.832  0.00  0.00    +0.050 C 
ATOM      3  C   LIG A   1      -7.006   1.681 124.280  0.00  0.00    -0.005 A 
ATOM      4  C   LIG A   1      -8.363   2.017 124.353  0.00  0.00    +0.127 A 
ATOM      5  O   LIG A   1      -9.374   1.135 124.086  0.00  0.00    -0.491 OA
ATOM      6  C   LIG A   1      -8.992  -0.021 123.332  0.00  0.00    +0.237 C 
ATOM      7  C   LIG A   1      -8.754   3.288 124.775  0.00  0.00    +0.091 A 
ATOM      8  C   LIG A   1      -7.787   4.226 125.116  0.00  0.00    +0.120 A 
ATOM      9  C   LIG A   1      -6.435   3.910 125.052  0.00  0.00    +0.046 A 
ATOM     10  C   LIG A   1      -6.045   2.639 124.631  0.00  0.00    +0.011 A 
ENDROOT
BRANCH   1  12
ATOM     11  C   LIG A   1      -8.294  -2.817 125.146  0.00  0.00    +0.127 A 
ATOM     12  C   LIG A   1      -7.931  -1.455 125.149  0.00  0.00    +0.001 A 
ATOM     13  C   LIG A   1      -7.783  -0.814 126.388  0.00  0.00    +0.011 A 
ATOM     14  C   LIG A   1      -7.942  -1.504 127.591  0.00  0.00    +0.046 A 
ATOM     15  C   LIG A   1      -8.264  -2.858 127.581  0.00  0.00    +0.124 A 
ATOM     16  C   LIG A   1      -8.441  -3.508 126.357  0.00  0.00    +0.091 A 
BRANCH  11  17
ATOM     17  O   LIG A   1      -8.428  -3.409 123.915  0.00  0.00    -0.495 OA
ATOM     18  C   LIG A   1      -9.761  -3.551 123.432  0.00  0.00    +0.277 C 
ENDBRANCH  11  17
BRANCH  15  19
ATOM     19  O   LIG A   1      -8.427  -3.639 128.692  0.00  0.00    -0.495 OA
ATOM     20  C   LIG A   1      -7.844  -3.157 129.898  0.00  0.00    +0.277 C 
ENDBRANCH  15  19
ENDBRANCH   1  12
BRANCH   8  21
ATOM     21  O   LIG A   1      -8.124   5.482 125.526  0.00  0.00    -0.507 OA
ATOM     22  H   LIG A   1      -7.370   6.072 125.360  0.00  0.00    +0.292 HD
ENDBRANCH   8  21
TORSDOF 4
ENDMDL
MODEL 9
REMARK VINA RESULT:      -6.2      8.208     10.766
REMARK  Name = NuBBE_2401
REMARK  6 active torsions:
REMARK  status: ('A' for Active; 'I' for Inactive)
REMARK    1  A    between atoms: O_1  and  C_2
REMARK    2  A    between atoms: O_1  and  C_3
REMARK    3  A    between atoms: C_4  and  C_11
REMARK    4  A    between atoms: C_7  and  O_9
REMARK    5  A    between atoms: O_9  and  C_10
REMARK    6  A    between atoms: C_19  and  O_22
REMARK                            x       y       z     vdW  Elec       q    Type
REMARK                         _______ _______ _______ _____ _____    ______ ____
ROOT
ATOM      1  C   LIG A   1      -5.210  -2.076 128.626  0.00  0.00    +0.064 C 
ATOM      2  C   LIG A   1      -4.670  -3.320 129.345  0.00  0.00    +0.050 C 
ATOM      3  C   LIG A   1      -5.296  -3.530 130.696  0.00  0.00    -0.005 A 
ATOM      4  C   LIG A   1      -6.025  -2.512 131.320  0.00  0.00    +0.127 A 
ATOM      5  O   LIG A   1      -6.269  -1.296 130.743  0.00  0.00    -0.491 OA
ATOM      6  C   LIG A   1      -5.406  -0.954 129.652  0.00  0.00    +0.237 C 
ATOM      7  C   LIG A   1      -6.605  -2.723 132.572  0.00  0.00    +0.091 A 
ATOM      8  C   LIG A   1      -6.447  -3.951 133.203  0.00  0.00    +0.120 A 
ATOM      9  C   LIG A   1      -5.728  -4.975 132.598  0.00  0.00    +0.046 A 
ATOM     10  C   LIG A   1      -5.150  -4.763 131.347  0.00  0.00    +0.011 A 
ENDROOT
BRANCH   1  12
ATOM     11  C   LIG A   1      -6.526  -1.773 126.460  0.00  0.00    +0.127 A 
ATOM     12  C   LIG A   1      -6.454  -2.304 127.764  0.00  0.00    +0.001 A 
ATOM     13  C   LIG A   1      -7.553  -3.034 128.241  0.00  0.00    +0.011 A 
ATOM     14  C   LIG A   1      -8.672  -3.274 127.443  0.00  0.00    +0.046 A 
ATOM     15  C   LIG A   1      -8.721  -2.779 126.143  0.00  0.00    +0.124 A 
ATOM     16  C   LIG A   1      -7.647  -2.028 125.658  0.00  0.00    +0.091 A 
BRANCH  11  17
ATOM     17  O   LIG A   1      -5.431  -1.066 126.028  0.00  0.00    -0.495 OA
ATOM     18  C   LIG A   1      -5.593   0.346 125.942  0.00  0.00    +0.277 C 
ENDBRANCH  11  17
BRANCH  15  19
ATOM     19  O   LIG A   1      -9.754  -2.965 125.265  0.00  0.00    -0.495 OA
ATOM     20  C   LIG A   1      -9.396  -3.275 123.922  0.00  0.00    +0.277 C 
ENDBRANCH  15  19
ENDBRANCH   1  12
BRANCH   8  21
ATOM     21  O   LIG A   1      -6.990  -4.198 134.430  0.00  0.00    -0.507 OA
ATOM     22  H   LIG A   1      -7.924  -4.436 134.309  0.00  0.00    +0.292 HD
ENDBRANCH   8  21
TORSDOF 4
ENDMDL
