MODEL 1
REMARK VINA RESULT:      -7.2      0.000      0.000
REMARK  Name = NuBBE_2458
REMARK  18 active torsions:
REMARK  status: ('A' for Active; 'I' for Inactive)
REMARK    1  A    between atoms: C_1  and  O_2
REMARK    2  A    between atoms: O_2  and  C_3
REMARK    3  A    between atoms: C_4  and  O_5
REMARK    4  A    between atoms: O_5  and  C_6
REMARK    5  A    between atoms: C_9  and  C_11
REMARK    6  A    between atoms: C_14  and  O_15
REMARK    7  A    between atoms: O_15  and  C_16
REMARK    8  A    between atoms: C_16  and  C_17
REMARK    9  A    between atoms: C_19  and  O_20
REMARK   10  A    between atoms: O_20  and  C_21
REMARK   11  A    between atoms: C_23  and  C_25
REMARK   12  A    between atoms: C_25  and  O_26
REMARK   13  A    between atoms: O_26  and  C_27
REMARK   14  A    between atoms: C_27  and  C_28
REMARK   15  A    between atoms: C_30  and  C_32
REMARK   16  A    between atoms: C_32  and  O_33
REMARK   17  A    between atoms: O_33  and  C_34
REMARK   18  A    between atoms: C_34  and  C_35
REMARK                            x       y       z     vdW  Elec       q    Type
REMARK                         _______ _______ _______ _____ _____    ______ ____
ROOT
ATOM      1  C   LIG A   1     -10.628   6.445 131.130  0.00  0.00    +0.162 A 
ATOM      2  C   LIG A   1      -9.539   6.989 130.429  0.00  0.00    +0.162 A 
ATOM      3  C   LIG A   1      -8.242   6.837 130.952  0.00  0.00    +0.053 A 
ATOM      4  C   LIG A   1      -7.983   6.090 132.112  0.00  0.00    -0.033 A 
ATOM      5  C   LIG A   1      -6.545   5.905 132.602  0.00  0.00    +0.056 C 
ATOM      6  C   LIG A   1      -6.403   4.974 133.849  0.00  0.00    +0.045 C 
ATOM      7  C   LIG A   1      -7.612   4.023 134.092  0.00  0.00    +0.038 C 
ATOM      8  C   LIG A   1      -8.912   4.822 134.094  0.00  0.00    +0.042 C 
ATOM      9  C   LIG A   1      -9.077   5.580 132.811  0.00  0.00    -0.040 A 
ATOM     10  C   LIG A   1     -10.377   5.792 132.339  0.00  0.00    +0.053 A 
ENDROOT
BRANCH   5  11
ATOM     11  C   LIG A   1      -5.503   5.529 131.543  0.00  0.00    -0.036 A 
ATOM     12  C   LIG A   1      -4.750   6.529 130.902  0.00  0.00    +0.008 A 
ATOM     13  C   LIG A   1      -3.832   6.203 129.898  0.00  0.00    +0.050 A 
ATOM     14  C   LIG A   1      -3.677   4.869 129.511  0.00  0.00    +0.173 A 
ATOM     15  C   LIG A   1      -4.382   3.849 130.166  0.00  0.00    +0.163 A 
ATOM     16  C   LIG A   1      -5.269   4.195 131.188  0.00  0.00    +0.053 A 
BRANCH  15  17
ATOM     17  O   LIG A   1      -4.141   2.555 129.790  0.00  0.00    -0.491 OA
ATOM     18  C   LIG A   1      -5.193   1.871 129.117  0.00  0.00    +0.277 C 
ENDBRANCH  15  17
BRANCH  14  19
ATOM     19  O   LIG A   1      -2.675   4.612 128.557  0.00  0.00    -0.422 OA
BRANCH  19  20
ATOM     20  C   LIG A   1      -3.128   4.310 127.277  0.00  0.00    +0.309 C 
ATOM     21  C   LIG A   1      -2.165   3.351 126.639  0.00  0.00    +0.136 C 
ATOM     22  O   LIG A   1      -4.128   4.768 126.741  0.00  0.00    -0.251 OA
ENDBRANCH  19  20
ENDBRANCH  14  19
ENDBRANCH   5  11
BRANCH   1  24
ATOM     23  C   LIG A   1     -12.761   7.472 131.388  0.00  0.00    +0.277 C 
ATOM     24  O   LIG A   1     -11.905   6.596 130.644  0.00  0.00    -0.491 OA
ENDBRANCH   1  24
BRANCH   2  25
ATOM     25  O   LIG A   1      -9.762   7.668 129.251  0.00  0.00    -0.491 OA
ATOM     26  C   LIG A   1     -10.138   6.836 128.147  0.00  0.00    +0.277 C 
ENDBRANCH   2  25
BRANCH   6  27
ATOM     27  C   LIG A   1      -6.133   5.876 135.071  0.00  0.00    +0.237 C 
BRANCH  27  28
ATOM     28  O   LIG A   1      -6.346   5.137 136.281  0.00  0.00    -0.465 OA
BRANCH  28  29
ATOM     29  C   LIG A   1      -6.682   5.854 137.383  0.00  0.00    +0.304 C 
ATOM     30  C   LIG A   1      -7.865   6.726 137.096  0.00  0.00    +0.136 C 
ATOM     31  O   LIG A   1      -6.127   5.796 138.472  0.00  0.00    -0.251 OA
ENDBRANCH  28  29
ENDBRANCH  27  28
ENDBRANCH   6  27
BRANCH   7  32
ATOM     32  C   LIG A   1      -7.629   2.841 133.100  0.00  0.00    +0.236 C 
BRANCH  32  33
ATOM     33  O   LIG A   1      -8.892   2.148 133.119  0.00  0.00    -0.465 OA
BRANCH  33  34
ATOM     34  C   LIG A   1      -9.301   1.587 131.957  0.00  0.00    +0.304 C 
ATOM     35  C   LIG A   1      -9.123   2.510 130.799  0.00  0.00    +0.136 C 
ATOM     36  O   LIG A   1      -9.777   0.444 131.847  0.00  0.00    -0.251 OA
ENDBRANCH  33  34
ENDBRANCH  32  33
ENDBRANCH   7  32
TORSDOF 12
ENDMDL
MODEL 2
REMARK VINA RESULT:      -7.1      3.089      6.313
REMARK  Name = NuBBE_2458
REMARK  18 active torsions:
REMARK  status: ('A' for Active; 'I' for Inactive)
REMARK    1  A    between atoms: C_1  and  O_2
REMARK    2  A    between atoms: O_2  and  C_3
REMARK    3  A    between atoms: C_4  and  O_5
REMARK    4  A    between atoms: O_5  and  C_6
REMARK    5  A    between atoms: C_9  and  C_11
REMARK    6  A    between atoms: C_14  and  O_15
REMARK    7  A    between atoms: O_15  and  C_16
REMARK    8  A    between atoms: C_16  and  C_17
REMARK    9  A    between atoms: C_19  and  O_20
REMARK   10  A    between atoms: O_20  and  C_21
REMARK   11  A    between atoms: C_23  and  C_25
REMARK   12  A    between atoms: C_25  and  O_26
REMARK   13  A    between atoms: O_26  and  C_27
REMARK   14  A    between atoms: C_27  and  C_28
REMARK   15  A    between atoms: C_30  and  C_32
REMARK   16  A    between atoms: C_32  and  O_33
REMARK   17  A    between atoms: O_33  and  C_34
REMARK   18  A    between atoms: C_34  and  C_35
REMARK                            x       y       z     vdW  Elec       q    Type
REMARK                         _______ _______ _______ _____ _____    ______ ____
ROOT
ATOM      1  C   LIG A   1      -4.902   6.936 130.524  0.00  0.00    +0.162 A 
ATOM      2  C   LIG A   1      -4.591   5.708 129.916  0.00  0.00    +0.162 A 
ATOM      3  C   LIG A   1      -5.586   4.718 129.823  0.00  0.00    +0.053 A 
ATOM      4  C   LIG A   1      -6.907   4.937 130.245  0.00  0.00    -0.033 A 
ATOM      5  C   LIG A   1      -7.963   3.846 130.064  0.00  0.00    +0.056 C 
ATOM      6  C   LIG A   1      -9.406   4.267 130.492  0.00  0.00    +0.045 C 
ATOM      7  C   LIG A   1      -9.641   5.805 130.564  0.00  0.00    +0.038 C 
ATOM      8  C   LIG A   1      -8.555   6.459 131.413  0.00  0.00    +0.042 C 
ATOM      9  C   LIG A   1      -7.192   6.151 130.872  0.00  0.00    -0.040 A 
ATOM     10  C   LIG A   1      -6.190   7.113 131.037  0.00  0.00    +0.053 A 
ENDROOT
BRANCH   5  11
ATOM     11  C   LIG A   1      -8.002   3.150 128.699  0.00  0.00    -0.036 A 
ATOM     12  C   LIG A   1      -8.228   1.764 128.615  0.00  0.00    +0.008 A 
ATOM     13  C   LIG A   1      -8.215   1.109 127.379  0.00  0.00    +0.050 A 
ATOM     14  C   LIG A   1      -7.953   1.835 126.215  0.00  0.00    +0.173 A 
ATOM     15  C   LIG A   1      -7.771   3.225 126.266  0.00  0.00    +0.163 A 
ATOM     16  C   LIG A   1      -7.820   3.863 127.508  0.00  0.00    +0.053 A 
BRANCH  15  17
ATOM     17  O   LIG A   1      -7.583   3.895 125.087  0.00  0.00    -0.491 OA
ATOM     18  C   LIG A   1      -6.395   4.669 124.966  0.00  0.00    +0.277 C 
ENDBRANCH  15  17
BRANCH  14  19
ATOM     19  O   LIG A   1      -8.042   1.122 125.005  0.00  0.00    -0.422 OA
BRANCH  19  20
ATOM     20  C   LIG A   1      -9.250   0.472 124.778  0.00  0.00    +0.309 C 
ATOM     21  C   LIG A   1     -10.237   1.465 124.234  0.00  0.00    +0.136 C 
ATOM     22  O   LIG A   1      -9.487  -0.706 125.008  0.00  0.00    -0.251 OA
ENDBRANCH  19  20
ENDBRANCH  14  19
ENDBRANCH   5  11
BRANCH   1  24
ATOM     23  C   LIG A   1      -3.170   7.895 131.847  0.00  0.00    +0.277 C 
ATOM     24  O   LIG A   1      -3.940   7.911 130.638  0.00  0.00    -0.491 OA
ENDBRANCH   1  24
BRANCH   2  25
ATOM     25  O   LIG A   1      -3.319   5.494 129.433  0.00  0.00    -0.491 OA
ATOM     26  C   LIG A   1      -3.162   4.282 128.685  0.00  0.00    +0.277 C 
ENDBRANCH   2  25
BRANCH   6  27
ATOM     27  C   LIG A   1      -9.706   3.581 131.842  0.00  0.00    +0.237 C 
BRANCH  27  28
ATOM     28  O   LIG A   1      -9.851   2.168 131.649  0.00  0.00    -0.465 OA
BRANCH  28  29
ATOM     29  C   LIG A   1      -8.948   1.371 132.277  0.00  0.00    +0.304 C 
ATOM     30  C   LIG A   1      -8.972  -0.005 131.688  0.00  0.00    +0.136 C 
ATOM     31  O   LIG A   1      -8.198   1.713 133.181  0.00  0.00    -0.251 OA
ENDBRANCH  28  29
ENDBRANCH  27  28
ENDBRANCH   6  27
BRANCH   7  32
ATOM     32  C   LIG A   1      -9.777   6.437 129.162  0.00  0.00    +0.236 C 
BRANCH  32  33
ATOM     33  O   LIG A   1     -11.094   6.238 128.614  0.00  0.00    -0.465 OA
BRANCH  33  34
ATOM     34  C   LIG A   1     -11.517   7.137 127.695  0.00  0.00    +0.304 C 
ATOM     35  C   LIG A   1     -11.251   8.541 128.124  0.00  0.00    +0.136 C 
ATOM     36  O   LIG A   1     -12.069   6.850 126.619  0.00  0.00    -0.251 OA
ENDBRANCH  33  34
ENDBRANCH  32  33
ENDBRANCH   7  32
TORSDOF 12
ENDMDL
MODEL 3
REMARK VINA RESULT:      -7.0      4.406      7.535
REMARK  Name = NuBBE_2458
REMARK  18 active torsions:
REMARK  status: ('A' for Active; 'I' for Inactive)
REMARK    1  A    between atoms: C_1  and  O_2
REMARK    2  A    between atoms: O_2  and  C_3
REMARK    3  A    between atoms: C_4  and  O_5
REMARK    4  A    between atoms: O_5  and  C_6
REMARK    5  A    between atoms: C_9  and  C_11
REMARK    6  A    between atoms: C_14  and  O_15
REMARK    7  A    between atoms: O_15  and  C_16
REMARK    8  A    between atoms: C_16  and  C_17
REMARK    9  A    between atoms: C_19  and  O_20
REMARK   10  A    between atoms: O_20  and  C_21
REMARK   11  A    between atoms: C_23  and  C_25
REMARK   12  A    between atoms: C_25  and  O_26
REMARK   13  A    between atoms: O_26  and  C_27
REMARK   14  A    between atoms: C_27  and  C_28
REMARK   15  A    between atoms: C_30  and  C_32
REMARK   16  A    between atoms: C_32  and  O_33
REMARK   17  A    between atoms: O_33  and  C_34
REMARK   18  A    between atoms: C_34  and  C_35
REMARK                            x       y       z     vdW  Elec       q    Type
REMARK                         _______ _______ _______ _____ _____    ______ ____
ROOT
ATOM      1  C   LIG A   1      -9.215  -2.279 125.322  0.00  0.00    +0.162 A 
ATOM      2  C   LIG A   1      -9.199  -0.874 125.283  0.00  0.00    +0.162 A 
ATOM      3  C   LIG A   1      -8.681  -0.164 126.382  0.00  0.00    +0.053 A 
ATOM      4  C   LIG A   1      -8.104  -0.808 127.488  0.00  0.00    -0.033 A 
ATOM      5  C   LIG A   1      -7.500   0.015 128.627  0.00  0.00    +0.056 C 
ATOM      6  C   LIG A   1      -6.811  -0.835 129.743  0.00  0.00    +0.045 C 
ATOM      7  C   LIG A   1      -6.418  -2.279 129.311  0.00  0.00    +0.038 C 
ATOM      8  C   LIG A   1      -7.620  -2.981 128.687  0.00  0.00    +0.042 C 
ATOM      9  C   LIG A   1      -8.153  -2.202 127.523  0.00  0.00    -0.040 A 
ATOM     10  C   LIG A   1      -8.734  -2.915 126.469  0.00  0.00    +0.053 A 
ENDROOT
BRANCH   5  11
ATOM     11  C   LIG A   1      -6.596   1.185 128.223  0.00  0.00    -0.036 A 
ATOM     12  C   LIG A   1      -5.494   0.971 127.377  0.00  0.00    +0.008 A 
ATOM     13  C   LIG A   1      -4.632   2.021 127.042  0.00  0.00    +0.050 A 
ATOM     14  C   LIG A   1      -4.857   3.294 127.571  0.00  0.00    +0.173 A 
ATOM     15  C   LIG A   1      -5.975   3.545 128.380  0.00  0.00    +0.163 A 
ATOM     16  C   LIG A   1      -6.840   2.488 128.675  0.00  0.00    +0.053 A 
BRANCH  15  17
ATOM     17  O   LIG A   1      -6.181   4.825 128.817  0.00  0.00    -0.491 OA
ATOM     18  C   LIG A   1      -6.098   5.050 130.220  0.00  0.00    +0.277 C 
ENDBRANCH  15  17
BRANCH  14  19
ATOM     19  O   LIG A   1      -3.999   4.315 127.120  0.00  0.00    -0.422 OA
BRANCH  19  20
ATOM     20  C   LIG A   1      -2.691   4.251 127.590  0.00  0.00    +0.309 C 
ATOM     21  C   LIG A   1      -2.567   5.143 128.791  0.00  0.00    +0.136 C 
ATOM     22  O   LIG A   1      -1.780   3.603 127.094  0.00  0.00    -0.251 OA
ENDBRANCH  19  20
ENDBRANCH  14  19
ENDBRANCH   5  11
BRANCH   1  24
ATOM     23  C   LIG A   1      -8.860  -3.162 123.139  0.00  0.00    +0.277 C 
ATOM     24  O   LIG A   1      -9.730  -2.990 124.265  0.00  0.00    -0.491 OA
ENDBRANCH   1  24
BRANCH   2  25
ATOM     25  O   LIG A   1      -9.698  -0.221 124.178  0.00  0.00    -0.491 OA
ATOM     26  C   LIG A   1      -8.856   0.822 123.671  0.00  0.00    +0.277 C 
ENDBRANCH   2  25
BRANCH   6  27
ATOM     27  C   LIG A   1      -7.751  -0.842 130.966  0.00  0.00    +0.237 C 
BRANCH  27  28
ATOM     28  O   LIG A   1      -8.653   0.270 130.894  0.00  0.00    -0.465 OA
BRANCH  28  29
ATOM     29  C   LIG A   1      -8.741   1.056 131.998  0.00  0.00    +0.304 C 
ATOM     30  C   LIG A   1      -9.967   1.914 131.928  0.00  0.00    +0.136 C 
ATOM     31  O   LIG A   1      -7.957   1.063 132.937  0.00  0.00    -0.251 OA
ENDBRANCH  28  29
ENDBRANCH  27  28
ENDBRANCH   6  27
BRANCH   7  32
ATOM     32  C   LIG A   1      -5.169  -2.294 128.403  0.00  0.00    +0.236 C 
BRANCH  32  33
ATOM     33  O   LIG A   1      -4.002  -1.809 129.095  0.00  0.00    -0.465 OA
BRANCH  33  34
ATOM     34  C   LIG A   1      -3.305  -2.710 129.825  0.00  0.00    +0.304 C 
ATOM     35  C   LIG A   1      -2.902  -3.895 129.012  0.00  0.00    +0.136 C 
ATOM     36  O   LIG A   1      -3.028  -2.590 131.030  0.00  0.00    -0.251 OA
ENDBRANCH  33  34
ENDBRANCH  32  33
ENDBRANCH   7  32
TORSDOF 12
ENDMDL
MODEL 4
REMARK VINA RESULT:      -6.9      4.443      7.989
REMARK  Name = NuBBE_2458
REMARK  18 active torsions:
REMARK  status: ('A' for Active; 'I' for Inactive)
REMARK    1  A    between atoms: C_1  and  O_2
REMARK    2  A    between atoms: O_2  and  C_3
REMARK    3  A    between atoms: C_4  and  O_5
REMARK    4  A    between atoms: O_5  and  C_6
REMARK    5  A    between atoms: C_9  and  C_11
REMARK    6  A    between atoms: C_14  and  O_15
REMARK    7  A    between atoms: O_15  and  C_16
REMARK    8  A    between atoms: C_16  and  C_17
REMARK    9  A    between atoms: C_19  and  O_20
REMARK   10  A    between atoms: O_20  and  C_21
REMARK   11  A    between atoms: C_23  and  C_25
REMARK   12  A    between atoms: C_25  and  O_26
REMARK   13  A    between atoms: O_26  and  C_27
REMARK   14  A    between atoms: C_27  and  C_28
REMARK   15  A    between atoms: C_30  and  C_32
REMARK   16  A    between atoms: C_32  and  O_33
REMARK   17  A    between atoms: O_33  and  C_34
REMARK   18  A    between atoms: C_34  and  C_35
REMARK                            x       y       z     vdW  Elec       q    Type
REMARK                         _______ _______ _______ _____ _____    ______ ____
ROOT
ATOM      1  C   LIG A   1      -3.941   3.584 129.553  0.00  0.00    +0.162 A 
ATOM      2  C   LIG A   1      -3.639   2.737 128.473  0.00  0.00    +0.162 A 
ATOM      3  C   LIG A   1      -4.434   1.597 128.255  0.00  0.00    +0.053 A 
ATOM      4  C   LIG A   1      -5.570   1.313 129.029  0.00  0.00    -0.033 A 
ATOM      5  C   LIG A   1      -6.434   0.092 128.708  0.00  0.00    +0.056 C 
ATOM      6  C   LIG A   1      -7.716  -0.043 129.592  0.00  0.00    +0.045 C 
ATOM      7  C   LIG A   1      -8.167   1.275 130.288  0.00  0.00    +0.038 C 
ATOM      8  C   LIG A   1      -6.992   1.897 131.038  0.00  0.00    +0.042 C 
ATOM      9  C   LIG A   1      -5.840   2.149 130.113  0.00  0.00    -0.040 A 
ATOM     10  C   LIG A   1      -5.010   3.243 130.384  0.00  0.00    +0.053 A 
ENDROOT
BRANCH   5  11
ATOM     11  C   LIG A   1      -6.787  -0.129 127.233  0.00  0.00    -0.036 A 
ATOM     12  C   LIG A   1      -7.989   0.377 126.707  0.00  0.00    +0.008 A 
ATOM     13  C   LIG A   1      -8.346   0.139 125.375  0.00  0.00    +0.050 A 
ATOM     14  C   LIG A   1      -7.508  -0.629 124.563  0.00  0.00    +0.173 A 
ATOM     15  C   LIG A   1      -6.283  -1.106 125.049  0.00  0.00    +0.163 A 
ATOM     16  C   LIG A   1      -5.931  -0.829 126.372  0.00  0.00    +0.053 A 
BRANCH  15  17
ATOM     17  O   LIG A   1      -5.472  -1.798 124.189  0.00  0.00    -0.491 OA
ATOM     18  C   LIG A   1      -5.474  -3.217 124.300  0.00  0.00    +0.277 C 
ENDBRANCH  15  17
BRANCH  14  19
ATOM     19  O   LIG A   1      -7.893  -0.753 123.215  0.00  0.00    -0.422 OA
BRANCH  19  20
ATOM     20  C   LIG A   1      -9.138  -1.333 122.996  0.00  0.00    +0.309 C 
ATOM     21  C   LIG A   1      -9.042  -2.803 123.285  0.00  0.00    +0.136 C 
ATOM     22  O   LIG A   1     -10.142  -0.754 122.604  0.00  0.00    -0.251 OA
ENDBRANCH  19  20
ENDBRANCH  14  19
ENDBRANCH   5  11
BRANCH   1  24
ATOM     23  C   LIG A   1      -3.729   5.951 129.390  0.00  0.00    +0.277 C 
ATOM     24  O   LIG A   1      -3.167   4.695 129.793  0.00  0.00    -0.491 OA
ENDBRANCH   1  24
BRANCH   2  25
ATOM     25  O   LIG A   1      -2.569   3.032 127.659  0.00  0.00    -0.491 OA
ATOM     26  C   LIG A   1      -2.923   3.613 126.398  0.00  0.00    +0.277 C 
ENDBRANCH   2  25
BRANCH   6  27
ATOM     27  C   LIG A   1      -7.455  -1.168 130.615  0.00  0.00    +0.237 C 
BRANCH  27  28
ATOM     28  O   LIG A   1      -8.245  -2.319 130.287  0.00  0.00    -0.465 OA
BRANCH  28  29
ATOM     29  C   LIG A   1      -7.665  -3.247 129.483  0.00  0.00    +0.304 C 
ATOM     30  C   LIG A   1      -8.528  -3.510 128.287  0.00  0.00    +0.136 C 
ATOM     31  O   LIG A   1      -6.584  -3.787 129.676  0.00  0.00    -0.251 OA
ENDBRANCH  28  29
ENDBRANCH  27  28
ENDBRANCH   6  27
BRANCH   7  32
ATOM     32  C   LIG A   1      -8.842   2.251 129.302  0.00  0.00    +0.236 C 
BRANCH  32  33
ATOM     33  O   LIG A   1      -8.934   3.581 129.848  0.00  0.00    -0.465 OA
BRANCH  33  34
ATOM     34  C   LIG A   1      -8.482   4.594 129.073  0.00  0.00    +0.304 C 
ATOM     35  C   LIG A   1      -7.814   4.095 127.836  0.00  0.00    +0.136 C 
ATOM     36  O   LIG A   1      -8.594   5.802 129.343  0.00  0.00    -0.251 OA
ENDBRANCH  33  34
ENDBRANCH  32  33
ENDBRANCH   7  32
TORSDOF 12
ENDMDL
MODEL 5
REMARK VINA RESULT:      -6.9      4.500      9.233
REMARK  Name = NuBBE_2458
REMARK  18 active torsions:
REMARK  status: ('A' for Active; 'I' for Inactive)
REMARK    1  A    between atoms: C_1  and  O_2
REMARK    2  A    between atoms: O_2  and  C_3
REMARK    3  A    between atoms: C_4  and  O_5
REMARK    4  A    between atoms: O_5  and  C_6
REMARK    5  A    between atoms: C_9  and  C_11
REMARK    6  A    between atoms: C_14  and  O_15
REMARK    7  A    between atoms: O_15  and  C_16
REMARK    8  A    between atoms: C_16  and  C_17
REMARK    9  A    between atoms: C_19  and  O_20
REMARK   10  A    between atoms: O_20  and  C_21
REMARK   11  A    between atoms: C_23  and  C_25
REMARK   12  A    between atoms: C_25  and  O_26
REMARK   13  A    between atoms: O_26  and  C_27
REMARK   14  A    between atoms: C_27  and  C_28
REMARK   15  A    between atoms: C_30  and  C_32
REMARK   16  A    between atoms: C_32  and  O_33
REMARK   17  A    between atoms: O_33  and  C_34
REMARK   18  A    between atoms: C_34  and  C_35
REMARK                            x       y       z     vdW  Elec       q    Type
REMARK                         _______ _______ _______ _____ _____    ______ ____
ROOT
ATOM      1  C   LIG A   1      -8.425  -2.599 125.146  0.00  0.00    +0.162 A 
ATOM      2  C   LIG A   1      -8.433  -2.650 126.551  0.00  0.00    +0.162 A 
ATOM      3  C   LIG A   1      -7.815  -1.616 127.277  0.00  0.00    +0.053 A 
ATOM      4  C   LIG A   1      -7.258  -0.489 126.653  0.00  0.00    -0.033 A 
ATOM      5  C   LIG A   1      -6.654   0.636 127.496  0.00  0.00    +0.056 C 
ATOM      6  C   LIG A   1      -6.159   1.867 126.670  0.00  0.00    +0.045 C 
ATOM      7  C   LIG A   1      -6.772   1.983 125.244  0.00  0.00    +0.038 C 
ATOM      8  C   LIG A   1      -6.607   0.662 124.497  0.00  0.00    +0.042 C 
ATOM      9  C   LIG A   1      -7.234  -0.466 125.258  0.00  0.00    -0.040 A 
ATOM     10  C   LIG A   1      -7.778  -1.527 124.526  0.00  0.00    +0.053 A 
ENDROOT
BRANCH   5  11
ATOM     11  C   LIG A   1      -7.477   1.107 128.700  0.00  0.00    -0.036 A 
ATOM     12  C   LIG A   1      -7.480   0.362 129.892  0.00  0.00    +0.008 A 
ATOM     13  C   LIG A   1      -8.267   0.754 130.981  0.00  0.00    +0.050 A 
ATOM     14  C   LIG A   1      -9.075   1.889 130.876  0.00  0.00    +0.173 A 
ATOM     15  C   LIG A   1      -9.055   2.675 129.716  0.00  0.00    +0.163 A 
ATOM     16  C   LIG A   1      -8.237   2.283 128.653  0.00  0.00    +0.053 A 
BRANCH  15  17
ATOM     17  O   LIG A   1      -9.817   3.812 129.693  0.00  0.00    -0.491 OA
ATOM     18  C   LIG A   1      -9.124   5.054 129.633  0.00  0.00    +0.277 C 
ENDBRANCH  15  17
BRANCH  14  19
ATOM     19  O   LIG A   1      -9.770   2.266 132.041  0.00  0.00    -0.422 OA
BRANCH  19  20
ATOM     20  C   LIG A   1      -8.989   2.805 133.058  0.00  0.00    +0.309 C 
ATOM     21  C   LIG A   1      -9.409   4.229 133.284  0.00  0.00    +0.136 C 
ATOM     22  O   LIG A   1      -8.088   2.231 133.654  0.00  0.00    -0.251 OA
ENDBRANCH  19  20
ENDBRANCH  14  19
ENDBRANCH   5  11
BRANCH   1  24
ATOM     23  C   LIG A   1      -9.621  -3.217 123.181  0.00  0.00    +0.277 C 
ATOM     24  O   LIG A   1      -9.009  -3.608 124.418  0.00  0.00    -0.491 OA
ENDBRANCH   1  24
BRANCH   2  25
ATOM     25  O   LIG A   1      -9.033  -3.715 127.186  0.00  0.00    -0.491 OA
ATOM     26  C   LIG A   1      -8.742  -3.813 128.586  0.00  0.00    +0.277 C 
ENDBRANCH   2  25
BRANCH   6  27
ATOM     27  C   LIG A   1      -4.618   1.803 126.625  0.00  0.00    +0.237 C 
BRANCH  27  28
ATOM     28  O   LIG A   1      -4.075   3.130 126.601  0.00  0.00    -0.465 OA
BRANCH  28  29
ATOM     29  C   LIG A   1      -2.960   3.346 127.347  0.00  0.00    +0.304 C 
ATOM     30  C   LIG A   1      -1.733   3.037 126.547  0.00  0.00    +0.136 C 
ATOM     31  O   LIG A   1      -2.939   3.756 128.499  0.00  0.00    -0.251 OA
ENDBRANCH  28  29
ENDBRANCH  27  28
ENDBRANCH   6  27
BRANCH   7  32
ATOM     32  C   LIG A   1      -8.233   2.481 125.278  0.00  0.00    +0.236 C 
BRANCH  32  33
ATOM     33  O   LIG A   1      -8.533   3.327 124.152  0.00  0.00    -0.465 OA
BRANCH  33  34
ATOM     34  C   LIG A   1      -9.002   2.721 123.037  0.00  0.00    +0.304 C 
ATOM     35  C   LIG A   1      -9.881   1.560 123.361  0.00  0.00    +0.136 C 
ATOM     36  O   LIG A   1      -8.738   3.067 121.873  0.00  0.00    -0.251 OA
ENDBRANCH  33  34
ENDBRANCH  32  33
ENDBRANCH   7  32
TORSDOF 12
ENDMDL
MODEL 6
REMARK VINA RESULT:      -6.9      4.018      7.241
REMARK  Name = NuBBE_2458
REMARK  18 active torsions:
REMARK  status: ('A' for Active; 'I' for Inactive)
REMARK    1  A    between atoms: C_1  and  O_2
REMARK    2  A    between atoms: O_2  and  C_3
REMARK    3  A    between atoms: C_4  and  O_5
REMARK    4  A    between atoms: O_5  and  C_6
REMARK    5  A    between atoms: C_9  and  C_11
REMARK    6  A    between atoms: C_14  and  O_15
REMARK    7  A    between atoms: O_15  and  C_16
REMARK    8  A    between atoms: C_16  and  C_17
REMARK    9  A    between atoms: C_19  and  O_20
REMARK   10  A    between atoms: O_20  and  C_21
REMARK   11  A    between atoms: C_23  and  C_25
REMARK   12  A    between atoms: C_25  and  O_26
REMARK   13  A    between atoms: O_26  and  C_27
REMARK   14  A    between atoms: C_27  and  C_28
REMARK   15  A    between atoms: C_30  and  C_32
REMARK   16  A    between atoms: C_32  and  O_33
REMARK   17  A    between atoms: O_33  and  C_34
REMARK   18  A    between atoms: C_34  and  C_35
REMARK                            x       y       z     vdW  Elec       q    Type
REMARK                         _______ _______ _______ _____ _____    ______ ____
ROOT
ATOM      1  C   LIG A   1      -4.843   4.972 128.422  0.00  0.00    +0.162 A 
ATOM      2  C   LIG A   1      -4.753   3.896 127.522  0.00  0.00    +0.162 A 
ATOM      3  C   LIG A   1      -5.416   2.693 127.825  0.00  0.00    +0.053 A 
ATOM      4  C   LIG A   1      -6.233   2.549 128.957  0.00  0.00    -0.033 A 
ATOM      5  C   LIG A   1      -6.980   1.238 129.206  0.00  0.00    +0.056 C 
ATOM      6  C   LIG A   1      -7.924   1.257 130.451  0.00  0.00    +0.045 C 
ATOM      7  C   LIG A   1      -8.329   2.680 130.937  0.00  0.00    +0.038 C 
ATOM      8  C   LIG A   1      -7.084   3.542 131.123  0.00  0.00    +0.042 C 
ATOM      9  C   LIG A   1      -6.290   3.617 129.854  0.00  0.00    -0.040 A 
ATOM     10  C   LIG A   1      -5.573   4.792 129.599  0.00  0.00    +0.053 A 
ENDROOT
BRANCH   5  11
ATOM     11  C   LIG A   1      -7.708   0.626 128.004  0.00  0.00    -0.036 A 
ATOM     12  C   LIG A   1      -7.619  -0.754 127.748  0.00  0.00    +0.008 A 
ATOM     13  C   LIG A   1      -8.237  -1.316 126.625  0.00  0.00    +0.050 A 
ATOM     14  C   LIG A   1      -8.934  -0.494 125.736  0.00  0.00    +0.173 A 
ATOM     15  C   LIG A   1      -9.076   0.877 125.993  0.00  0.00    +0.163 A 
ATOM     16  C   LIG A   1      -8.478   1.412 127.137  0.00  0.00    +0.053 A 
BRANCH  15  17
ATOM     17  O   LIG A   1      -9.824   1.623 125.122  0.00  0.00    -0.491 OA
ATOM     18  C   LIG A   1      -9.120   2.324 124.103  0.00  0.00    +0.277 C 
ENDBRANCH  15  17
BRANCH  14  19
ATOM     19  O   LIG A   1      -9.599  -1.144 124.680  0.00  0.00    -0.422 OA
BRANCH  19  20
ATOM     20  C   LIG A   1      -8.779  -1.680 123.692  0.00  0.00    +0.309 C 
ATOM     21  C   LIG A   1      -9.260  -3.064 123.365  0.00  0.00    +0.136 C 
ATOM     22  O   LIG A   1      -7.806  -1.133 123.190  0.00  0.00    -0.251 OA
ENDBRANCH  19  20
ENDBRANCH  14  19
ENDBRANCH   5  11
BRANCH   1  24
ATOM     23  C   LIG A   1      -3.058   6.446 128.978  0.00  0.00    +0.277 C 
ATOM     24  O   LIG A   1      -4.191   6.151 128.151  0.00  0.00    -0.491 OA
ENDBRANCH   1  24
BRANCH   2  25
ATOM     25  O   LIG A   1      -4.011   4.036 126.370  0.00  0.00    -0.491 OA
ATOM     26  C   LIG A   1      -2.696   3.470 126.437  0.00  0.00    +0.277 C 
ENDBRANCH   2  25
BRANCH   6  27
ATOM     27  C   LIG A   1      -7.231   0.449 131.568  0.00  0.00    +0.237 C 
BRANCH  27  28
ATOM     28  O   LIG A   1      -6.378  -0.548 130.992  0.00  0.00    -0.465 OA
BRANCH  28  29
ATOM     29  C   LIG A   1      -6.414  -1.783 131.556  0.00  0.00    +0.304 C 
ATOM     30  C   LIG A   1      -7.441  -2.634 130.877  0.00  0.00    +0.136 C 
ATOM     31  O   LIG A   1      -5.703  -2.172 132.472  0.00  0.00    -0.251 OA
ENDBRANCH  28  29
ENDBRANCH  27  28
ENDBRANCH   6  27
BRANCH   7  32
ATOM     32  C   LIG A   1      -9.384   3.329 130.016  0.00  0.00    +0.236 C 
BRANCH  32  33
ATOM     33  O   LIG A   1     -10.002   4.473 130.637  0.00  0.00    -0.465 OA
BRANCH  33  34
ATOM     34  C   LIG A   1      -9.908   5.652 129.980  0.00  0.00    +0.304 C 
ATOM     35  C   LIG A   1      -9.115   6.657 130.745  0.00  0.00    +0.136 C 
ATOM     36  O   LIG A   1     -10.421   5.893 128.874  0.00  0.00    -0.251 OA
ENDBRANCH  33  34
ENDBRANCH  32  33
ENDBRANCH   7  32
TORSDOF 12
ENDMDL
MODEL 7
REMARK VINA RESULT:      -6.9      4.868      9.325
REMARK  Name = NuBBE_2458
REMARK  18 active torsions:
REMARK  status: ('A' for Active; 'I' for Inactive)
REMARK    1  A    between atoms: C_1  and  O_2
REMARK    2  A    between atoms: O_2  and  C_3
REMARK    3  A    between atoms: C_4  and  O_5
REMARK    4  A    between atoms: O_5  and  C_6
REMARK    5  A    between atoms: C_9  and  C_11
REMARK    6  A    between atoms: C_14  and  O_15
REMARK    7  A    between atoms: O_15  and  C_16
REMARK    8  A    between atoms: C_16  and  C_17
REMARK    9  A    between atoms: C_19  and  O_20
REMARK   10  A    between atoms: O_20  and  C_21
REMARK   11  A    between atoms: C_23  and  C_25
REMARK   12  A    between atoms: C_25  and  O_26
REMARK   13  A    between atoms: O_26  and  C_27
REMARK   14  A    between atoms: C_27  and  C_28
REMARK   15  A    between atoms: C_30  and  C_32
REMARK   16  A    between atoms: C_32  and  O_33
REMARK   17  A    between atoms: O_33  and  C_34
REMARK   18  A    between atoms: C_34  and  C_35
REMARK                            x       y       z     vdW  Elec       q    Type
REMARK                         _______ _______ _______ _____ _____    ______ ____
ROOT
ATOM      1  C   LIG A   1      -6.719  -2.391 129.723  0.00  0.00    +0.162 A 
ATOM      2  C   LIG A   1      -5.649  -1.481 129.677  0.00  0.00    +0.162 A 
ATOM      3  C   LIG A   1      -5.396  -0.781 128.484  0.00  0.00    +0.053 A 
ATOM      4  C   LIG A   1      -6.223  -0.896 127.355  0.00  0.00    -0.033 A 
ATOM      5  C   LIG A   1      -5.937  -0.063 126.104  0.00  0.00    +0.056 C 
ATOM      6  C   LIG A   1      -6.995  -0.225 124.965  0.00  0.00    +0.045 C 
ATOM      7  C   LIG A   1      -8.371  -0.787 125.430  0.00  0.00    +0.038 C 
ATOM      8  C   LIG A   1      -8.166  -2.066 126.236  0.00  0.00    +0.042 C 
ATOM      9  C   LIG A   1      -7.265  -1.823 127.408  0.00  0.00    -0.040 A 
ATOM     10  C   LIG A   1      -7.477  -2.580 128.566  0.00  0.00    +0.053 A 
ENDROOT
BRANCH   5  11
ATOM     11  C   LIG A   1      -5.626   1.421 126.325  0.00  0.00    -0.036 A 
ATOM     12  C   LIG A   1      -4.317   1.905 126.152  0.00  0.00    +0.008 A 
ATOM     13  C   LIG A   1      -4.010   3.247 126.400  0.00  0.00    +0.050 A 
ATOM     14  C   LIG A   1      -5.011   4.114 126.846  0.00  0.00    +0.173 A 
ATOM     15  C   LIG A   1      -6.333   3.668 126.982  0.00  0.00    +0.163 A 
ATOM     16  C   LIG A   1      -6.624   2.331 126.698  0.00  0.00    +0.053 A 
BRANCH  15  17
ATOM     17  O   LIG A   1      -7.285   4.576 127.359  0.00  0.00    -0.491 OA
ATOM     18  C   LIG A   1      -7.963   4.331 128.587  0.00  0.00    +0.277 C 
ENDBRANCH  15  17
BRANCH  14  19
ATOM     19  O   LIG A   1      -4.644   5.465 126.991  0.00  0.00    -0.422 OA
BRANCH  19  20
ATOM     20  C   LIG A   1      -4.159   5.825 128.244  0.00  0.00    +0.309 C 
ATOM     21  C   LIG A   1      -2.675   6.031 128.146  0.00  0.00    +0.136 C 
ATOM     22  O   LIG A   1      -4.821   5.930 129.267  0.00  0.00    -0.251 OA
ENDBRANCH  19  20
ENDBRANCH  14  19
ENDBRANCH   5  11
BRANCH   1  24
ATOM     23  C   LIG A   1      -7.622  -2.370 131.927  0.00  0.00    +0.277 C 
ATOM     24  O   LIG A   1      -6.973  -3.096 130.875  0.00  0.00    -0.491 OA
ENDBRANCH   1  24
BRANCH   2  25
ATOM     25  O   LIG A   1      -4.864  -1.301 130.795  0.00  0.00    -0.491 OA
ATOM     26  C   LIG A   1      -3.584  -1.943 130.733  0.00  0.00    +0.277 C 
ENDBRANCH   2  25
BRANCH   6  27
ATOM     27  C   LIG A   1      -6.361  -1.106 123.868  0.00  0.00    +0.237 C 
BRANCH  27  28
ATOM     28  O   LIG A   1      -5.209  -1.781 124.390  0.00  0.00    -0.465 OA
BRANCH  28  29
ATOM     29  C   LIG A   1      -4.965  -3.029 123.913  0.00  0.00    +0.304 C 
ATOM     30  C   LIG A   1      -6.154  -3.912 124.135  0.00  0.00    +0.136 C 
ATOM     31  O   LIG A   1      -3.938  -3.395 123.357  0.00  0.00    -0.251 OA
ENDBRANCH  28  29
ENDBRANCH  27  28
ENDBRANCH   6  27
BRANCH   7  32
ATOM     32  C   LIG A   1      -9.208   0.273 126.178  0.00  0.00    +0.236 C 
BRANCH  32  33
ATOM     33  O   LIG A   1     -10.374   0.658 125.425  0.00  0.00    -0.465 OA
BRANCH  33  34
ATOM     34  C   LIG A   1     -10.163   1.204 124.205  0.00  0.00    +0.304 C 
ATOM     35  C   LIG A   1      -9.294   2.415 124.278  0.00  0.00    +0.136 C 
ATOM     36  O   LIG A   1     -10.632   0.770 123.139  0.00  0.00    -0.251 OA
ENDBRANCH  33  34
ENDBRANCH  32  33
ENDBRANCH   7  32
TORSDOF 12
ENDMDL
MODEL 8
REMARK VINA RESULT:      -6.8      2.754      5.875
REMARK  Name = NuBBE_2458
REMARK  18 active torsions:
REMARK  status: ('A' for Active; 'I' for Inactive)
REMARK    1  A    between atoms: C_1  and  O_2
REMARK    2  A    between atoms: O_2  and  C_3
REMARK    3  A    between atoms: C_4  and  O_5
REMARK    4  A    between atoms: O_5  and  C_6
REMARK    5  A    between atoms: C_9  and  C_11
REMARK    6  A    between atoms: C_14  and  O_15
REMARK    7  A    between atoms: O_15  and  C_16
REMARK    8  A    between atoms: C_16  and  C_17
REMARK    9  A    between atoms: C_19  and  O_20
REMARK   10  A    between atoms: O_20  and  C_21
REMARK   11  A    between atoms: C_23  and  C_25
REMARK   12  A    between atoms: C_25  and  O_26
REMARK   13  A    between atoms: O_26  and  C_27
REMARK   14  A    between atoms: C_27  and  C_28
REMARK   15  A    between atoms: C_30  and  C_32
REMARK   16  A    between atoms: C_32  and  O_33
REMARK   17  A    between atoms: O_33  and  C_34
REMARK   18  A    between atoms: C_34  and  C_35
REMARK                            x       y       z     vdW  Elec       q    Type
REMARK                         _______ _______ _______ _____ _____    ______ ____
ROOT
ATOM      1  C   LIG A   1      -7.948  -1.537 130.340  0.00  0.00    +0.162 A 
ATOM      2  C   LIG A   1      -7.472  -0.943 129.157  0.00  0.00    +0.162 A 
ATOM      3  C   LIG A   1      -7.658   0.437 128.961  0.00  0.00    +0.053 A 
ATOM      4  C   LIG A   1      -8.232   1.265 129.938  0.00  0.00    -0.033 A 
ATOM      5  C   LIG A   1      -8.353   2.770 129.696  0.00  0.00    +0.056 C 
ATOM      6  C   LIG A   1      -8.923   3.576 130.908  0.00  0.00    +0.045 C 
ATOM      7  C   LIG A   1      -8.820   2.846 132.280  0.00  0.00    +0.038 C 
ATOM      8  C   LIG A   1      -9.408   1.443 132.170  0.00  0.00    +0.042 C 
ATOM      9  C   LIG A   1      -8.723   0.657 131.094  0.00  0.00    -0.040 A 
ATOM     10  C   LIG A   1      -8.611  -0.728 131.265  0.00  0.00    +0.053 A 
ENDROOT
BRANCH   5  11
ATOM     11  C   LIG A   1      -7.114   3.476 129.132  0.00  0.00    -0.036 A 
ATOM     12  C   LIG A   1      -5.954   3.607 129.916  0.00  0.00    +0.008 A 
ATOM     13  C   LIG A   1      -4.835   4.293 129.431  0.00  0.00    +0.050 A 
ATOM     14  C   LIG A   1      -4.877   4.872 128.161  0.00  0.00    +0.173 A 
ATOM     15  C   LIG A   1      -6.004   4.716 127.342  0.00  0.00    +0.163 A 
ATOM     16  C   LIG A   1      -7.098   4.000 127.834  0.00  0.00    +0.053 A 
BRANCH  15  17
ATOM     17  O   LIG A   1      -5.965   5.250 126.082  0.00  0.00    -0.491 OA
ATOM     18  C   LIG A   1      -6.328   4.392 125.005  0.00  0.00    +0.277 C 
ENDBRANCH  15  17
BRANCH  14  19
ATOM     19  O   LIG A   1      -3.685   5.470 127.711  0.00  0.00    -0.422 OA
BRANCH  19  20
ATOM     20  C   LIG A   1      -3.305   6.630 128.378  0.00  0.00    +0.309 C 
ATOM     21  C   LIG A   1      -1.909   6.449 128.902  0.00  0.00    +0.136 C 
ATOM     22  O   LIG A   1      -3.997   7.625 128.541  0.00  0.00    -0.251 OA
ENDBRANCH  19  20
ENDBRANCH  14  19
ENDBRANCH   5  11
BRANCH   1  24
ATOM     23  C   LIG A   1      -6.735  -3.268 131.436  0.00  0.00    +0.277 C 
ATOM     24  O   LIG A   1      -7.790  -2.886 130.544  0.00  0.00    -0.491 OA
ENDBRANCH   1  24
BRANCH   2  25
ATOM     25  O   LIG A   1      -6.845  -1.725 128.212  0.00  0.00    -0.491 OA
ATOM     26  C   LIG A   1      -5.416  -1.618 128.205  0.00  0.00    +0.277 C 
ENDBRANCH   2  25
BRANCH   6  27
ATOM     27  C   LIG A   1     -10.382   3.949 130.569  0.00  0.00    +0.237 C 
BRANCH  27  28
ATOM     28  O   LIG A   1     -10.466   5.342 130.241  0.00  0.00    -0.465 OA
BRANCH  28  29
ATOM     29  C   LIG A   1     -10.034   6.218 131.185  0.00  0.00    +0.304 C 
ATOM     30  C   LIG A   1      -8.861   6.995 130.674  0.00  0.00    +0.136 C 
ATOM     31  O   LIG A   1     -10.532   6.381 132.291  0.00  0.00    -0.251 OA
ENDBRANCH  28  29
ENDBRANCH  27  28
ENDBRANCH   6  27
BRANCH   7  32
ATOM     32  C   LIG A   1      -7.380   2.857 132.836  0.00  0.00    +0.236 C 
BRANCH  32  33
ATOM     33  O   LIG A   1      -7.250   2.012 133.995  0.00  0.00    -0.465 OA
BRANCH  33  34
ATOM     34  C   LIG A   1      -6.318   1.032 133.937  0.00  0.00    +0.304 C 
ATOM     35  C   LIG A   1      -5.439   1.168 132.740  0.00  0.00    +0.136 C 
ATOM     36  O   LIG A   1      -6.196   0.115 134.767  0.00  0.00    -0.251 OA
ENDBRANCH  33  34
ENDBRANCH  32  33
ENDBRANCH   7  32
TORSDOF 12
ENDMDL
MODEL 9
REMARK VINA RESULT:      -6.7      4.372      8.056
REMARK  Name = NuBBE_2458
REMARK  18 active torsions:
REMARK  status: ('A' for Active; 'I' for Inactive)
REMARK    1  A    between atoms: C_1  and  O_2
REMARK    2  A    between atoms: O_2  and  C_3
REMARK    3  A    between atoms: C_4  and  O_5
REMARK    4  A    between atoms: O_5  and  C_6
REMARK    5  A    between atoms: C_9  and  C_11
REMARK    6  A    between atoms: C_14  and  O_15
REMARK    7  A    between atoms: O_15  and  C_16
REMARK    8  A    between atoms: C_16  and  C_17
REMARK    9  A    between atoms: C_19  and  O_20
REMARK   10  A    between atoms: O_20  and  C_21
REMARK   11  A    between atoms: C_23  and  C_25
REMARK   12  A    between atoms: C_25  and  O_26
REMARK   13  A    between atoms: O_26  and  C_27
REMARK   14  A    between atoms: C_27  and  C_28
REMARK   15  A    between atoms: C_30  and  C_32
REMARK   16  A    between atoms: C_32  and  O_33
REMARK   17  A    between atoms: O_33  and  C_34
REMARK   18  A    between atoms: C_34  and  C_35
REMARK                            x       y       z     vdW  Elec       q    Type
REMARK                         _______ _______ _______ _____ _____    ______ ____
ROOT
ATOM      1  C   LIG A   1      -6.327  -1.203 131.835  0.00  0.00    +0.162 A 
ATOM      2  C   LIG A   1      -7.133  -1.721 130.805  0.00  0.00    +0.162 A 
ATOM      3  C   LIG A   1      -7.605  -0.854 129.804  0.00  0.00    +0.053 A 
ATOM      4  C   LIG A   1      -7.238   0.499 129.746  0.00  0.00    -0.033 A 
ATOM      5  C   LIG A   1      -7.732   1.382 128.599  0.00  0.00    +0.056 C 
ATOM      6  C   LIG A   1      -7.167   2.839 128.615  0.00  0.00    +0.045 C 
ATOM      7  C   LIG A   1      -5.869   3.023 129.455  0.00  0.00    +0.038 C 
ATOM      8  C   LIG A   1      -6.067   2.448 130.854  0.00  0.00    +0.042 C 
ATOM      9  C   LIG A   1      -6.461   1.004 130.790  0.00  0.00    -0.040 A 
ATOM     10  C   LIG A   1      -6.049   0.166 131.832  0.00  0.00    +0.053 A 
ENDROOT
BRANCH   5  11
ATOM     11  C   LIG A   1      -7.629   0.793 127.188  0.00  0.00    -0.036 A 
ATOM     12  C   LIG A   1      -6.385   0.373 126.684  0.00  0.00    +0.008 A 
ATOM     13  C   LIG A   1      -6.269  -0.120 125.379  0.00  0.00    +0.050 A 
ATOM     14  C   LIG A   1      -7.399  -0.175 124.559  0.00  0.00    +0.173 A 
ATOM     15  C   LIG A   1      -8.659   0.195 125.052  0.00  0.00    +0.163 A 
ATOM     16  C   LIG A   1      -8.756   0.653 126.368  0.00  0.00    +0.053 A 
BRANCH  15  17
ATOM     17  O   LIG A   1      -9.741   0.058 124.225  0.00  0.00    -0.491 OA
ATOM     18  C   LIG A   1     -10.162   1.219 123.516  0.00  0.00    +0.277 C 
ENDBRANCH  15  17
BRANCH  14  19
ATOM     19  O   LIG A   1      -7.219  -0.761 123.292  0.00  0.00    -0.422 OA
BRANCH  19  20
ATOM     20  C   LIG A   1      -6.740  -2.066 123.296  0.00  0.00    +0.309 C 
ATOM     21  C   LIG A   1      -7.821  -2.975 123.806  0.00  0.00    +0.136 C 
ATOM     22  O   LIG A   1      -5.615  -2.421 122.968  0.00  0.00    -0.251 OA
ENDBRANCH  19  20
ENDBRANCH  14  19
ENDBRANCH   5  11
BRANCH   1  24
ATOM     23  C   LIG A   1      -6.463  -1.849 134.123  0.00  0.00    +0.277 C 
ATOM     24  O   LIG A   1      -5.868  -2.030 132.831  0.00  0.00    -0.491 OA
ENDBRANCH   1  24
BRANCH   2  25
ATOM     25  O   LIG A   1      -7.450  -3.061 130.804  0.00  0.00    -0.491 OA
ATOM     26  C   LIG A   1      -6.702  -3.849 129.870  0.00  0.00    +0.277 C 
ENDBRANCH   2  25
BRANCH   6  27
ATOM     27  C   LIG A   1      -8.298   3.768 129.102  0.00  0.00    +0.237 C 
BRANCH  27  28
ATOM     28  O   LIG A   1      -9.516   3.025 129.237  0.00  0.00    -0.465 OA
BRANCH  28  29
ATOM     29  C   LIG A   1     -10.307   3.336 130.296  0.00  0.00    +0.304 C 
ATOM     30  C   LIG A   1      -9.866   2.583 131.513  0.00  0.00    +0.136 C 
ATOM     31  O   LIG A   1     -11.237   4.132 130.286  0.00  0.00    -0.251 OA
ENDBRANCH  28  29
ENDBRANCH  27  28
ENDBRANCH   6  27
BRANCH   7  32
ATOM     32  C   LIG A   1      -4.627   2.454 128.737  0.00  0.00    +0.236 C 
BRANCH  32  33
ATOM     33  O   LIG A   1      -3.784   3.501 128.220  0.00  0.00    -0.465 OA
BRANCH  33  34
ATOM     34  C   LIG A   1      -3.389   3.389 126.930  0.00  0.00    +0.304 C 
ATOM     35  C   LIG A   1      -1.934   3.077 126.818  0.00  0.00    +0.136 C 
ATOM     36  O   LIG A   1      -4.130   3.533 125.943  0.00  0.00    -0.251 OA
ENDBRANCH  33  34
ENDBRANCH  32  33
ENDBRANCH   7  32
TORSDOF 12
ENDMDL
