MODEL 1
REMARK VINA RESULT:      -5.8      0.000      0.000
REMARK  Name = NuBBE_633
REMARK  4 active torsions:
REMARK  status: ('A' for Active; 'I' for Inactive)
REMARK    1  A    between atoms: O_1  and  C_2
REMARK    2  A    between atoms: C_5  and  C_6
REMARK    3  A    between atoms: C_7  and  C_8
REMARK    4  A    between atoms: C_8  and  O_9
REMARK                            x       y       z     vdW  Elec       q    Type
REMARK                         _______ _______ _______ _____ _____    ______ ____
ROOT
ATOM      1  C   LIG A   1      -6.075   5.266 118.876  0.00  0.00    +0.117 A 
ATOM      2  C   LIG A   1      -7.334   4.678 118.928  0.00  0.00    +0.046 A 
ATOM      3  C   LIG A   1      -7.701   3.946 120.060  0.00  0.00    +0.011 A 
ATOM      4  C   LIG A   1      -6.821   3.807 121.146  0.00  0.00    -0.025 A 
ATOM      5  C   LIG A   1      -5.551   4.390 121.061  0.00  0.00    +0.011 A 
ATOM      6  C   LIG A   1      -5.181   5.123 119.929  0.00  0.00    +0.046 A 
ENDROOT
BRANCH   1   7
ATOM      7  O   LIG A   1      -5.673   5.991 117.795  0.00  0.00    -0.507 OA
ATOM      8  H   LIG A   1      -5.962   6.911 117.914  0.00  0.00    +0.292 HD
ENDBRANCH   1   7
BRANCH   4   9
ATOM      9  C   LIG A   1      -7.249   3.001 122.299  0.00  0.00    +0.015 C 
ATOM     10  C   LIG A   1      -8.518   2.858 122.707  0.00  0.00    +0.092 C 
BRANCH  10  11
ATOM     11  C   LIG A   1      -8.807   2.011 123.872  0.00  0.00    +0.330 C 
ATOM     12  O   LIG A   1      -8.469   0.856 124.047  0.00  0.00    -0.246 OA
BRANCH  11  13
ATOM     13  O   LIG A   1      -9.527   2.688 124.780  0.00  0.00    -0.477 OA
ATOM     14  H   LIG A   1     -10.167   2.023 125.111  0.00  0.00    +0.295 HD
ENDBRANCH  11  13
ENDBRANCH  10  11
ENDBRANCH   4   9
TORSDOF 4
ENDMDL
MODEL 2
REMARK VINA RESULT:      -5.7      0.772      1.587
REMARK  Name = NuBBE_633
REMARK  4 active torsions:
REMARK  status: ('A' for Active; 'I' for Inactive)
REMARK    1  A    between atoms: O_1  and  C_2
REMARK    2  A    between atoms: C_5  and  C_6
REMARK    3  A    between atoms: C_7  and  C_8
REMARK    4  A    between atoms: C_8  and  O_9
REMARK                            x       y       z     vdW  Elec       q    Type
REMARK                         _______ _______ _______ _____ _____    ______ ____
ROOT
ATOM      1  C   LIG A   1      -5.888   5.023 119.478  0.00  0.00    +0.117 A 
ATOM      2  C   LIG A   1      -5.213   4.720 120.655  0.00  0.00    +0.046 A 
ATOM      3  C   LIG A   1      -5.868   3.991 121.652  0.00  0.00    +0.011 A 
ATOM      4  C   LIG A   1      -7.190   3.553 121.474  0.00  0.00    -0.025 A 
ATOM      5  C   LIG A   1      -7.857   3.889 120.288  0.00  0.00    +0.011 A 
ATOM      6  C   LIG A   1      -7.204   4.618 119.290  0.00  0.00    +0.046 A 
ENDROOT
BRANCH   1   7
ATOM      7  O   LIG A   1      -5.291   5.728 118.477  0.00  0.00    -0.507 OA
ATOM      8  H   LIG A   1      -5.958   5.934 117.802  0.00  0.00    +0.292 HD
ENDBRANCH   1   7
BRANCH   4   9
ATOM      9  C   LIG A   1      -7.840   2.815 122.567  0.00  0.00    +0.015 C 
ATOM     10  C   LIG A   1      -9.111   2.386 122.554  0.00  0.00    +0.092 C 
BRANCH  10  11
ATOM     11  C   LIG A   1      -9.632   1.649 123.712  0.00  0.00    +0.330 C 
ATOM     12  O   LIG A   1      -9.978   0.483 123.750  0.00  0.00    -0.246 OA
BRANCH  11  13
ATOM     13  O   LIG A   1      -9.688   2.444 124.791  0.00  0.00    -0.477 OA
ATOM     14  H   LIG A   1      -9.200   1.941 125.477  0.00  0.00    +0.295 HD
ENDBRANCH  11  13
ENDBRANCH  10  11
ENDBRANCH   4   9
TORSDOF 4
ENDMDL
MODEL 3
REMARK VINA RESULT:      -5.3      1.849      2.730
REMARK  Name = NuBBE_633
REMARK  4 active torsions:
REMARK  status: ('A' for Active; 'I' for Inactive)
REMARK    1  A    between atoms: O_1  and  C_2
REMARK    2  A    between atoms: C_5  and  C_6
REMARK    3  A    between atoms: C_7  and  C_8
REMARK    4  A    between atoms: C_8  and  O_9
REMARK                            x       y       z     vdW  Elec       q    Type
REMARK                         _______ _______ _______ _____ _____    ______ ____
ROOT
ATOM      1  C   LIG A   1      -4.958   4.861 121.750  0.00  0.00    +0.117 A 
ATOM      2  C   LIG A   1      -5.107   4.530 123.091  0.00  0.00    +0.046 A 
ATOM      3  C   LIG A   1      -6.062   3.576 123.459  0.00  0.00    +0.011 A 
ATOM      4  C   LIG A   1      -6.859   2.944 122.491  0.00  0.00    -0.025 A 
ATOM      5  C   LIG A   1      -6.704   3.310 121.148  0.00  0.00    +0.011 A 
ATOM      6  C   LIG A   1      -5.751   4.263 120.778  0.00  0.00    +0.046 A 
ENDROOT
BRANCH   1   7
ATOM      7  O   LIG A   1      -4.039   5.782 121.343  0.00  0.00    -0.507 OA
ATOM      8  H   LIG A   1      -3.486   6.024 122.103  0.00  0.00    +0.292 HD
ENDBRANCH   1   7
BRANCH   4   9
ATOM      9  C   LIG A   1      -7.867   1.971 122.937  0.00  0.00    +0.015 C 
ATOM     10  C   LIG A   1      -9.185   2.208 123.007  0.00  0.00    +0.092 C 
BRANCH  10  11
ATOM     11  C   LIG A   1     -10.085   1.140 123.460  0.00  0.00    +0.330 C 
ATOM     12  O   LIG A   1     -10.371   0.853 124.608  0.00  0.00    -0.246 OA
BRANCH  11  13
ATOM     13  O   LIG A   1     -10.591   0.473 122.412  0.00  0.00    -0.477 OA
ATOM     14  H   LIG A   1      -9.977  -0.284 122.300  0.00  0.00    +0.295 HD
ENDBRANCH  11  13
ENDBRANCH  10  11
ENDBRANCH   4   9
TORSDOF 4
ENDMDL
MODEL 4
REMARK VINA RESULT:      -5.3     10.148     11.080
REMARK  Name = NuBBE_633
REMARK  4 active torsions:
REMARK  status: ('A' for Active; 'I' for Inactive)
REMARK    1  A    between atoms: O_1  and  C_2
REMARK    2  A    between atoms: C_5  and  C_6
REMARK    3  A    between atoms: C_7  and  C_8
REMARK    4  A    between atoms: C_8  and  O_9
REMARK                            x       y       z     vdW  Elec       q    Type
REMARK                         _______ _______ _______ _____ _____    ______ ____
ROOT
ATOM      1  C   LIG A   1     -12.288   8.775 129.152  0.00  0.00    +0.117 A 
ATOM      2  C   LIG A   1     -12.802   8.150 130.281  0.00  0.00    +0.046 A 
ATOM      3  C   LIG A   1     -12.019   7.212 130.962  0.00  0.00    +0.011 A 
ATOM      4  C   LIG A   1     -10.720   6.906 130.525  0.00  0.00    -0.025 A 
ATOM      5  C   LIG A   1     -10.232   7.533 129.372  0.00  0.00    +0.011 A 
ATOM      6  C   LIG A   1     -11.014   8.470 128.690  0.00  0.00    +0.046 A 
ENDROOT
BRANCH   1   7
ATOM      7  O   LIG A   1     -13.012   9.697 128.458  0.00  0.00    -0.507 OA
ATOM      8  H   LIG A   1     -12.470  10.494 128.343  0.00  0.00    +0.292 HD
ENDBRANCH   1   7
BRANCH   4   9
ATOM      9  C   LIG A   1      -9.952   5.891 131.261  0.00  0.00    +0.015 C 
ATOM     10  C   LIG A   1      -9.867   5.812 132.598  0.00  0.00    +0.092 C 
BRANCH  10  11
ATOM     11  C   LIG A   1      -9.072   4.738 133.205  0.00  0.00    +0.330 C 
ATOM     12  O   LIG A   1      -7.891   4.503 133.028  0.00  0.00    -0.246 OA
BRANCH  11  13
ATOM     13  O   LIG A   1      -9.829   3.998 134.029  0.00  0.00    -0.477 OA
ATOM     14  H   LIG A   1      -9.593   3.075 133.795  0.00  0.00    +0.295 HD
ENDBRANCH  11  13
ENDBRANCH  10  11
ENDBRANCH   4   9
TORSDOF 4
ENDMDL
MODEL 5
REMARK VINA RESULT:      -5.2      5.274      7.256
REMARK  Name = NuBBE_633
REMARK  4 active torsions:
REMARK  status: ('A' for Active; 'I' for Inactive)
REMARK    1  A    between atoms: O_1  and  C_2
REMARK    2  A    between atoms: C_5  and  C_6
REMARK    3  A    between atoms: C_7  and  C_8
REMARK    4  A    between atoms: C_8  and  O_9
REMARK                            x       y       z     vdW  Elec       q    Type
REMARK                         _______ _______ _______ _____ _____    ______ ____
ROOT
ATOM      1  C   LIG A   1      -5.354  -3.702 123.765  0.00  0.00    +0.117 A 
ATOM      2  C   LIG A   1      -5.266  -2.569 122.965  0.00  0.00    +0.046 A 
ATOM      3  C   LIG A   1      -6.394  -1.761 122.796  0.00  0.00    +0.011 A 
ATOM      4  C   LIG A   1      -7.606  -2.073 123.431  0.00  0.00    -0.025 A 
ATOM      5  C   LIG A   1      -7.676  -3.232 124.216  0.00  0.00    +0.011 A 
ATOM      6  C   LIG A   1      -6.549  -4.041 124.386  0.00  0.00    +0.046 A 
ENDROOT
BRANCH   1   7
ATOM      7  O   LIG A   1      -4.280  -4.518 123.962  0.00  0.00    -0.507 OA
ATOM      8  H   LIG A   1      -4.602  -5.394 124.231  0.00  0.00    +0.292 HD
ENDBRANCH   1   7
BRANCH   4   9
ATOM      9  C   LIG A   1      -8.769  -1.205 123.194  0.00  0.00    +0.015 C 
ATOM     10  C   LIG A   1      -8.854   0.082 123.563  0.00  0.00    +0.092 C 
BRANCH  10  11
ATOM     11  C   LIG A   1     -10.073   0.839 123.254  0.00  0.00    +0.330 C 
ATOM     12  O   LIG A   1     -10.985   0.503 122.521  0.00  0.00    -0.246 OA
BRANCH  11  13
ATOM     13  O   LIG A   1     -10.078   2.012 123.904  0.00  0.00    -0.477 OA
ATOM     14  H   LIG A   1      -9.146   2.313 123.848  0.00  0.00    +0.295 HD
ENDBRANCH  11  13
ENDBRANCH  10  11
ENDBRANCH   4   9
TORSDOF 4
ENDMDL
MODEL 6
REMARK VINA RESULT:      -5.2      9.530     10.589
REMARK  Name = NuBBE_633
REMARK  4 active torsions:
REMARK  status: ('A' for Active; 'I' for Inactive)
REMARK    1  A    between atoms: O_1  and  C_2
REMARK    2  A    between atoms: C_5  and  C_6
REMARK    3  A    between atoms: C_7  and  C_8
REMARK    4  A    between atoms: C_8  and  O_9
REMARK                            x       y       z     vdW  Elec       q    Type
REMARK                         _______ _______ _______ _____ _____    ______ ____
ROOT
ATOM      1  C   LIG A   1     -12.939   9.490 129.187  0.00  0.00    +0.117 A 
ATOM      2  C   LIG A   1     -12.453   8.669 128.177  0.00  0.00    +0.046 A 
ATOM      3  C   LIG A   1     -12.061   7.363 128.485  0.00  0.00    +0.011 A 
ATOM      4  C   LIG A   1     -12.163   6.870 129.796  0.00  0.00    -0.025 A 
ATOM      5  C   LIG A   1     -12.636   7.724 130.801  0.00  0.00    +0.011 A 
ATOM      6  C   LIG A   1     -13.028   9.030 130.495  0.00  0.00    +0.046 A 
ENDROOT
BRANCH   1   7
ATOM      7  O   LIG A   1     -13.336  10.769 128.934  0.00  0.00    -0.507 OA
ATOM      8  H   LIG A   1     -12.896  11.361 129.566  0.00  0.00    +0.292 HD
ENDBRANCH   1   7
BRANCH   4   9
ATOM      9  C   LIG A   1     -11.709   5.499 130.070  0.00  0.00    +0.015 C 
ATOM     10  C   LIG A   1     -10.427   5.104 130.088  0.00  0.00    +0.092 C 
BRANCH  10  11
ATOM     11  C   LIG A   1     -10.111   3.702 130.387  0.00  0.00    +0.330 C 
ATOM     12  O   LIG A   1      -9.593   2.887 129.647  0.00  0.00    -0.246 OA
BRANCH  11  13
ATOM     13  O   LIG A   1     -10.476   3.394 131.641  0.00  0.00    -0.477 OA
ATOM     14  H   LIG A   1      -9.686   3.623 132.176  0.00  0.00    +0.295 HD
ENDBRANCH  11  13
ENDBRANCH  10  11
ENDBRANCH   4   9
TORSDOF 4
ENDMDL
MODEL 7
REMARK VINA RESULT:      -5.1     10.329     11.469
REMARK  Name = NuBBE_633
REMARK  4 active torsions:
REMARK  status: ('A' for Active; 'I' for Inactive)
REMARK    1  A    between atoms: O_1  and  C_2
REMARK    2  A    between atoms: C_5  and  C_6
REMARK    3  A    between atoms: C_7  and  C_8
REMARK    4  A    between atoms: C_8  and  O_9
REMARK                            x       y       z     vdW  Elec       q    Type
REMARK                         _______ _______ _______ _____ _____    ______ ____
ROOT
ATOM      1  C   LIG A   1      -8.460   6.092 132.152  0.00  0.00    +0.117 A 
ATOM      2  C   LIG A   1      -9.735   5.862 132.655  0.00  0.00    +0.046 A 
ATOM      3  C   LIG A   1     -10.847   6.317 131.939  0.00  0.00    +0.011 A 
ATOM      4  C   LIG A   1     -10.690   6.992 130.717  0.00  0.00    -0.025 A 
ATOM      5  C   LIG A   1      -9.394   7.231 130.241  0.00  0.00    +0.011 A 
ATOM      6  C   LIG A   1      -8.282   6.776 130.956  0.00  0.00    +0.046 A 
ENDROOT
BRANCH   1   7
ATOM      7  O   LIG A   1      -7.348   5.665 132.812  0.00  0.00    -0.507 OA
ATOM      8  H   LIG A   1      -7.036   4.845 132.395  0.00  0.00    +0.292 HD
ENDBRANCH   1   7
BRANCH   4   9
ATOM      9  C   LIG A   1     -11.892   7.475 130.022  0.00  0.00    +0.015 C 
ATOM     10  C   LIG A   1     -11.915   8.488 129.143  0.00  0.00    +0.092 C 
BRANCH  10  11
ATOM     11  C   LIG A   1     -13.187   8.861 128.511  0.00  0.00    +0.330 C 
ATOM     12  O   LIG A   1     -13.735   9.947 128.539  0.00  0.00    -0.246 OA
BRANCH  11  13
ATOM     13  O   LIG A   1     -13.713   7.815 127.856  0.00  0.00    -0.477 OA
ATOM     14  H   LIG A   1     -13.256   7.041 128.249  0.00  0.00    +0.295 HD
ENDBRANCH  11  13
ENDBRANCH  10  11
ENDBRANCH   4   9
TORSDOF 4
ENDMDL
MODEL 8
REMARK VINA RESULT:      -4.9      7.340      9.889
REMARK  Name = NuBBE_633
REMARK  4 active torsions:
REMARK  status: ('A' for Active; 'I' for Inactive)
REMARK    1  A    between atoms: O_1  and  C_2
REMARK    2  A    between atoms: C_5  and  C_6
REMARK    3  A    between atoms: C_7  and  C_8
REMARK    4  A    between atoms: C_8  and  O_9
REMARK                            x       y       z     vdW  Elec       q    Type
REMARK                         _______ _______ _______ _____ _____    ______ ____
ROOT
ATOM      1  C   LIG A   1      -6.415  -2.983 129.362  0.00  0.00    +0.117 A 
ATOM      2  C   LIG A   1      -5.975  -2.345 128.209  0.00  0.00    +0.046 A 
ATOM      3  C   LIG A   1      -6.832  -2.249 127.108  0.00  0.00    +0.011 A 
ATOM      4  C   LIG A   1      -8.131  -2.778 127.159  0.00  0.00    -0.025 A 
ATOM      5  C   LIG A   1      -8.546  -3.435 128.325  0.00  0.00    +0.011 A 
ATOM      6  C   LIG A   1      -7.690  -3.532 129.426  0.00  0.00    +0.046 A 
ENDROOT
BRANCH   1   7
ATOM      7  O   LIG A   1      -5.617  -3.098 130.460  0.00  0.00    -0.507 OA
ATOM      8  H   LIG A   1      -4.880  -2.472 130.374  0.00  0.00    +0.292 HD
ENDBRANCH   1   7
BRANCH   4   9
ATOM      9  C   LIG A   1      -8.980  -2.675 125.963  0.00  0.00    +0.015 C 
ATOM     10  C   LIG A   1      -8.528  -2.479 124.715  0.00  0.00    +0.092 C 
BRANCH  10  11
ATOM     11  C   LIG A   1      -9.487  -2.406 123.606  0.00  0.00    +0.330 C 
ATOM     12  O   LIG A   1      -9.718  -1.450 122.891  0.00  0.00    -0.246 OA
BRANCH  11  13
ATOM     13  O   LIG A   1     -10.121  -3.579 123.454  0.00  0.00    -0.477 OA
ATOM     14  H   LIG A   1      -9.392  -4.231 123.390  0.00  0.00    +0.295 HD
ENDBRANCH  11  13
ENDBRANCH  10  11
ENDBRANCH   4   9
TORSDOF 4
ENDMDL
MODEL 9
REMARK VINA RESULT:      -4.8      3.998      6.586
REMARK  Name = NuBBE_633
REMARK  4 active torsions:
REMARK  status: ('A' for Active; 'I' for Inactive)
REMARK    1  A    between atoms: O_1  and  C_2
REMARK    2  A    between atoms: C_5  and  C_6
REMARK    3  A    between atoms: C_7  and  C_8
REMARK    4  A    between atoms: C_8  and  O_9
REMARK                            x       y       z     vdW  Elec       q    Type
REMARK                         _______ _______ _______ _____ _____    ______ ____
ROOT
ATOM      1  C   LIG A   1      -5.609  -2.955 123.977  0.00  0.00    +0.117 A 
ATOM      2  C   LIG A   1      -6.158  -2.295 122.884  0.00  0.00    +0.046 A 
ATOM      3  C   LIG A   1      -6.650  -0.996 123.045  0.00  0.00    +0.011 A 
ATOM      4  C   LIG A   1      -6.585  -0.350 124.289  0.00  0.00    -0.025 A 
ATOM      5  C   LIG A   1      -6.047  -1.043 125.381  0.00  0.00    +0.011 A 
ATOM      6  C   LIG A   1      -5.554  -2.342 125.223  0.00  0.00    +0.046 A 
ENDROOT
BRANCH   1   7
ATOM      7  O   LIG A   1      -5.114  -4.220 123.869  0.00  0.00    -0.507 OA
ATOM      8  H   LIG A   1      -5.032  -4.441 122.927  0.00  0.00    +0.292 HD
ENDBRANCH   1   7
BRANCH   4   9
ATOM      9  C   LIG A   1      -7.145   1.005 124.408  0.00  0.00    +0.015 C 
ATOM     10  C   LIG A   1      -8.041   1.542 123.567  0.00  0.00    +0.092 C 
BRANCH  10  11
ATOM     11  C   LIG A   1      -8.526   2.906 123.810  0.00  0.00    +0.330 C 
ATOM     12  O   LIG A   1      -8.962   3.361 124.851  0.00  0.00    -0.246 OA
BRANCH  11  13
ATOM     13  O   LIG A   1      -8.432   3.646 122.695  0.00  0.00    -0.477 OA
ATOM     14  H   LIG A   1      -7.465   3.764 122.575  0.00  0.00    +0.295 HD
ENDBRANCH  11  13
ENDBRANCH  10  11
ENDBRANCH   4   9
TORSDOF 4
ENDMDL
