MODEL 1
REMARK VINA RESULT:      -7.2      0.000      0.000
REMARK  Name = NuBBE_69
REMARK  9 active torsions:
REMARK  status: ('A' for Active; 'I' for Inactive)
REMARK    1  A    between atoms: O_1  and  C_2
REMARK    2  A    between atoms: C_2  and  C_3
REMARK    3  A    between atoms: C_3  and  C_5
REMARK    4  A    between atoms: C_3  and  C_19
REMARK    5  A    between atoms: C_5  and  C_7
REMARK    6  A    between atoms: C_5  and  C_9
REMARK    7  A    between atoms: C_7  and  O_8
REMARK    8  A    between atoms: C_9  and  C_10
REMARK    9  A    between atoms: C_19  and  C_20
REMARK                            x       y       z     vdW  Elec       q    Type
REMARK                         _______ _______ _______ _____ _____    ______ ____
ROOT
ATOM      1  C   LIG A   1      -7.644   3.090 125.511  0.00  0.00    +0.024 C 
ENDROOT
BRANCH   1   2
ATOM      2  C   LIG A   1      -7.753   4.597 125.829  0.00  0.00    +0.160 C 
BRANCH   2   3
ATOM      3  O   LIG A   1      -9.076   5.061 125.581  0.00  0.00    -0.395 OA
ATOM      4  H   LIG A   1      -9.634   4.274 125.452  0.00  0.00    +0.209 HD
ENDBRANCH   2   3
ENDBRANCH   1   2
BRANCH   1   5
ATOM      5  C   LIG A   1      -7.994   2.185 126.751  0.00  0.00    +0.024 C 
BRANCH   5   6
ATOM      6  C   LIG A   1      -7.903   2.903 128.110  0.00  0.00    +0.160 C 
BRANCH   6   7
ATOM      7  O   LIG A   1      -9.128   2.866 128.825  0.00  0.00    -0.395 OA
ATOM      8  H   LIG A   1      -9.349   1.931 128.982  0.00  0.00    +0.209 HD
ENDBRANCH   6   7
ENDBRANCH   5   6
BRANCH   5   9
ATOM      9  C   LIG A   1      -7.079   0.923 126.754  0.00  0.00    +0.041 C 
BRANCH   9  10
ATOM     10  C   LIG A   1      -7.373  -0.164 125.741  0.00  0.00    -0.043 A 
ATOM     11  C   LIG A   1      -8.500  -0.993 125.856  0.00  0.00    +0.053 A 
ATOM     12  C   LIG A   1      -8.747  -1.903 124.844  0.00  0.00    +0.167 A 
ATOM     13  C   LIG A   1      -7.922  -2.021 123.751  0.00  0.00    +0.166 A 
ATOM     14  C   LIG A   1      -6.801  -1.235 123.602  0.00  0.00    +0.050 A 
ATOM     15  C   LIG A   1      -6.534  -0.295 124.604  0.00  0.00    +0.007 A 
ATOM     16  O   LIG A   1      -8.350  -2.963 122.870  0.00  0.00    -0.453 OA
ATOM     17  C   LIG A   1      -9.568  -3.398 123.510  0.00  0.00    +0.466 C 
ATOM     18  O   LIG A   1      -9.805  -2.757 124.783  0.00  0.00    -0.453 OA
ENDBRANCH   9  10
ENDBRANCH   5   9
ENDBRANCH   1   5
BRANCH   1  19
ATOM     19  C   LIG A   1      -8.457   2.799 124.217  0.00  0.00    +0.041 C 
BRANCH  19  20
ATOM     20  C   LIG A   1      -7.809   3.187 122.905  0.00  0.00    -0.043 A 
ATOM     21  C   LIG A   1      -8.604   3.440 121.772  0.00  0.00    +0.053 A 
ATOM     22  C   LIG A   1      -7.979   3.851 120.613  0.00  0.00    +0.167 A 
ATOM     23  C   LIG A   1      -6.619   4.037 120.552  0.00  0.00    +0.166 A 
ATOM     24  O   LIG A   1      -6.205   4.467 119.331  0.00  0.00    -0.453 OA
ATOM     25  C   LIG A   1      -7.454   4.480 118.614  0.00  0.00    +0.466 C 
ATOM     26  O   LIG A   1      -8.590   4.123 119.428  0.00  0.00    -0.453 OA
ATOM     27  C   LIG A   1      -5.806   3.799 121.639  0.00  0.00    +0.050 A 
ATOM     28  C   LIG A   1      -6.410   3.364 122.823  0.00  0.00    +0.007 A 
ENDBRANCH  19  20
ENDBRANCH   1  19
TORSDOF 9
ENDMDL
MODEL 2
REMARK VINA RESULT:      -7.2      1.813      6.277
REMARK  Name = NuBBE_69
REMARK  9 active torsions:
REMARK  status: ('A' for Active; 'I' for Inactive)
REMARK    1  A    between atoms: O_1  and  C_2
REMARK    2  A    between atoms: C_2  and  C_3
REMARK    3  A    between atoms: C_3  and  C_5
REMARK    4  A    between atoms: C_3  and  C_19
REMARK    5  A    between atoms: C_5  and  C_7
REMARK    6  A    between atoms: C_5  and  C_9
REMARK    7  A    between atoms: C_7  and  O_8
REMARK    8  A    between atoms: C_9  and  C_10
REMARK    9  A    between atoms: C_19  and  C_20
REMARK                            x       y       z     vdW  Elec       q    Type
REMARK                         _______ _______ _______ _____ _____    ______ ____
ROOT
ATOM      1  C   LIG A   1      -5.495   2.269 126.269  0.00  0.00    +0.024 C 
ENDROOT
BRANCH   1   2
ATOM      2  C   LIG A   1      -4.366   2.686 127.236  0.00  0.00    +0.160 C 
BRANCH   2   3
ATOM      3  O   LIG A   1      -3.097   2.550 126.604  0.00  0.00    -0.395 OA
ATOM      4  H   LIG A   1      -2.434   2.470 127.312  0.00  0.00    +0.209 HD
ENDBRANCH   2   3
ENDBRANCH   1   2
BRANCH   1   5
ATOM      5  C   LIG A   1      -5.686   3.293 125.088  0.00  0.00    +0.024 C 
BRANCH   5   6
ATOM      6  C   LIG A   1      -5.694   4.771 125.520  0.00  0.00    +0.160 C 
BRANCH   6   7
ATOM      7  O   LIG A   1      -6.930   5.409 125.245  0.00  0.00    -0.395 OA
ATOM      8  H   LIG A   1      -6.840   6.346 125.492  0.00  0.00    +0.209 HD
ENDBRANCH   6   7
ENDBRANCH   5   6
BRANCH   5   9
ATOM      9  C   LIG A   1      -6.996   2.960 124.312  0.00  0.00    +0.041 C 
BRANCH   9  10
ATOM     10  C   LIG A   1      -7.044   3.287 122.834  0.00  0.00    -0.043 A 
ATOM     11  C   LIG A   1      -8.256   3.327 122.127  0.00  0.00    +0.053 A 
ATOM     12  C   LIG A   1      -8.227   3.720 120.801  0.00  0.00    +0.167 A 
ATOM     13  C   LIG A   1      -7.055   4.057 120.166  0.00  0.00    +0.166 A 
ATOM     14  C   LIG A   1      -5.843   4.024 120.818  0.00  0.00    +0.050 A 
ATOM     15  C   LIG A   1      -5.845   3.643 122.165  0.00  0.00    +0.007 A 
ATOM     16  O   LIG A   1      -7.248   4.426 118.872  0.00  0.00    -0.453 OA
ATOM     17  C   LIG A   1      -8.684   4.327 118.773  0.00  0.00    +0.466 C 
ATOM     18  O   LIG A   1      -9.308   3.842 119.983  0.00  0.00    -0.453 OA
ENDBRANCH   9  10
ENDBRANCH   5   9
ENDBRANCH   1   5
BRANCH   1  19
ATOM     19  C   LIG A   1      -5.260   0.792 125.844  0.00  0.00    +0.041 C 
BRANCH  19  20
ATOM     20  C   LIG A   1      -6.493  -0.038 125.560  0.00  0.00    -0.043 A 
ATOM     21  C   LIG A   1      -6.606  -0.745 124.348  0.00  0.00    +0.053 A 
ATOM     22  C   LIG A   1      -7.718  -1.538 124.154  0.00  0.00    +0.167 A 
ATOM     23  C   LIG A   1      -8.691  -1.667 125.116  0.00  0.00    +0.166 A 
ATOM     24  O   LIG A   1      -9.687  -2.512 124.741  0.00  0.00    -0.453 OA
ATOM     25  C   LIG A   1      -9.257  -2.859 123.411  0.00  0.00    +0.466 C 
ATOM     26  O   LIG A   1      -7.992  -2.272 123.042  0.00  0.00    -0.453 OA
ATOM     27  C   LIG A   1      -8.617  -0.993 126.315  0.00  0.00    +0.050 A 
ATOM     28  C   LIG A   1      -7.509  -0.166 126.532  0.00  0.00    +0.007 A 
ENDBRANCH  19  20
ENDBRANCH   1  19
TORSDOF 9
ENDMDL
MODEL 3
REMARK VINA RESULT:      -7.0      1.598      2.169
REMARK  Name = NuBBE_69
REMARK  9 active torsions:
REMARK  status: ('A' for Active; 'I' for Inactive)
REMARK    1  A    between atoms: O_1  and  C_2
REMARK    2  A    between atoms: C_2  and  C_3
REMARK    3  A    between atoms: C_3  and  C_5
REMARK    4  A    between atoms: C_3  and  C_19
REMARK    5  A    between atoms: C_5  and  C_7
REMARK    6  A    between atoms: C_5  and  C_9
REMARK    7  A    between atoms: C_7  and  O_8
REMARK    8  A    between atoms: C_9  and  C_10
REMARK    9  A    between atoms: C_19  and  C_20
REMARK                            x       y       z     vdW  Elec       q    Type
REMARK                         _______ _______ _______ _____ _____    ______ ____
ROOT
ATOM      1  C   LIG A   1      -6.622   3.288 125.156  0.00  0.00    +0.024 C 
ENDROOT
BRANCH   1   2
ATOM      2  C   LIG A   1      -7.917   3.900 125.733  0.00  0.00    +0.160 C 
BRANCH   2   3
ATOM      3  O   LIG A   1      -8.201   5.144 125.102  0.00  0.00    -0.395 OA
ATOM      4  H   LIG A   1      -7.545   5.261 124.393  0.00  0.00    +0.209 HD
ENDBRANCH   2   3
ENDBRANCH   1   2
BRANCH   1   5
ATOM      5  C   LIG A   1      -5.934   2.282 126.154  0.00  0.00    +0.024 C 
BRANCH   5   6
ATOM      6  C   LIG A   1      -4.638   2.809 126.797  0.00  0.00    +0.160 C 
BRANCH   6   7
ATOM      7  O   LIG A   1      -3.878   3.608 125.904  0.00  0.00    -0.395 OA
ATOM      8  H   LIG A   1      -3.234   3.026 125.463  0.00  0.00    +0.209 HD
ENDBRANCH   6   7
ENDBRANCH   5   6
BRANCH   5   9
ATOM      9  C   LIG A   1      -5.656   0.932 125.427  0.00  0.00    +0.041 C 
BRANCH   9  10
ATOM     10  C   LIG A   1      -6.809  -0.040 125.278  0.00  0.00    -0.043 A 
ATOM     11  C   LIG A   1      -6.996  -0.787 124.105  0.00  0.00    +0.053 A 
ATOM     12  C   LIG A   1      -8.019  -1.717 124.078  0.00  0.00    +0.167 A 
ATOM     13  C   LIG A   1      -8.851  -1.917 125.154  0.00  0.00    +0.166 A 
ATOM     14  C   LIG A   1      -8.709  -1.201 126.321  0.00  0.00    +0.050 A 
ATOM     15  C   LIG A   1      -7.673  -0.262 126.381  0.00  0.00    +0.007 A 
ATOM     16  O   LIG A   1      -9.778  -2.884 124.926  0.00  0.00    -0.453 OA
ATOM     17  C   LIG A   1      -9.410  -3.306 123.596  0.00  0.00    +0.466 C 
ATOM     18  O   LIG A   1      -8.318  -2.542 123.037  0.00  0.00    -0.453 OA
ENDBRANCH   9  10
ENDBRANCH   5   9
ENDBRANCH   1   5
BRANCH   1  19
ATOM     19  C   LIG A   1      -6.931   2.723 123.740  0.00  0.00    +0.041 C 
BRANCH  19  20
ATOM     20  C   LIG A   1      -6.363   3.488 122.564  0.00  0.00    -0.043 A 
ATOM     21  C   LIG A   1      -7.075   3.553 121.352  0.00  0.00    +0.053 A 
ATOM     22  C   LIG A   1      -6.552   4.310 120.326  0.00  0.00    +0.167 A 
ATOM     23  C   LIG A   1      -5.378   5.010 120.469  0.00  0.00    +0.166 A 
ATOM     24  O   LIG A   1      -5.048   5.712 119.353  0.00  0.00    -0.453 OA
ATOM     25  C   LIG A   1      -6.121   5.332 118.471  0.00  0.00    +0.466 C 
ATOM     26  O   LIG A   1      -7.098   4.469 119.090  0.00  0.00    -0.453 OA
ATOM     27  C   LIG A   1      -4.651   4.972 121.639  0.00  0.00    +0.050 A 
ATOM     28  C   LIG A   1      -5.149   4.197 122.692  0.00  0.00    +0.007 A 
ENDBRANCH  19  20
ENDBRANCH   1  19
TORSDOF 9
ENDMDL
MODEL 4
REMARK VINA RESULT:      -7.0      2.648      3.303
REMARK  Name = NuBBE_69
REMARK  9 active torsions:
REMARK  status: ('A' for Active; 'I' for Inactive)
REMARK    1  A    between atoms: O_1  and  C_2
REMARK    2  A    between atoms: C_2  and  C_3
REMARK    3  A    between atoms: C_3  and  C_5
REMARK    4  A    between atoms: C_3  and  C_19
REMARK    5  A    between atoms: C_5  and  C_7
REMARK    6  A    between atoms: C_5  and  C_9
REMARK    7  A    between atoms: C_7  and  O_8
REMARK    8  A    between atoms: C_9  and  C_10
REMARK    9  A    between atoms: C_19  and  C_20
REMARK                            x       y       z     vdW  Elec       q    Type
REMARK                         _______ _______ _______ _____ _____    ______ ____
ROOT
ATOM      1  C   LIG A   1      -4.479   2.598 126.505  0.00  0.00    +0.024 C 
ENDROOT
BRANCH   1   2
ATOM      2  C   LIG A   1      -3.119   3.196 126.925  0.00  0.00    +0.160 C 
BRANCH   2   3
ATOM      3  O   LIG A   1      -2.051   2.400 126.421  0.00  0.00    -0.395 OA
ATOM      4  H   LIG A   1      -1.888   2.688 125.506  0.00  0.00    +0.209 HD
ENDBRANCH   2   3
ENDBRANCH   1   2
BRANCH   1   5
ATOM      5  C   LIG A   1      -5.128   1.720 127.639  0.00  0.00    +0.024 C 
BRANCH   5   6
ATOM      6  C   LIG A   1      -4.383   1.767 128.986  0.00  0.00    +0.160 C 
BRANCH   6   7
ATOM      7  O   LIG A   1      -3.857   0.503 129.358  0.00  0.00    -0.395 OA
ATOM      8  H   LIG A   1      -4.032   0.379 130.308  0.00  0.00    +0.209 HD
ENDBRANCH   6   7
ENDBRANCH   5   6
BRANCH   5   9
ATOM      9  C   LIG A   1      -5.254   0.244 127.153  0.00  0.00    +0.041 C 
BRANCH   9  10
ATOM     10  C   LIG A   1      -6.381  -0.090 126.197  0.00  0.00    -0.043 A 
ATOM     11  C   LIG A   1      -6.145  -0.766 124.990  0.00  0.00    +0.053 A 
ATOM     12  C   LIG A   1      -7.235  -1.114 124.212  0.00  0.00    +0.167 A 
ATOM     13  C   LIG A   1      -8.523  -0.807 124.584  0.00  0.00    +0.166 A 
ATOM     14  C   LIG A   1      -8.799  -0.138 125.754  0.00  0.00    +0.050 A 
ATOM     15  C   LIG A   1      -7.716   0.214 126.567  0.00  0.00    +0.007 A 
ATOM     16  O   LIG A   1      -9.446  -1.249 123.688  0.00  0.00    -0.453 OA
ATOM     17  C   LIG A   1      -8.596  -1.910 122.727  0.00  0.00    +0.466 C 
ATOM     18  O   LIG A   1      -7.188  -1.795 123.035  0.00  0.00    -0.453 OA
ENDBRANCH   9  10
ENDBRANCH   5   9
ENDBRANCH   1   5
BRANCH   1  19
ATOM     19  C   LIG A   1      -5.372   3.744 125.949  0.00  0.00    +0.041 C 
BRANCH  19  20
ATOM     20  C   LIG A   1      -5.705   3.692 124.474  0.00  0.00    -0.043 A 
ATOM     21  C   LIG A   1      -5.062   4.561 123.573  0.00  0.00    +0.053 A 
ATOM     22  C   LIG A   1      -5.349   4.440 122.229  0.00  0.00    +0.167 A 
ATOM     23  C   LIG A   1      -6.220   3.486 121.759  0.00  0.00    +0.166 A 
ATOM     24  O   LIG A   1      -6.346   3.516 120.406  0.00  0.00    -0.453 OA
ATOM     25  C   LIG A   1      -5.495   4.633 120.082  0.00  0.00    +0.466 C 
ATOM     26  O   LIG A   1      -4.832   5.204 121.229  0.00  0.00    -0.453 OA
ATOM     27  C   LIG A   1      -6.869   2.618 122.608  0.00  0.00    +0.050 A 
ATOM     28  C   LIG A   1      -6.612   2.730 123.979  0.00  0.00    +0.007 A 
ENDBRANCH  19  20
ENDBRANCH   1  19
TORSDOF 9
ENDMDL
MODEL 5
REMARK VINA RESULT:      -7.0      2.314      5.414
REMARK  Name = NuBBE_69
REMARK  9 active torsions:
REMARK  status: ('A' for Active; 'I' for Inactive)
REMARK    1  A    between atoms: O_1  and  C_2
REMARK    2  A    between atoms: C_2  and  C_3
REMARK    3  A    between atoms: C_3  and  C_5
REMARK    4  A    between atoms: C_3  and  C_19
REMARK    5  A    between atoms: C_5  and  C_7
REMARK    6  A    between atoms: C_5  and  C_9
REMARK    7  A    between atoms: C_7  and  O_8
REMARK    8  A    between atoms: C_9  and  C_10
REMARK    9  A    between atoms: C_19  and  C_20
REMARK                            x       y       z     vdW  Elec       q    Type
REMARK                         _______ _______ _______ _____ _____    ______ ____
ROOT
ATOM      1  C   LIG A   1      -6.877   2.523 123.278  0.00  0.00    +0.024 C 
ENDROOT
BRANCH   1   2
ATOM      2  C   LIG A   1      -7.006   3.477 122.071  0.00  0.00    +0.160 C 
BRANCH   2   3
ATOM      3  O   LIG A   1      -8.370   3.823 121.856  0.00  0.00    -0.395 OA
ATOM      4  H   LIG A   1      -8.606   3.511 120.965  0.00  0.00    +0.209 HD
ENDBRANCH   2   3
ENDBRANCH   1   2
BRANCH   1   5
ATOM      5  C   LIG A   1      -6.562   3.286 124.619  0.00  0.00    +0.024 C 
BRANCH   5   6
ATOM      6  C   LIG A   1      -6.045   4.724 124.428  0.00  0.00    +0.160 C 
BRANCH   6   7
ATOM      7  O   LIG A   1      -6.910   5.690 125.003  0.00  0.00    -0.395 OA
ATOM      8  H   LIG A   1      -7.213   6.277 124.288  0.00  0.00    +0.209 HD
ENDBRANCH   6   7
ENDBRANCH   5   6
BRANCH   5   9
ATOM      9  C   LIG A   1      -5.543   2.463 125.463  0.00  0.00    +0.041 C 
BRANCH   9  10
ATOM     10  C   LIG A   1      -6.083   1.337 126.321  0.00  0.00    -0.043 A 
ATOM     11  C   LIG A   1      -5.393   0.123 126.464  0.00  0.00    +0.053 A 
ATOM     12  C   LIG A   1      -5.906  -0.822 127.334  0.00  0.00    +0.167 A 
ATOM     13  C   LIG A   1      -7.064  -0.608 128.043  0.00  0.00    +0.166 A 
ATOM     14  C   LIG A   1      -7.777   0.564 127.927  0.00  0.00    +0.050 A 
ATOM     15  C   LIG A   1      -7.274   1.543 127.064  0.00  0.00    +0.007 A 
ATOM     16  O   LIG A   1      -7.385  -1.654 128.849  0.00  0.00    -0.453 OA
ATOM     17  C   LIG A   1      -6.273  -2.539 128.602  0.00  0.00    +0.466 C 
ATOM     18  O   LIG A   1      -5.350  -2.033 127.612  0.00  0.00    -0.453 OA
ENDBRANCH   9  10
ENDBRANCH   5   9
ENDBRANCH   1   5
BRANCH   1  19
ATOM     19  C   LIG A   1      -8.127   1.598 123.311  0.00  0.00    +0.041 C 
BRANCH  19  20
ATOM     20  C   LIG A   1      -7.886   0.141 123.643  0.00  0.00    -0.043 A 
ATOM     21  C   LIG A   1      -6.725  -0.507 123.183  0.00  0.00    +0.053 A 
ATOM     22  C   LIG A   1      -6.513  -1.816 123.560  0.00  0.00    +0.167 A 
ATOM     23  C   LIG A   1      -7.390  -2.483 124.382  0.00  0.00    +0.166 A 
ATOM     24  O   LIG A   1      -6.988  -3.753 124.654  0.00  0.00    -0.453 OA
ATOM     25  C   LIG A   1      -5.785  -3.828 123.866  0.00  0.00    +0.466 C 
ATOM     26  O   LIG A   1      -5.457  -2.593 123.195  0.00  0.00    -0.453 OA
ATOM     27  C   LIG A   1      -8.538  -1.885 124.853  0.00  0.00    +0.050 A 
ATOM     28  C   LIG A   1      -8.788  -0.561 124.472  0.00  0.00    +0.007 A 
ENDBRANCH  19  20
ENDBRANCH   1  19
TORSDOF 9
ENDMDL
MODEL 6
REMARK VINA RESULT:      -6.9      2.974      4.351
REMARK  Name = NuBBE_69
REMARK  9 active torsions:
REMARK  status: ('A' for Active; 'I' for Inactive)
REMARK    1  A    between atoms: O_1  and  C_2
REMARK    2  A    between atoms: C_2  and  C_3
REMARK    3  A    between atoms: C_3  and  C_5
REMARK    4  A    between atoms: C_3  and  C_19
REMARK    5  A    between atoms: C_5  and  C_7
REMARK    6  A    between atoms: C_5  and  C_9
REMARK    7  A    between atoms: C_7  and  O_8
REMARK    8  A    between atoms: C_9  and  C_10
REMARK    9  A    between atoms: C_19  and  C_20
REMARK                            x       y       z     vdW  Elec       q    Type
REMARK                         _______ _______ _______ _____ _____    ______ ____
ROOT
ATOM      1  C   LIG A   1      -7.078  -0.040 129.085  0.00  0.00    +0.024 C 
ENDROOT
BRANCH   1   2
ATOM      2  C   LIG A   1      -6.294   0.665 130.213  0.00  0.00    +0.160 C 
BRANCH   2   3
ATOM      3  O   LIG A   1      -6.946   1.874 130.588  0.00  0.00    -0.395 OA
ATOM      4  H   LIG A   1      -7.782   1.625 131.019  0.00  0.00    +0.209 HD
ENDBRANCH   2   3
ENDBRANCH   1   2
BRANCH   1   5
ATOM      5  C   LIG A   1      -7.706  -1.407 129.551  0.00  0.00    +0.024 C 
BRANCH   5   6
ATOM      6  C   LIG A   1      -7.582  -1.684 131.061  0.00  0.00    +0.160 C 
BRANCH   6   7
ATOM      7  O   LIG A   1      -7.297  -3.045 131.339  0.00  0.00    -0.395 OA
ATOM      8  H   LIG A   1      -7.864  -3.589 130.765  0.00  0.00    +0.209 HD
ENDBRANCH   6   7
ENDBRANCH   5   6
BRANCH   5   9
ATOM      9  C   LIG A   1      -7.071  -2.579 128.742  0.00  0.00    +0.041 C 
BRANCH   9  10
ATOM     10  C   LIG A   1      -7.223  -2.559 127.235  0.00  0.00    -0.043 A 
ATOM     11  C   LIG A   1      -8.477  -2.696 126.619  0.00  0.00    +0.053 A 
ATOM     12  C   LIG A   1      -8.545  -2.579 125.243  0.00  0.00    +0.167 A 
ATOM     13  C   LIG A   1      -7.428  -2.347 124.474  0.00  0.00    +0.166 A 
ATOM     14  C   LIG A   1      -6.179  -2.215 125.035  0.00  0.00    +0.050 A 
ATOM     15  C   LIG A   1      -6.082  -2.315 126.428  0.00  0.00    +0.007 A 
ATOM     16  O   LIG A   1      -7.715  -2.253 123.149  0.00  0.00    -0.453 OA
ATOM     17  C   LIG A   1      -9.149  -2.408 123.170  0.00  0.00    +0.466 C 
ATOM     18  O   LIG A   1      -9.678  -2.654 124.492  0.00  0.00    -0.453 OA
ENDBRANCH   9  10
ENDBRANCH   5   9
ENDBRANCH   1   5
BRANCH   1  19
ATOM     19  C   LIG A   1      -8.075   0.980 128.465  0.00  0.00    +0.041 C 
BRANCH  19  20
ATOM     20  C   LIG A   1      -8.144   1.031 126.954  0.00  0.00    -0.043 A 
ATOM     21  C   LIG A   1      -9.380   0.894 126.297  0.00  0.00    +0.053 A 
ATOM     22  C   LIG A   1      -9.408   1.008 124.923  0.00  0.00    +0.167 A 
ATOM     23  C   LIG A   1      -8.271   1.272 124.197  0.00  0.00    +0.166 A 
ATOM     24  O   LIG A   1      -8.515   1.371 122.863  0.00  0.00    -0.453 OA
ATOM     25  C   LIG A   1      -9.926   1.087 122.827  0.00  0.00    +0.466 C 
ATOM     26  O   LIG A   1     -10.508   0.889 124.132  0.00  0.00    -0.453 OA
ATOM     27  C   LIG A   1      -7.042   1.412 124.802  0.00  0.00    +0.050 A 
ATOM     28  C   LIG A   1      -6.980   1.283 126.194  0.00  0.00    +0.007 A 
ENDBRANCH  19  20
ENDBRANCH   1  19
TORSDOF 9
ENDMDL
MODEL 7
REMARK VINA RESULT:      -6.9      3.008      6.018
REMARK  Name = NuBBE_69
REMARK  9 active torsions:
REMARK  status: ('A' for Active; 'I' for Inactive)
REMARK    1  A    between atoms: O_1  and  C_2
REMARK    2  A    between atoms: C_2  and  C_3
REMARK    3  A    between atoms: C_3  and  C_5
REMARK    4  A    between atoms: C_3  and  C_19
REMARK    5  A    between atoms: C_5  and  C_7
REMARK    6  A    between atoms: C_5  and  C_9
REMARK    7  A    between atoms: C_7  and  O_8
REMARK    8  A    between atoms: C_9  and  C_10
REMARK    9  A    between atoms: C_19  and  C_20
REMARK                            x       y       z     vdW  Elec       q    Type
REMARK                         _______ _______ _______ _____ _____    ______ ____
ROOT
ATOM      1  C   LIG A   1      -7.635  -1.339 129.672  0.00  0.00    +0.024 C 
ENDROOT
BRANCH   1   2
ATOM      2  C   LIG A   1      -7.484  -1.598 131.186  0.00  0.00    +0.160 C 
BRANCH   2   3
ATOM      3  O   LIG A   1      -7.627  -2.986 131.468  0.00  0.00    -0.395 OA
ATOM      4  H   LIG A   1      -6.856  -3.436 131.080  0.00  0.00    +0.209 HD
ENDBRANCH   2   3
ENDBRANCH   1   2
BRANCH   1   5
ATOM      5  C   LIG A   1      -6.997   0.031 129.227  0.00  0.00    +0.024 C 
BRANCH   5   6
ATOM      6  C   LIG A   1      -6.289   0.801 130.357  0.00  0.00    +0.160 C 
BRANCH   6   7
ATOM      7  O   LIG A   1      -6.626   2.179 130.366  0.00  0.00    -0.395 OA
ATOM      8  H   LIG A   1      -7.337   2.312 129.714  0.00  0.00    +0.209 HD
ENDBRANCH   6   7
ENDBRANCH   5   6
BRANCH   5   9
ATOM      9  C   LIG A   1      -8.088   0.930 128.573  0.00  0.00    +0.041 C 
BRANCH   9  10
ATOM     10  C   LIG A   1      -8.157   0.970 127.060  0.00  0.00    -0.043 A 
ATOM     11  C   LIG A   1      -9.363   0.765 126.372  0.00  0.00    +0.053 A 
ATOM     12  C   LIG A   1      -9.362   0.905 124.996  0.00  0.00    +0.167 A 
ATOM     13  C   LIG A   1      -8.222   1.224 124.296  0.00  0.00    +0.166 A 
ATOM     14  C   LIG A   1      -7.017   1.425 124.929  0.00  0.00    +0.050 A 
ATOM     15  C   LIG A   1      -6.992   1.303 126.323  0.00  0.00    +0.007 A 
ATOM     16  O   LIG A   1      -8.441   1.326 122.958  0.00  0.00    -0.453 OA
ATOM     17  C   LIG A   1      -9.861   1.078 122.895  0.00  0.00    +0.466 C 
ATOM     18  O   LIG A   1     -10.445   0.772 124.182  0.00  0.00    -0.453 OA
ENDBRANCH   9  10
ENDBRANCH   5   9
ENDBRANCH   1   5
BRANCH   1  19
ATOM     19  C   LIG A   1      -7.133  -2.594 128.903  0.00  0.00    +0.041 C 
BRANCH  19  20
ATOM     20  C   LIG A   1      -7.253  -2.562 127.395  0.00  0.00    -0.043 A 
ATOM     21  C   LIG A   1      -8.503  -2.761 126.781  0.00  0.00    +0.053 A 
ATOM     22  C   LIG A   1      -8.581  -2.663 125.408  0.00  0.00    +0.167 A 
ATOM     23  C   LIG A   1      -7.482  -2.357 124.641  0.00  0.00    +0.166 A 
ATOM     24  O   LIG A   1      -7.774  -2.283 123.316  0.00  0.00    -0.453 OA
ATOM     25  C   LIG A   1      -9.172  -2.629 123.330  0.00  0.00    +0.466 C 
ATOM     26  O   LIG A   1      -9.701  -2.840 124.655  0.00  0.00    -0.453 OA
ATOM     27  C   LIG A   1      -6.241  -2.156 125.204  0.00  0.00    +0.050 A 
ATOM     28  C   LIG A   1      -6.128  -2.267 126.594  0.00  0.00    +0.007 A 
ENDBRANCH  19  20
ENDBRANCH   1  19
TORSDOF 9
ENDMDL
MODEL 8
REMARK VINA RESULT:      -6.8      9.207     13.153
REMARK  Name = NuBBE_69
REMARK  9 active torsions:
REMARK  status: ('A' for Active; 'I' for Inactive)
REMARK    1  A    between atoms: O_1  and  C_2
REMARK    2  A    between atoms: C_2  and  C_3
REMARK    3  A    between atoms: C_3  and  C_5
REMARK    4  A    between atoms: C_3  and  C_19
REMARK    5  A    between atoms: C_5  and  C_7
REMARK    6  A    between atoms: C_5  and  C_9
REMARK    7  A    between atoms: C_7  and  O_8
REMARK    8  A    between atoms: C_9  and  C_10
REMARK    9  A    between atoms: C_19  and  C_20
REMARK                            x       y       z     vdW  Elec       q    Type
REMARK                         _______ _______ _______ _____ _____    ______ ____
ROOT
ATOM      1  C   LIG A   1      -8.373   5.543 133.826  0.00  0.00    +0.024 C 
ENDROOT
BRANCH   1   2
ATOM      2  C   LIG A   1      -8.622   4.027 133.972  0.00  0.00    +0.160 C 
BRANCH   2   3
ATOM      3  O   LIG A   1     -10.016   3.761 134.081  0.00  0.00    -0.395 OA
ATOM      4  H   LIG A   1     -10.140   2.812 133.906  0.00  0.00    +0.209 HD
ENDBRANCH   2   3
ENDBRANCH   1   2
BRANCH   1   5
ATOM      5  C   LIG A   1      -7.285   6.076 134.833  0.00  0.00    +0.024 C 
BRANCH   5   6
ATOM      6  C   LIG A   1      -5.883   5.472 134.634  0.00  0.00    +0.160 C 
BRANCH   6   7
ATOM      7  O   LIG A   1      -4.849   6.379 134.981  0.00  0.00    -0.395 OA
ATOM      8  H   LIG A   1      -5.112   7.261 134.664  0.00  0.00    +0.209 HD
ENDBRANCH   6   7
ENDBRANCH   5   6
BRANCH   5   9
ATOM      9  C   LIG A   1      -7.764   5.837 136.297  0.00  0.00    +0.041 C 
BRANCH   9  10
ATOM     10  C   LIG A   1      -7.842   7.037 137.219  0.00  0.00    -0.043 A 
ATOM     11  C   LIG A   1      -9.046   7.726 137.431  0.00  0.00    +0.053 A 
ATOM     12  C   LIG A   1      -9.056   8.755 138.355  0.00  0.00    +0.167 A 
ATOM     13  C   LIG A   1      -7.928   9.121 139.051  0.00  0.00    +0.166 A 
ATOM     14  C   LIG A   1      -6.724   8.478 138.868  0.00  0.00    +0.050 A 
ATOM     15  C   LIG A   1      -6.689   7.423 137.950  0.00  0.00    +0.007 A 
ATOM     16  O   LIG A   1      -8.156  10.144 139.917  0.00  0.00    -0.453 OA
ATOM     17  C   LIG A   1      -9.569  10.356 139.721  0.00  0.00    +0.466 C 
ATOM     18  O   LIG A   1     -10.139   9.503 138.702  0.00  0.00    -0.453 OA
ENDBRANCH   9  10
ENDBRANCH   5   9
ENDBRANCH   1   5
BRANCH   1  19
ATOM     19  C   LIG A   1      -8.110   5.858 132.326  0.00  0.00    +0.041 C 
BRANCH  19  20
ATOM     20  C   LIG A   1      -9.264   6.446 131.542  0.00  0.00    -0.043 A 
ATOM     21  C   LIG A   1      -9.024   7.125 130.333  0.00  0.00    +0.053 A 
ATOM     22  C   LIG A   1     -10.108   7.592 129.619  0.00  0.00    +0.167 A 
ATOM     23  C   LIG A   1     -11.398   7.389 130.048  0.00  0.00    +0.166 A 
ATOM     24  O   LIG A   1     -12.319   7.903 129.191  0.00  0.00    -0.453 OA
ATOM     25  C   LIG A   1     -11.461   8.500 128.200  0.00  0.00    +0.466 C 
ATOM     26  O   LIG A   1     -10.056   8.279 128.446  0.00  0.00    -0.453 OA
ATOM     27  C   LIG A   1     -11.674   6.730 131.225  0.00  0.00    +0.050 A 
ATOM     28  C   LIG A   1     -10.593   6.261 131.981  0.00  0.00    +0.007 A 
ENDBRANCH  19  20
ENDBRANCH   1  19
TORSDOF 9
ENDMDL
MODEL 9
REMARK VINA RESULT:      -6.8      2.817      6.348
REMARK  Name = NuBBE_69
REMARK  9 active torsions:
REMARK  status: ('A' for Active; 'I' for Inactive)
REMARK    1  A    between atoms: O_1  and  C_2
REMARK    2  A    between atoms: C_2  and  C_3
REMARK    3  A    between atoms: C_3  and  C_5
REMARK    4  A    between atoms: C_3  and  C_19
REMARK    5  A    between atoms: C_5  and  C_7
REMARK    6  A    between atoms: C_5  and  C_9
REMARK    7  A    between atoms: C_7  and  O_8
REMARK    8  A    between atoms: C_9  and  C_10
REMARK    9  A    between atoms: C_19  and  C_20
REMARK                            x       y       z     vdW  Elec       q    Type
REMARK                         _______ _______ _______ _____ _____    ______ ____
ROOT
ATOM      1  C   LIG A   1      -6.781  -2.040 124.864  0.00  0.00    +0.024 C 
ENDROOT
BRANCH   1   2
ATOM      2  C   LIG A   1      -6.095  -2.581 123.591  0.00  0.00    +0.160 C 
BRANCH   2   3
ATOM      3  O   LIG A   1      -6.234  -1.653 122.520  0.00  0.00    -0.395 OA
ATOM      4  H   LIG A   1      -5.347  -1.301 122.332  0.00  0.00    +0.209 HD
ENDBRANCH   2   3
ENDBRANCH   1   2
BRANCH   1   5
ATOM      5  C   LIG A   1      -8.116  -2.805 125.201  0.00  0.00    +0.024 C 
BRANCH   5   6
ATOM      6  C   LIG A   1      -8.692  -3.626 124.034  0.00  0.00    +0.160 C 
BRANCH   6   7
ATOM      7  O   LIG A   1     -10.067  -3.357 123.810  0.00  0.00    -0.395 OA
ATOM      8  H   LIG A   1     -10.220  -3.382 122.849  0.00  0.00    +0.209 HD
ENDBRANCH   6   7
ENDBRANCH   5   6
BRANCH   5   9
ATOM      9  C   LIG A   1      -9.183  -1.793 125.718  0.00  0.00    +0.041 C 
BRANCH   9  10
ATOM     10  C   LIG A   1      -9.045  -0.344 125.296  0.00  0.00    -0.043 A 
ATOM     11  C   LIG A   1      -8.801   0.674 126.230  0.00  0.00    +0.053 A 
ATOM     12  C   LIG A   1      -8.599   1.959 125.759  0.00  0.00    +0.167 A 
ATOM     13  C   LIG A   1      -8.641   2.258 124.418  0.00  0.00    +0.166 A 
ATOM     14  C   LIG A   1      -8.886   1.293 123.468  0.00  0.00    +0.050 A 
ATOM     15  C   LIG A   1      -9.080  -0.019 123.916  0.00  0.00    +0.007 A 
ATOM     16  O   LIG A   1      -8.403   3.573 124.167  0.00  0.00    -0.453 OA
ATOM     17  C   LIG A   1      -8.161   4.064 125.502  0.00  0.00    +0.466 C 
ATOM     18  O   LIG A   1      -8.322   3.052 126.521  0.00  0.00    -0.453 OA
ENDBRANCH   9  10
ENDBRANCH   5   9
ENDBRANCH   1   5
BRANCH   1  19
ATOM     19  C   LIG A   1      -5.729  -1.990 126.008  0.00  0.00    +0.041 C 
BRANCH  19  20
ATOM     20  C   LIG A   1      -5.478  -0.639 126.643  0.00  0.00    -0.043 A 
ATOM     21  C   LIG A   1      -5.189   0.478 125.838  0.00  0.00    +0.053 A 
ATOM     22  C   LIG A   1      -5.028   1.703 126.451  0.00  0.00    +0.167 A 
ATOM     23  C   LIG A   1      -5.165   1.854 127.811  0.00  0.00    +0.166 A 
ATOM     24  O   LIG A   1      -4.993   3.141 128.213  0.00  0.00    -0.453 OA
ATOM     25  C   LIG A   1      -4.680   3.774 126.957  0.00  0.00    +0.466 C 
ATOM     26  O   LIG A   1      -4.732   2.876 125.829  0.00  0.00    -0.453 OA
ATOM     27  C   LIG A   1      -5.447   0.785 128.633  0.00  0.00    +0.050 A 
ATOM     28  C   LIG A   1      -5.597  -0.473 128.040  0.00  0.00    +0.007 A 
ENDBRANCH  19  20
ENDBRANCH   1  19
TORSDOF 9
ENDMDL
