MODEL 1
REMARK VINA RESULT:      -7.6      0.000      0.000
REMARK  Name = NuBBE_2199
REMARK  6 active torsions:
REMARK  status: ('A' for Active; 'I' for Inactive)
REMARK    1  A    between atoms: C_1  and  C_2
REMARK    2  A    between atoms: C_5  and  O_7
REMARK    3  A    between atoms: C_10  and  C_11
REMARK    4  A    between atoms: C_10  and  C_13
REMARK    5  A    between atoms: C_19  and  C_20
REMARK    6  A    between atoms: C_19  and  C_21
REMARK                            x       y       z     vdW  Elec       q    Type
REMARK                         _______ _______ _______ _____ _____    ______ ____
ROOT
ATOM      1  C   LIG A   1      -7.920  -1.863 130.041  0.00  0.00    +0.016 C 
ATOM      2  C   LIG A   1      -6.917  -2.542 129.077  0.00  0.00    -0.000 C 
ATOM      3  C   LIG A   1      -5.491  -1.877 129.123  0.00  0.00    +0.008 C 
ATOM      4  C   LIG A   1      -5.521  -0.473 128.504  0.00  0.00    +0.040 C 
ATOM      5  C   LIG A   1      -5.945  -0.538 127.037  0.00  0.00    +0.141 C 
ATOM      6  C   LIG A   1      -7.055  -1.516 126.740  0.00  0.00    -0.034 C 
ATOM      7  C   LIG A   1      -7.571  -1.449 125.315  0.00  0.00    +0.044 C 
ATOM      8  C   LIG A   1      -8.241  -2.754 124.835  0.00  0.00    -0.004 C 
ATOM      9  C   LIG A   1      -8.962  -2.482 123.500  0.00  0.00    +0.016 C 
ATOM     10  C   LIG A   1      -9.285  -3.147 125.885  0.00  0.00    +0.090 C 
ATOM     11  C   LIG A   1      -7.517  -2.397 127.658  0.00  0.00    +0.003 C 
ATOM     12  C   LIG A   1      -8.703  -3.252 127.280  0.00  0.00    +0.161 C 
ATOM     13  O   LIG A   1      -9.256  -3.973 128.110  0.00  0.00    -0.292 OA
ATOM     14  C   LIG A   1      -4.758  -1.947 130.512  0.00  0.00    -0.031 C 
ATOM     15  C   LIG A   1      -3.228  -1.995 130.255  0.00  0.00    +0.011 C 
ATOM     16  C   LIG A   1      -5.007  -0.723 131.419  0.00  0.00    +0.011 C 
ATOM     17  C   LIG A   1      -5.156  -3.231 131.283  0.00  0.00    +0.007 C 
ATOM     18  C   LIG A   1      -5.528  -4.368 130.345  0.00  0.00    +0.001 C 
ATOM     19  C   LIG A   1      -6.743  -4.045 129.468  0.00  0.00    +0.012 C 
ENDROOT
BRANCH   5  20
ATOM     20  O   LIG A   1      -6.352   0.764 126.631  0.00  0.00    -0.388 OA
ATOM     21  H   LIG A   1      -7.092   0.655 126.009  0.00  0.00    +0.210 HD
ENDBRANCH   5  20
BRANCH   8  22
ATOM     22  C   LIG A   1      -7.171  -3.812 124.549  0.00  0.00    -0.027 C 
ATOM     23  C   LIG A   1      -5.926  -3.625 124.092  0.00  0.00    +0.004 C 
ENDBRANCH   8  22
TORSDOF 2
ENDMDL
MODEL 2
REMARK VINA RESULT:      -7.5      3.434      6.243
REMARK  Name = NuBBE_2199
REMARK  6 active torsions:
REMARK  status: ('A' for Active; 'I' for Inactive)
REMARK    1  A    between atoms: C_1  and  C_2
REMARK    2  A    between atoms: C_5  and  O_7
REMARK    3  A    between atoms: C_10  and  C_11
REMARK    4  A    between atoms: C_10  and  C_13
REMARK    5  A    between atoms: C_19  and  C_20
REMARK    6  A    between atoms: C_19  and  C_21
REMARK                            x       y       z     vdW  Elec       q    Type
REMARK                         _______ _______ _______ _____ _____    ______ ____
ROOT
ATOM      1  C   LIG A   1      -9.312  -0.430 125.982  0.00  0.00    +0.016 C 
ATOM      2  C   LIG A   1      -8.314  -0.231 124.815  0.00  0.00    -0.000 C 
ATOM      3  C   LIG A   1      -7.159  -1.300 124.820  0.00  0.00    +0.008 C 
ATOM      4  C   LIG A   1      -6.207  -1.074 126.002  0.00  0.00    +0.040 C 
ATOM      5  C   LIG A   1      -5.552   0.304 125.913  0.00  0.00    +0.141 C 
ATOM      6  C   LIG A   1      -6.467   1.415 125.460  0.00  0.00    -0.034 C 
ATOM      7  C   LIG A   1      -5.844   2.795 125.533  0.00  0.00    +0.044 C 
ATOM      8  C   LIG A   1      -6.490   3.820 124.576  0.00  0.00    -0.004 C 
ATOM      9  C   LIG A   1      -5.975   5.229 124.933  0.00  0.00    +0.016 C 
ATOM     10  C   LIG A   1      -8.003   3.777 124.812  0.00  0.00    +0.090 C 
ATOM     11  C   LIG A   1      -7.717   1.186 124.995  0.00  0.00    +0.003 C 
ATOM     12  C   LIG A   1      -8.579   2.383 124.672  0.00  0.00    +0.161 C 
ATOM     13  O   LIG A   1      -9.767   2.249 124.375  0.00  0.00    -0.292 OA
ATOM     14  C   LIG A   1      -7.620  -2.793 124.647  0.00  0.00    -0.031 C 
ATOM     15  C   LIG A   1      -6.489  -3.573 123.925  0.00  0.00    +0.011 C 
ATOM     16  C   LIG A   1      -7.875  -3.531 125.978  0.00  0.00    +0.011 C 
ATOM     17  C   LIG A   1      -8.896  -2.879 123.773  0.00  0.00    +0.007 C 
ATOM     18  C   LIG A   1      -8.985  -1.736 122.775  0.00  0.00    +0.001 C 
ATOM     19  C   LIG A   1      -9.064  -0.361 123.450  0.00  0.00    +0.012 C 
ENDROOT
BRANCH   5  20
ATOM     20  O   LIG A   1      -5.023   0.631 127.194  0.00  0.00    -0.388 OA
ATOM     21  H   LIG A   1      -5.461   0.054 127.843  0.00  0.00    +0.210 HD
ENDBRANCH   5  20
BRANCH   8  22
ATOM     22  C   LIG A   1      -6.044   3.539 123.138  0.00  0.00    -0.027 C 
ATOM     23  C   LIG A   1      -5.319   4.324 122.330  0.00  0.00    +0.004 C 
ENDBRANCH   8  22
TORSDOF 2
ENDMDL
MODEL 3
REMARK VINA RESULT:      -7.3      3.517      5.396
REMARK  Name = NuBBE_2199
REMARK  6 active torsions:
REMARK  status: ('A' for Active; 'I' for Inactive)
REMARK    1  A    between atoms: C_1  and  C_2
REMARK    2  A    between atoms: C_5  and  O_7
REMARK    3  A    between atoms: C_10  and  C_11
REMARK    4  A    between atoms: C_10  and  C_13
REMARK    5  A    between atoms: C_19  and  C_20
REMARK    6  A    between atoms: C_19  and  C_21
REMARK                            x       y       z     vdW  Elec       q    Type
REMARK                         _______ _______ _______ _____ _____    ______ ____
ROOT
ATOM      1  C   LIG A   1      -8.009   2.153 126.865  0.00  0.00    +0.016 C 
ATOM      2  C   LIG A   1      -7.093   1.528 125.783  0.00  0.00    -0.000 C 
ATOM      3  C   LIG A   1      -6.789   2.522 124.602  0.00  0.00    +0.008 C 
ATOM      4  C   LIG A   1      -8.044   2.768 123.755  0.00  0.00    +0.040 C 
ATOM      5  C   LIG A   1      -8.540   1.462 123.134  0.00  0.00    +0.141 C 
ATOM      6  C   LIG A   1      -8.468   0.259 124.041  0.00  0.00    -0.034 C 
ATOM      7  C   LIG A   1      -9.112  -0.987 123.466  0.00  0.00    +0.044 C 
ATOM      8  C   LIG A   1      -8.565  -2.301 124.063  0.00  0.00    -0.004 C 
ATOM      9  C   LIG A   1      -9.473  -3.466 123.618  0.00  0.00    +0.016 C 
ATOM     10  C   LIG A   1      -8.639  -2.178 125.588  0.00  0.00    +0.090 C 
ATOM     11  C   LIG A   1      -7.847   0.289 125.243  0.00  0.00    +0.003 C 
ATOM     12  C   LIG A   1      -7.932  -0.944 126.111  0.00  0.00    +0.161 C 
ATOM     13  O   LIG A   1      -7.508  -0.938 127.267  0.00  0.00    -0.292 OA
ATOM     14  C   LIG A   1      -6.024   3.836 125.005  0.00  0.00    -0.031 C 
ATOM     15  C   LIG A   1      -5.158   4.286 123.799  0.00  0.00    +0.011 C 
ATOM     16  C   LIG A   1      -6.948   5.024 125.344  0.00  0.00    +0.011 C 
ATOM     17  C   LIG A   1      -5.079   3.578 126.206  0.00  0.00    +0.007 C 
ATOM     18  C   LIG A   1      -4.586   2.140 126.248  0.00  0.00    +0.001 C 
ATOM     19  C   LIG A   1      -5.723   1.126 126.420  0.00  0.00    +0.012 C 
ENDROOT
BRANCH   5  20
ATOM     20  O   LIG A   1      -9.889   1.649 122.717  0.00  0.00    -0.388 OA
ATOM     21  H   LIG A   1      -9.905   2.427 122.132  0.00  0.00    +0.210 HD
ENDBRANCH   5  20
BRANCH   8  22
ATOM     22  C   LIG A   1      -7.172  -2.588 123.497  0.00  0.00    -0.027 C 
ATOM     23  C   LIG A   1      -6.168  -3.262 124.073  0.00  0.00    +0.004 C 
ENDBRANCH   8  22
TORSDOF 2
ENDMDL
MODEL 4
REMARK VINA RESULT:      -7.2      1.438      5.758
REMARK  Name = NuBBE_2199
REMARK  6 active torsions:
REMARK  status: ('A' for Active; 'I' for Inactive)
REMARK    1  A    between atoms: C_1  and  C_2
REMARK    2  A    between atoms: C_5  and  O_7
REMARK    3  A    between atoms: C_10  and  C_11
REMARK    4  A    between atoms: C_10  and  C_13
REMARK    5  A    between atoms: C_19  and  C_20
REMARK    6  A    between atoms: C_19  and  C_21
REMARK                            x       y       z     vdW  Elec       q    Type
REMARK                         _______ _______ _______ _____ _____    ______ ____
ROOT
ATOM      1  C   LIG A   1      -8.431  -0.279 126.606  0.00  0.00    +0.016 C 
ATOM      2  C   LIG A   1      -7.318  -1.299 126.952  0.00  0.00    -0.000 C 
ATOM      3  C   LIG A   1      -7.400  -2.603 126.075  0.00  0.00    +0.008 C 
ATOM      4  C   LIG A   1      -8.630  -3.440 126.450  0.00  0.00    +0.040 C 
ATOM      5  C   LIG A   1      -8.558  -3.878 127.913  0.00  0.00    +0.141 C 
ATOM      6  C   LIG A   1      -8.041  -2.830 128.867  0.00  0.00    -0.034 C 
ATOM      7  C   LIG A   1      -8.129  -3.227 130.327  0.00  0.00    +0.044 C 
ATOM      8  C   LIG A   1      -7.124  -2.485 131.235  0.00  0.00    -0.004 C 
ATOM      9  C   LIG A   1      -7.490  -2.755 132.708  0.00  0.00    +0.016 C 
ATOM     10  C   LIG A   1      -7.277  -0.986 130.959  0.00  0.00    +0.090 C 
ATOM     11  C   LIG A   1      -7.511  -1.658 128.444  0.00  0.00    +0.003 C 
ATOM     12  C   LIG A   1      -7.125  -0.641 129.492  0.00  0.00    +0.161 C 
ATOM     13  O   LIG A   1      -6.766   0.493 129.174  0.00  0.00    -0.292 OA
ATOM     14  C   LIG A   1      -7.223  -2.389 124.527  0.00  0.00    -0.031 C 
ATOM     15  C   LIG A   1      -6.575  -3.665 123.928  0.00  0.00    +0.011 C 
ATOM     16  C   LIG A   1      -8.548  -2.176 123.765  0.00  0.00    +0.011 C 
ATOM     17  C   LIG A   1      -6.282  -1.191 124.240  0.00  0.00    +0.007 C 
ATOM     18  C   LIG A   1      -5.265  -0.983 125.351  0.00  0.00    +0.001 C 
ATOM     19  C   LIG A   1      -5.916  -0.655 126.700  0.00  0.00    +0.012 C 
ENDROOT
BRANCH   5  20
ATOM     20  O   LIG A   1      -9.861  -4.278 128.325  0.00  0.00    -0.388 OA
ATOM     21  H   LIG A   1      -9.880  -5.251 128.318  0.00  0.00    +0.210 HD
ENDBRANCH   5  20
BRANCH   8  22
ATOM     22  C   LIG A   1      -5.717  -3.049 131.019  0.00  0.00    -0.027 C 
ATOM     23  C   LIG A   1      -5.363  -4.319 130.782  0.00  0.00    +0.004 C 
ENDBRANCH   8  22
TORSDOF 2
ENDMDL
MODEL 5
REMARK VINA RESULT:      -7.0      3.933      5.410
REMARK  Name = NuBBE_2199
REMARK  6 active torsions:
REMARK  status: ('A' for Active; 'I' for Inactive)
REMARK    1  A    between atoms: C_1  and  C_2
REMARK    2  A    between atoms: C_5  and  O_7
REMARK    3  A    between atoms: C_10  and  C_11
REMARK    4  A    between atoms: C_10  and  C_13
REMARK    5  A    between atoms: C_19  and  C_20
REMARK    6  A    between atoms: C_19  and  C_21
REMARK                            x       y       z     vdW  Elec       q    Type
REMARK                         _______ _______ _______ _____ _____    ______ ____
ROOT
ATOM      1  C   LIG A   1      -7.028   3.972 127.447  0.00  0.00    +0.016 C 
ATOM      2  C   LIG A   1      -6.410   2.748 126.728  0.00  0.00    -0.000 C 
ATOM      3  C   LIG A   1      -5.001   3.063 126.103  0.00  0.00    +0.008 C 
ATOM      4  C   LIG A   1      -5.132   4.015 124.906  0.00  0.00    +0.040 C 
ATOM      5  C   LIG A   1      -5.988   3.385 123.807  0.00  0.00    +0.141 C 
ATOM      6  C   LIG A   1      -7.193   2.622 124.298  0.00  0.00    -0.034 C 
ATOM      7  C   LIG A   1      -8.114   2.145 123.192  0.00  0.00    +0.044 C 
ATOM      8  C   LIG A   1      -8.977   0.927 123.584  0.00  0.00    -0.004 C 
ATOM      9  C   LIG A   1     -10.054   0.710 122.502  0.00  0.00    +0.016 C 
ATOM     10  C   LIG A   1      -9.672   1.264 124.907  0.00  0.00    +0.090 C 
ATOM     11  C   LIG A   1      -7.405   2.358 125.608  0.00  0.00    +0.003 C 
ATOM     12  C   LIG A   1      -8.700   1.681 125.990  0.00  0.00    +0.161 C 
ATOM     13  O   LIG A   1      -9.016   1.535 127.171  0.00  0.00    -0.292 OA
ATOM     14  C   LIG A   1      -3.884   3.478 127.129  0.00  0.00    -0.031 C 
ATOM     15  C   LIG A   1      -2.512   3.014 126.571  0.00  0.00    +0.011 C 
ATOM     16  C   LIG A   1      -3.769   5.000 127.354  0.00  0.00    +0.011 C 
ATOM     17  C   LIG A   1      -4.106   2.785 128.497  0.00  0.00    +0.007 C 
ATOM     18  C   LIG A   1      -4.815   1.447 128.352  0.00  0.00    +0.001 C 
ATOM     19  C   LIG A   1      -6.218   1.579 127.748  0.00  0.00    +0.012 C 
ENDROOT
BRANCH   5  20
ATOM     20  O   LIG A   1      -6.419   4.419 122.928  0.00  0.00    -0.388 OA
ATOM     21  H   LIG A   1      -7.386   4.346 122.849  0.00  0.00    +0.210 HD
ENDBRANCH   5  20
BRANCH   8  22
ATOM     22  C   LIG A   1      -8.112  -0.337 123.604  0.00  0.00    -0.027 C 
ATOM     23  C   LIG A   1      -8.442  -1.571 123.199  0.00  0.00    +0.004 C 
ENDBRANCH   8  22
TORSDOF 2
ENDMDL
MODEL 6
REMARK VINA RESULT:      -6.9      2.629      6.252
REMARK  Name = NuBBE_2199
REMARK  6 active torsions:
REMARK  status: ('A' for Active; 'I' for Inactive)
REMARK    1  A    between atoms: C_1  and  C_2
REMARK    2  A    between atoms: C_5  and  O_7
REMARK    3  A    between atoms: C_10  and  C_11
REMARK    4  A    between atoms: C_10  and  C_13
REMARK    5  A    between atoms: C_19  and  C_20
REMARK    6  A    between atoms: C_19  and  C_21
REMARK                            x       y       z     vdW  Elec       q    Type
REMARK                         _______ _______ _______ _____ _____    ______ ____
ROOT
ATOM      1  C   LIG A   1      -8.533  -0.392 125.683  0.00  0.00    +0.016 C 
ATOM      2  C   LIG A   1      -7.035  -0.279 125.304  0.00  0.00    -0.000 C 
ATOM      3  C   LIG A   1      -6.289  -1.662 125.375  0.00  0.00    +0.008 C 
ATOM      4  C   LIG A   1      -6.144  -2.134 126.828  0.00  0.00    +0.040 C 
ATOM      5  C   LIG A   1      -5.324  -1.132 127.641  0.00  0.00    +0.141 C 
ATOM      6  C   LIG A   1      -5.618   0.318 127.346  0.00  0.00    -0.034 C 
ATOM      7  C   LIG A   1      -4.915   1.291 128.273  0.00  0.00    +0.044 C 
ATOM      8  C   LIG A   1      -4.723   2.697 127.668  0.00  0.00    -0.004 C 
ATOM      9  C   LIG A   1      -4.262   3.660 128.781  0.00  0.00    +0.016 C 
ATOM     10  C   LIG A   1      -6.087   3.164 127.150  0.00  0.00    +0.090 C 
ATOM     11  C   LIG A   1      -6.408   0.707 126.319  0.00  0.00    +0.003 C 
ATOM     12  C   LIG A   1      -6.717   2.180 126.186  0.00  0.00    +0.161 C 
ATOM     13  O   LIG A   1      -7.534   2.585 125.360  0.00  0.00    -0.292 OA
ATOM     14  C   LIG A   1      -6.824  -2.770 124.395  0.00  0.00    -0.031 C 
ATOM     15  C   LIG A   1      -5.639  -3.694 124.008  0.00  0.00    +0.011 C 
ATOM     16  C   LIG A   1      -7.906  -3.684 125.007  0.00  0.00    +0.011 C 
ATOM     17  C   LIG A   1      -7.382  -2.134 123.096  0.00  0.00    +0.007 C 
ATOM     18  C   LIG A   1      -6.695  -0.820 122.762  0.00  0.00    +0.001 C 
ATOM     19  C   LIG A   1      -6.900   0.251 123.840  0.00  0.00    +0.012 C 
ENDROOT
BRANCH   5  20
ATOM     20  O   LIG A   1      -5.558  -1.381 129.024  0.00  0.00    -0.388 OA
ATOM     21  H   LIG A   1      -4.690  -1.507 129.445  0.00  0.00    +0.210 HD
ENDBRANCH   5  20
BRANCH   8  22
ATOM     22  C   LIG A   1      -3.604   2.664 126.623  0.00  0.00    -0.027 C 
ATOM     23  C   LIG A   1      -2.332   3.060 126.762  0.00  0.00    +0.004 C 
ENDBRANCH   8  22
TORSDOF 2
ENDMDL
MODEL 7
REMARK VINA RESULT:      -6.9      1.706      2.278
REMARK  Name = NuBBE_2199
REMARK  6 active torsions:
REMARK  status: ('A' for Active; 'I' for Inactive)
REMARK    1  A    between atoms: C_1  and  C_2
REMARK    2  A    between atoms: C_5  and  O_7
REMARK    3  A    between atoms: C_10  and  C_11
REMARK    4  A    between atoms: C_10  and  C_13
REMARK    5  A    between atoms: C_19  and  C_20
REMARK    6  A    between atoms: C_19  and  C_21
REMARK                            x       y       z     vdW  Elec       q    Type
REMARK                         _______ _______ _______ _____ _____    ______ ____
ROOT
ATOM      1  C   LIG A   1      -7.944  -0.880 130.181  0.00  0.00    +0.016 C 
ATOM      2  C   LIG A   1      -6.936  -0.934 129.007  0.00  0.00    -0.000 C 
ATOM      3  C   LIG A   1      -6.347   0.481 128.652  0.00  0.00    +0.008 C 
ATOM      4  C   LIG A   1      -7.418   1.379 128.020  0.00  0.00    +0.040 C 
ATOM      5  C   LIG A   1      -7.940   0.764 126.721  0.00  0.00    +0.141 C 
ATOM      6  C   LIG A   1      -8.137  -0.731 126.760  0.00  0.00    -0.034 C 
ATOM      7  C   LIG A   1      -8.805  -1.297 125.522  0.00  0.00    +0.044 C 
ATOM      8  C   LIG A   1      -8.498  -2.790 125.278  0.00  0.00    -0.004 C 
ATOM      9  C   LIG A   1      -9.436  -3.318 124.174  0.00  0.00    +0.016 C 
ATOM     10  C   LIG A   1      -8.801  -3.539 126.579  0.00  0.00    +0.090 C 
ATOM     11  C   LIG A   1      -7.717  -1.495 127.794  0.00  0.00    +0.003 C 
ATOM     12  C   LIG A   1      -8.065  -2.965 127.771  0.00  0.00    +0.161 C 
ATOM     13  O   LIG A   1      -7.833  -3.687 128.741  0.00  0.00    -0.292 OA
ATOM     14  C   LIG A   1      -5.526   1.178 129.799  0.00  0.00    -0.031 C 
ATOM     15  C   LIG A   1      -4.437   2.070 129.146  0.00  0.00    +0.011 C 
ATOM     16  C   LIG A   1      -6.366   2.107 130.700  0.00  0.00    +0.011 C 
ATOM     17  C   LIG A   1      -4.816   0.125 130.687  0.00  0.00    +0.007 C 
ATOM     18  C   LIG A   1      -4.487  -1.144 129.918  0.00  0.00    +0.001 C 
ATOM     19  C   LIG A   1      -5.734  -1.859 129.385  0.00  0.00    +0.012 C 
ENDROOT
BRANCH   5  20
ATOM     20  O   LIG A   1      -9.178   1.388 126.397  0.00  0.00    -0.388 OA
ATOM     21  H   LIG A   1      -8.975   2.285 126.080  0.00  0.00    +0.210 HD
ENDBRANCH   5  20
BRANCH   8  22
ATOM     22  C   LIG A   1      -7.068  -2.946 124.752  0.00  0.00    -0.027 C 
ATOM     23  C   LIG A   1      -6.481  -2.283 123.746  0.00  0.00    +0.004 C 
ENDBRANCH   8  22
TORSDOF 2
ENDMDL
MODEL 8
REMARK VINA RESULT:      -6.8      2.373      5.788
REMARK  Name = NuBBE_2199
REMARK  6 active torsions:
REMARK  status: ('A' for Active; 'I' for Inactive)
REMARK    1  A    between atoms: C_1  and  C_2
REMARK    2  A    between atoms: C_5  and  O_7
REMARK    3  A    between atoms: C_10  and  C_11
REMARK    4  A    between atoms: C_10  and  C_13
REMARK    5  A    between atoms: C_19  and  C_20
REMARK    6  A    between atoms: C_19  and  C_21
REMARK                            x       y       z     vdW  Elec       q    Type
REMARK                         _______ _______ _______ _____ _____    ______ ____
ROOT
ATOM      1  C   LIG A   1      -5.929  -2.689 128.552  0.00  0.00    +0.016 C 
ATOM      2  C   LIG A   1      -7.343  -2.083 128.727  0.00  0.00    -0.000 C 
ATOM      3  C   LIG A   1      -7.886  -1.426 127.404  0.00  0.00    +0.008 C 
ATOM      4  C   LIG A   1      -7.107  -0.147 127.067  0.00  0.00    +0.040 C 
ATOM      5  C   LIG A   1      -7.257   0.886 128.184  0.00  0.00    +0.141 C 
ATOM      6  C   LIG A   1      -7.210   0.322 129.582  0.00  0.00    -0.034 C 
ATOM      7  C   LIG A   1      -7.198   1.376 130.672  0.00  0.00    +0.044 C 
ATOM      8  C   LIG A   1      -7.724   0.869 132.032  0.00  0.00    -0.004 C 
ATOM      9  C   LIG A   1      -7.407   1.923 133.112  0.00  0.00    +0.016 C 
ATOM     10  C   LIG A   1      -6.967  -0.419 132.366  0.00  0.00    +0.090 C 
ATOM     11  C   LIG A   1      -7.218  -1.008 129.833  0.00  0.00    +0.003 C 
ATOM     12  C   LIG A   1      -7.059  -1.456 131.266  0.00  0.00    +0.161 C 
ATOM     13  O   LIG A   1      -6.922  -2.647 131.548  0.00  0.00    -0.292 OA
ATOM     14  C   LIG A   1      -8.063  -2.405 126.186  0.00  0.00    -0.031 C 
ATOM     15  C   LIG A   1      -9.233  -1.887 125.309  0.00  0.00    +0.011 C 
ATOM     16  C   LIG A   1      -6.830  -2.488 125.261  0.00  0.00    +0.011 C 
ATOM     17  C   LIG A   1      -8.421  -3.832 126.672  0.00  0.00    +0.007 C 
ATOM     18  C   LIG A   1      -9.172  -3.814 127.994  0.00  0.00    +0.001 C 
ATOM     19  C   LIG A   1      -8.351  -3.205 129.137  0.00  0.00    +0.012 C 
ENDROOT
BRANCH   5  20
ATOM     20  O   LIG A   1      -6.223   1.854 128.038  0.00  0.00    -0.388 OA
ATOM     21  H   LIG A   1      -5.406   1.373 127.821  0.00  0.00    +0.210 HD
ENDBRANCH   5  20
BRANCH   8  22
ATOM     22  C   LIG A   1      -9.249   0.737 131.980  0.00  0.00    -0.027 C 
ATOM     23  C   LIG A   1     -10.162   1.716 131.932  0.00  0.00    +0.004 C 
ENDBRANCH   8  22
TORSDOF 2
ENDMDL
MODEL 9
REMARK VINA RESULT:      -6.8      1.981      6.065
REMARK  Name = NuBBE_2199
REMARK  6 active torsions:
REMARK  status: ('A' for Active; 'I' for Inactive)
REMARK    1  A    between atoms: C_1  and  C_2
REMARK    2  A    between atoms: C_5  and  O_7
REMARK    3  A    between atoms: C_10  and  C_11
REMARK    4  A    between atoms: C_10  and  C_13
REMARK    5  A    between atoms: C_19  and  C_20
REMARK    6  A    between atoms: C_19  and  C_21
REMARK                            x       y       z     vdW  Elec       q    Type
REMARK                         _______ _______ _______ _____ _____    ______ ____
ROOT
ATOM      1  C   LIG A   1      -9.641  -0.442 125.618  0.00  0.00    +0.016 C 
ATOM      2  C   LIG A   1      -8.131  -0.486 125.959  0.00  0.00    -0.000 C 
ATOM      3  C   LIG A   1      -7.517  -1.925 125.790  0.00  0.00    +0.008 C 
ATOM      4  C   LIG A   1      -8.044  -2.877 126.872  0.00  0.00    +0.040 C 
ATOM      5  C   LIG A   1      -7.660  -2.378 128.265  0.00  0.00    +0.141 C 
ATOM      6  C   LIG A   1      -7.768  -0.885 128.457  0.00  0.00    -0.034 C 
ATOM      7  C   LIG A   1      -7.540  -0.430 129.885  0.00  0.00    +0.044 C 
ATOM      8  C   LIG A   1      -7.075   1.038 130.002  0.00  0.00    -0.004 C 
ATOM      9  C   LIG A   1      -7.146   1.466 131.482  0.00  0.00    +0.016 C 
ATOM     10  C   LIG A   1      -8.056   1.895 129.196  0.00  0.00    +0.090 C 
ATOM     11  C   LIG A   1      -8.009  -0.034 127.434  0.00  0.00    +0.003 C 
ATOM     12  C   LIG A   1      -8.203   1.427 127.763  0.00  0.00    +0.161 C 
ATOM     13  O   LIG A   1      -8.558   2.231 126.901  0.00  0.00    -0.292 OA
ATOM     14  C   LIG A   1      -7.574  -2.518 124.335  0.00  0.00    -0.031 C 
ATOM     15  C   LIG A   1      -6.356  -3.460 124.143  0.00  0.00    +0.011 C 
ATOM     16  C   LIG A   1      -8.830  -3.369 124.050  0.00  0.00    +0.011 C 
ATOM     17  C   LIG A   1      -7.482  -1.391 123.275  0.00  0.00    +0.007 C 
ATOM     18  C   LIG A   1      -6.698  -0.191 123.783  0.00  0.00    +0.001 C 
ATOM     19  C   LIG A   1      -7.347   0.471 125.004  0.00  0.00    +0.012 C 
ENDROOT
BRANCH   5  20
ATOM     20  O   LIG A   1      -8.491  -3.031 129.219  0.00  0.00    -0.388 OA
ATOM     21  H   LIG A   1      -8.041  -2.975 130.080  0.00  0.00    +0.210 HD
ENDBRANCH   5  20
BRANCH   8  22
ATOM     22  C   LIG A   1      -5.608   1.152 129.581  0.00  0.00    -0.027 C 
ATOM     23  C   LIG A   1      -4.624   0.260 129.760  0.00  0.00    +0.004 C 
ENDBRANCH   8  22
TORSDOF 2
ENDMDL
