MODEL 1
REMARK VINA RESULT:      -8.0      0.000      0.000
REMARK  Name = NuBBE_2192
REMARK  6 active torsions:
REMARK  status: ('A' for Active; 'I' for Inactive)
REMARK    1  A    between atoms: C_1  and  C_2
REMARK    2  A    between atoms: C_8  and  C_9
REMARK    3  A    between atoms: C_8  and  C_11
REMARK    4  A    between atoms: C_12  and  O_14
REMARK    5  A    between atoms: C_20  and  C_21
REMARK    6  A    between atoms: C_20  and  C_22
REMARK                            x       y       z     vdW  Elec       q    Type
REMARK                         _______ _______ _______ _____ _____    ______ ____
ROOT
ATOM      1  C   LIG A   1      -7.932  -1.827 129.865  0.00  0.00    +0.016 C 
ATOM      2  C   LIG A   1      -6.869  -2.538 128.994  0.00  0.00    +0.000 C 
ATOM      3  C   LIG A   1      -5.455  -1.869 129.102  0.00  0.00    +0.012 C 
ATOM      4  C   LIG A   1      -5.444  -0.478 128.463  0.00  0.00    +0.084 C 
ATOM      5  C   LIG A   1      -5.877  -0.548 127.022  0.00  0.00    +0.160 C 
ATOM      6  C   LIG A   1      -6.885  -1.576 126.617  0.00  0.00    +0.003 C 
ATOM      7  C   LIG A   1      -7.302  -1.524 125.168  0.00  0.00    +0.052 C 
ATOM      8  C   LIG A   1      -7.860  -2.873 124.661  0.00  0.00    +0.023 C 
ATOM      9  C   LIG A   1      -8.452  -2.659 123.251  0.00  0.00    +0.019 C 
ATOM     10  C   LIG A   1      -8.969  -3.314 125.635  0.00  0.00    +0.195 C 
ATOM     11  C   LIG A   1      -7.362  -2.444 127.533  0.00  0.00    +0.010 C 
ATOM     12  C   LIG A   1      -8.499  -3.334 127.091  0.00  0.00    +0.189 C 
ATOM     13  O   LIG A   1      -9.133  -4.002 127.912  0.00  0.00    -0.290 OA
ATOM     14  O   LIG A   1      -5.464   0.272 126.203  0.00  0.00    -0.292 OA
ATOM     15  C   LIG A   1      -4.793  -1.909 130.530  0.00  0.00    -0.031 C 
ATOM     16  C   LIG A   1      -3.253  -1.977 130.354  0.00  0.00    +0.011 C 
ATOM     17  C   LIG A   1      -5.080  -0.661 131.390  0.00  0.00    +0.011 C 
ATOM     18  C   LIG A   1      -5.243  -3.167 131.315  0.00  0.00    +0.007 C 
ATOM     19  C   LIG A   1      -5.563  -4.331 130.393  0.00  0.00    +0.001 C 
ATOM     20  C   LIG A   1      -6.724  -4.029 129.442  0.00  0.00    +0.012 C 
ENDROOT
BRANCH   8  21
ATOM     21  C   LIG A   1      -6.706  -3.873 124.501  0.00  0.00    -0.025 C 
ATOM     22  C   LIG A   1      -5.483  -3.660 123.993  0.00  0.00    +0.004 C 
ENDBRANCH   8  21
BRANCH  10  23
ATOM     23  O   LIG A   1     -10.103  -2.442 125.572  0.00  0.00    -0.383 OA
ATOM     24  H   LIG A   1      -9.789  -1.567 125.870  0.00  0.00    +0.210 HD
ENDBRANCH  10  23
TORSDOF 2
ENDMDL
MODEL 2
REMARK VINA RESULT:      -7.7      3.433      6.206
REMARK  Name = NuBBE_2192
REMARK  6 active torsions:
REMARK  status: ('A' for Active; 'I' for Inactive)
REMARK    1  A    between atoms: C_1  and  C_2
REMARK    2  A    between atoms: C_8  and  C_9
REMARK    3  A    between atoms: C_8  and  C_11
REMARK    4  A    between atoms: C_12  and  O_14
REMARK    5  A    between atoms: C_20  and  C_21
REMARK    6  A    between atoms: C_20  and  C_22
REMARK                            x       y       z     vdW  Elec       q    Type
REMARK                         _______ _______ _______ _____ _____    ______ ____
ROOT
ATOM      1  C   LIG A   1      -9.717  -0.558 125.642  0.00  0.00    +0.016 C 
ATOM      2  C   LIG A   1      -8.525  -0.373 124.674  0.00  0.00    +0.000 C 
ATOM      3  C   LIG A   1      -7.362  -1.388 124.947  0.00  0.00    +0.012 C 
ATOM      4  C   LIG A   1      -6.673  -1.104 126.284  0.00  0.00    +0.084 C 
ATOM      5  C   LIG A   1      -6.150   0.308 126.325  0.00  0.00    +0.160 C 
ATOM      6  C   LIG A   1      -6.898   1.380 125.598  0.00  0.00    +0.003 C 
ATOM      7  C   LIG A   1      -6.332   2.770 125.752  0.00  0.00    +0.052 C 
ATOM      8  C   LIG A   1      -6.740   3.711 124.597  0.00  0.00    +0.023 C 
ATOM      9  C   LIG A   1      -6.298   5.146 124.955  0.00  0.00    +0.019 C 
ATOM     10  C   LIG A   1      -8.274   3.651 124.467  0.00  0.00    +0.195 C 
ATOM     11  C   LIG A   1      -8.002   1.064 124.889  0.00  0.00    +0.010 C 
ATOM     12  C   LIG A   1      -8.797   2.219 124.329  0.00  0.00    +0.189 C 
ATOM     13  O   LIG A   1      -9.921   2.039 123.854  0.00  0.00    -0.290 OA
ATOM     14  O   LIG A   1      -5.164   0.591 127.004  0.00  0.00    -0.292 OA
ATOM     15  C   LIG A   1      -7.725  -2.907 124.738  0.00  0.00    -0.031 C 
ATOM     16  C   LIG A   1      -6.449  -3.654 124.267  0.00  0.00    +0.011 C 
ATOM     17  C   LIG A   1      -8.200  -3.620 126.020  0.00  0.00    +0.011 C 
ATOM     18  C   LIG A   1      -8.812  -3.073 123.646  0.00  0.00    +0.007 C 
ATOM     19  C   LIG A   1      -8.747  -1.970 122.604  0.00  0.00    +0.001 C 
ATOM     20  C   LIG A   1      -9.001  -0.581 123.199  0.00  0.00    +0.012 C 
ENDROOT
BRANCH   8  21
ATOM     21  C   LIG A   1      -5.969   3.322 123.327  0.00  0.00    -0.025 C 
ATOM     22  C   LIG A   1      -6.210   3.690 122.061  0.00  0.00    +0.004 C 
ENDBRANCH   8  21
BRANCH  10  23
ATOM     23  O   LIG A   1      -8.923   4.225 125.607  0.00  0.00    -0.383 OA
ATOM     24  H   LIG A   1      -8.676   3.668 126.368  0.00  0.00    +0.210 HD
ENDBRANCH  10  23
TORSDOF 2
ENDMDL
MODEL 3
REMARK VINA RESULT:      -7.6      3.531      5.379
REMARK  Name = NuBBE_2192
REMARK  6 active torsions:
REMARK  status: ('A' for Active; 'I' for Inactive)
REMARK    1  A    between atoms: C_1  and  C_2
REMARK    2  A    between atoms: C_8  and  C_9
REMARK    3  A    between atoms: C_8  and  C_11
REMARK    4  A    between atoms: C_12  and  O_14
REMARK    5  A    between atoms: C_20  and  C_21
REMARK    6  A    between atoms: C_20  and  C_22
REMARK                            x       y       z     vdW  Elec       q    Type
REMARK                         _______ _______ _______ _____ _____    ______ ____
ROOT
ATOM      1  C   LIG A   1      -8.033   2.092 126.878  0.00  0.00    +0.016 C 
ATOM      2  C   LIG A   1      -7.153   1.574 125.715  0.00  0.00    +0.000 C 
ATOM      3  C   LIG A   1      -6.941   2.651 124.595  0.00  0.00    +0.012 C 
ATOM      4  C   LIG A   1      -8.243   2.941 123.843  0.00  0.00    +0.084 C 
ATOM      5  C   LIG A   1      -8.809   1.677 123.249  0.00  0.00    +0.160 C 
ATOM      6  C   LIG A   1      -8.604   0.382 123.969  0.00  0.00    +0.003 C 
ATOM      7  C   LIG A   1      -9.263  -0.815 123.329  0.00  0.00    +0.052 C 
ATOM      8  C   LIG A   1      -8.596  -2.148 123.733  0.00  0.00    +0.023 C 
ATOM      9  C   LIG A   1      -9.466  -3.310 123.207  0.00  0.00    +0.019 C 
ATOM     10  C   LIG A   1      -8.535  -2.192 125.272  0.00  0.00    +0.195 C 
ATOM     11  C   LIG A   1      -7.889   0.357 125.113  0.00  0.00    +0.010 C 
ATOM     12  C   LIG A   1      -7.872  -0.949 125.870  0.00  0.00    +0.189 C 
ATOM     13  O   LIG A   1      -7.426  -1.007 127.018  0.00  0.00    -0.290 OA
ATOM     14  O   LIG A   1      -9.491   1.717 122.226  0.00  0.00    -0.292 OA
ATOM     15  C   LIG A   1      -6.171   3.950 125.040  0.00  0.00    -0.031 C 
ATOM     16  C   LIG A   1      -5.375   4.489 123.822  0.00  0.00    +0.011 C 
ATOM     17  C   LIG A   1      -7.092   5.098 125.502  0.00  0.00    +0.011 C 
ATOM     18  C   LIG A   1      -5.162   3.637 126.173  0.00  0.00    +0.007 C 
ATOM     19  C   LIG A   1      -4.637   2.214 126.092  0.00  0.00    +0.001 C 
ATOM     20  C   LIG A   1      -5.743   1.167 126.255  0.00  0.00    +0.012 C 
ENDROOT
BRANCH   8  21
ATOM     21  C   LIG A   1      -7.236  -2.270 123.030  0.00  0.00    -0.025 C 
ATOM     22  C   LIG A   1      -6.078  -2.727 123.529  0.00  0.00    +0.004 C 
ENDBRANCH   8  21
BRANCH  10  23
ATOM     23  O   LIG A   1      -9.842  -2.288 125.849  0.00  0.00    -0.383 OA
ATOM     24  H   LIG A   1     -10.084  -3.234 125.816  0.00  0.00    +0.210 HD
ENDBRANCH  10  23
TORSDOF 2
ENDMDL
MODEL 4
REMARK VINA RESULT:      -7.3      1.794      5.856
REMARK  Name = NuBBE_2192
REMARK  6 active torsions:
REMARK  status: ('A' for Active; 'I' for Inactive)
REMARK    1  A    between atoms: C_1  and  C_2
REMARK    2  A    between atoms: C_8  and  C_9
REMARK    3  A    between atoms: C_8  and  C_11
REMARK    4  A    between atoms: C_12  and  O_14
REMARK    5  A    between atoms: C_20  and  C_21
REMARK    6  A    between atoms: C_20  and  C_22
REMARK                            x       y       z     vdW  Elec       q    Type
REMARK                         _______ _______ _______ _____ _____    ______ ____
ROOT
ATOM      1  C   LIG A   1      -8.189   0.017 126.778  0.00  0.00    +0.016 C 
ATOM      2  C   LIG A   1      -7.204  -1.158 126.980  0.00  0.00    +0.000 C 
ATOM      3  C   LIG A   1      -7.532  -2.385 126.061  0.00  0.00    +0.012 C 
ATOM      4  C   LIG A   1      -8.845  -3.056 126.470  0.00  0.00    +0.084 C 
ATOM      5  C   LIG A   1      -8.798  -3.487 127.913  0.00  0.00    +0.160 C 
ATOM      6  C   LIG A   1      -8.010  -2.670 128.888  0.00  0.00    +0.003 C 
ATOM      7  C   LIG A   1      -8.077  -3.145 130.319  0.00  0.00    +0.052 C 
ATOM      8  C   LIG A   1      -6.868  -2.674 131.158  0.00  0.00    +0.023 C 
ATOM      9  C   LIG A   1      -7.135  -3.023 132.638  0.00  0.00    +0.019 C 
ATOM     10  C   LIG A   1      -6.750  -1.147 130.991  0.00  0.00    +0.195 C 
ATOM     11  C   LIG A   1      -7.329  -1.588 128.459  0.00  0.00    +0.010 C 
ATOM     12  C   LIG A   1      -6.703  -0.719 129.523  0.00  0.00    +0.189 C 
ATOM     13  O   LIG A   1      -6.246   0.392 129.242  0.00  0.00    -0.290 OA
ATOM     14  O   LIG A   1      -9.453  -4.453 128.301  0.00  0.00    -0.292 OA
ATOM     15  C   LIG A   1      -7.418  -2.122 124.512  0.00  0.00    -0.031 C 
ATOM     16  C   LIG A   1      -6.987  -3.442 123.822  0.00  0.00    +0.011 C 
ATOM     17  C   LIG A   1      -8.744  -1.696 123.850  0.00  0.00    +0.011 C 
ATOM     18  C   LIG A   1      -6.345  -1.046 124.209  0.00  0.00    +0.007 C 
ATOM     19  C   LIG A   1      -5.237  -1.038 125.249  0.00  0.00    +0.001 C 
ATOM     20  C   LIG A   1      -5.747  -0.695 126.651  0.00  0.00    +0.012 C 
ENDROOT
BRANCH   8  21
ATOM     21  C   LIG A   1      -5.620  -3.467 130.743  0.00  0.00    -0.025 C 
ATOM     22  C   LIG A   1      -5.484  -4.794 130.606  0.00  0.00    +0.004 C 
ENDBRANCH   8  21
BRANCH  10  23
ATOM     23  O   LIG A   1      -7.856  -0.464 131.592  0.00  0.00    -0.383 OA
ATOM     24  H   LIG A   1      -7.765  -0.594 132.555  0.00  0.00    +0.210 HD
ENDBRANCH  10  23
TORSDOF 2
ENDMDL
MODEL 5
REMARK VINA RESULT:      -7.1      2.829      6.255
REMARK  Name = NuBBE_2192
REMARK  6 active torsions:
REMARK  status: ('A' for Active; 'I' for Inactive)
REMARK    1  A    between atoms: C_1  and  C_2
REMARK    2  A    between atoms: C_8  and  C_9
REMARK    3  A    between atoms: C_8  and  C_11
REMARK    4  A    between atoms: C_12  and  O_14
REMARK    5  A    between atoms: C_20  and  C_21
REMARK    6  A    between atoms: C_20  and  C_22
REMARK                            x       y       z     vdW  Elec       q    Type
REMARK                         _______ _______ _______ _____ _____    ______ ____
ROOT
ATOM      1  C   LIG A   1      -8.561  -0.434 125.652  0.00  0.00    +0.016 C 
ATOM      2  C   LIG A   1      -7.067  -0.307 125.273  0.00  0.00    +0.000 C 
ATOM      3  C   LIG A   1      -6.304  -1.674 125.361  0.00  0.00    +0.012 C 
ATOM      4  C   LIG A   1      -6.177  -2.152 126.809  0.00  0.00    +0.084 C 
ATOM      5  C   LIG A   1      -5.485  -1.116 127.655  0.00  0.00    +0.160 C 
ATOM      6  C   LIG A   1      -5.681   0.332 127.333  0.00  0.00    +0.003 C 
ATOM      7  C   LIG A   1      -5.000   1.293 128.276  0.00  0.00    +0.052 C 
ATOM      8  C   LIG A   1      -4.740   2.674 127.632  0.00  0.00    +0.023 C 
ATOM      9  C   LIG A   1      -4.245   3.640 128.730  0.00  0.00    +0.019 C 
ATOM     10  C   LIG A   1      -6.076   3.177 127.054  0.00  0.00    +0.195 C 
ATOM     11  C   LIG A   1      -6.440   0.686 126.276  0.00  0.00    +0.010 C 
ATOM     12  C   LIG A   1      -6.733   2.159 126.118  0.00  0.00    +0.189 C 
ATOM     13  O   LIG A   1      -7.582   2.551 125.314  0.00  0.00    -0.290 OA
ATOM     14  O   LIG A   1      -4.825  -1.448 128.639  0.00  0.00    -0.292 OA
ATOM     15  C   LIG A   1      -6.803  -2.794 124.372  0.00  0.00    -0.031 C 
ATOM     16  C   LIG A   1      -5.592  -3.689 123.996  0.00  0.00    +0.011 C 
ATOM     17  C   LIG A   1      -7.869  -3.732 124.973  0.00  0.00    +0.011 C 
ATOM     18  C   LIG A   1      -7.366  -2.173 123.069  0.00  0.00    +0.007 C 
ATOM     19  C   LIG A   1      -6.699  -0.850 122.733  0.00  0.00    +0.001 C 
ATOM     20  C   LIG A   1      -6.933   0.217 123.806  0.00  0.00    +0.012 C 
ENDROOT
BRANCH   8  21
ATOM     21  C   LIG A   1      -3.599   2.553 126.611  0.00  0.00    -0.025 C 
ATOM     22  C   LIG A   1      -2.358   3.055 126.686  0.00  0.00    +0.004 C 
ENDBRANCH   8  21
BRANCH  10  23
ATOM     23  O   LIG A   1      -7.023   3.467 128.089  0.00  0.00    -0.383 OA
ATOM     24  H   LIG A   1      -7.852   3.020 127.830  0.00  0.00    +0.210 HD
ENDBRANCH  10  23
TORSDOF 2
ENDMDL
MODEL 6
REMARK VINA RESULT:      -7.0      3.555      6.343
REMARK  Name = NuBBE_2192
REMARK  6 active torsions:
REMARK  status: ('A' for Active; 'I' for Inactive)
REMARK    1  A    between atoms: C_1  and  C_2
REMARK    2  A    between atoms: C_8  and  C_9
REMARK    3  A    between atoms: C_8  and  C_11
REMARK    4  A    between atoms: C_12  and  O_14
REMARK    5  A    between atoms: C_20  and  C_21
REMARK    6  A    between atoms: C_20  and  C_22
REMARK                            x       y       z     vdW  Elec       q    Type
REMARK                         _______ _______ _______ _____ _____    ______ ____
ROOT
ATOM      1  C   LIG A   1      -7.371   0.970 127.383  0.00  0.00    +0.016 C 
ATOM      2  C   LIG A   1      -5.860   0.651 127.308  0.00  0.00    +0.000 C 
ATOM      3  C   LIG A   1      -5.417  -0.420 128.364  0.00  0.00    +0.012 C 
ATOM      4  C   LIG A   1      -5.508   0.129 129.790  0.00  0.00    +0.084 C 
ATOM      5  C   LIG A   1      -4.678   1.377 129.936  0.00  0.00    +0.160 C 
ATOM      6  C   LIG A   1      -4.534   2.293 128.762  0.00  0.00    +0.003 C 
ATOM      7  C   LIG A   1      -3.737   3.548 129.026  0.00  0.00    +0.052 C 
ATOM      8  C   LIG A   1      -3.139   4.155 127.737  0.00  0.00    +0.023 C 
ATOM      9  C   LIG A   1      -2.535   5.533 128.080  0.00  0.00    +0.019 C 
ATOM     10  C   LIG A   1      -4.287   4.322 126.724  0.00  0.00    +0.195 C 
ATOM     11  C   LIG A   1      -5.115   1.974 127.587  0.00  0.00    +0.010 C 
ATOM     12  C   LIG A   1      -5.071   3.026 126.505  0.00  0.00    +0.189 C 
ATOM     13  O   LIG A   1      -5.752   2.908 125.483  0.00  0.00    -0.290 OA
ATOM     14  O   LIG A   1      -4.183   1.678 131.021  0.00  0.00    -0.292 OA
ATOM     15  C   LIG A   1      -6.065  -1.846 128.198  0.00  0.00    -0.031 C 
ATOM     16  C   LIG A   1      -5.049  -2.907 128.697  0.00  0.00    +0.011 C 
ATOM     17  C   LIG A   1      -7.351  -2.050 129.024  0.00  0.00    +0.011 C 
ATOM     18  C   LIG A   1      -6.380  -2.143 126.710  0.00  0.00    +0.007 C 
ATOM     19  C   LIG A   1      -5.421  -1.430 125.772  0.00  0.00    +0.001 C 
ATOM     20  C   LIG A   1      -5.503   0.094 125.890  0.00  0.00    +0.012 C 
ENDROOT
BRANCH   8  21
ATOM     21  C   LIG A   1      -1.975   3.277 127.255  0.00  0.00    -0.025 C 
ATOM     22  C   LIG A   1      -1.555   3.067 125.999  0.00  0.00    +0.004 C 
ENDBRANCH   8  21
BRANCH  10  23
ATOM     23  O   LIG A   1      -5.227   5.314 127.151  0.00  0.00    -0.383 OA
ATOM     24  H   LIG A   1      -5.810   4.874 127.799  0.00  0.00    +0.210 HD
ENDBRANCH  10  23
TORSDOF 2
ENDMDL
MODEL 7
REMARK VINA RESULT:      -7.0      4.093      7.638
REMARK  Name = NuBBE_2192
REMARK  6 active torsions:
REMARK  status: ('A' for Active; 'I' for Inactive)
REMARK    1  A    between atoms: C_1  and  C_2
REMARK    2  A    between atoms: C_8  and  C_9
REMARK    3  A    between atoms: C_8  and  C_11
REMARK    4  A    between atoms: C_12  and  O_14
REMARK    5  A    between atoms: C_20  and  C_21
REMARK    6  A    between atoms: C_20  and  C_22
REMARK                            x       y       z     vdW  Elec       q    Type
REMARK                         _______ _______ _______ _____ _____    ______ ____
ROOT
ATOM      1  C   LIG A   1      -8.155   2.778 125.989  0.00  0.00    +0.016 C 
ATOM      2  C   LIG A   1      -6.735   2.429 125.485  0.00  0.00    +0.000 C 
ATOM      3  C   LIG A   1      -6.482   0.883 125.416  0.00  0.00    +0.012 C 
ATOM      4  C   LIG A   1      -6.434   0.261 126.814  0.00  0.00    +0.084 C 
ATOM      5  C   LIG A   1      -5.376   0.924 127.657  0.00  0.00    +0.160 C 
ATOM      6  C   LIG A   1      -5.086   2.376 127.447  0.00  0.00    +0.003 C 
ATOM      7  C   LIG A   1      -4.057   2.963 128.383  0.00  0.00    +0.052 C 
ATOM      8  C   LIG A   1      -3.383   4.228 127.807  0.00  0.00    +0.023 C 
ATOM      9  C   LIG A   1      -2.517   4.867 128.914  0.00  0.00    +0.019 C 
ATOM     10  C   LIG A   1      -4.500   5.201 127.385  0.00  0.00    +0.195 C 
ATOM     11  C   LIG A   1      -5.744   3.059 126.487  0.00  0.00    +0.010 C 
ATOM     12  C   LIG A   1      -5.523   4.552 126.451  0.00  0.00    +0.189 C 
ATOM     13  O   LIG A   1      -6.236   5.278 125.753  0.00  0.00    -0.290 OA
ATOM     14  O   LIG A   1      -4.809   0.301 128.554  0.00  0.00    -0.292 OA
ATOM     15  C   LIG A   1      -7.396   0.090 124.407  0.00  0.00    -0.031 C 
ATOM     16  C   LIG A   1      -6.592  -1.121 123.867  0.00  0.00    +0.011 C 
ATOM     17  C   LIG A   1      -8.678  -0.485 125.043  0.00  0.00    +0.011 C 
ATOM     18  C   LIG A   1      -7.795   0.980 123.203  0.00  0.00    +0.007 C 
ATOM     19  C   LIG A   1      -6.739   2.026 122.893  0.00  0.00    +0.001 C 
ATOM     20  C   LIG A   1      -6.524   3.008 124.047  0.00  0.00    +0.012 C 
ENDROOT
BRANCH   8  21
ATOM     21  C   LIG A   1      -2.420   3.824 126.681  0.00  0.00    -0.025 C 
ATOM     22  C   LIG A   1      -1.503   2.845 126.680  0.00  0.00    +0.004 C 
ENDBRANCH   8  21
BRANCH  10  23
ATOM     23  O   LIG A   1      -5.222   5.697 128.518  0.00  0.00    -0.383 OA
ATOM     24  H   LIG A   1      -5.660   4.923 128.920  0.00  0.00    +0.210 HD
ENDBRANCH  10  23
TORSDOF 2
ENDMDL
MODEL 8
REMARK VINA RESULT:      -6.9      2.527      6.209
REMARK  Name = NuBBE_2192
REMARK  6 active torsions:
REMARK  status: ('A' for Active; 'I' for Inactive)
REMARK    1  A    between atoms: C_1  and  C_2
REMARK    2  A    between atoms: C_8  and  C_9
REMARK    3  A    between atoms: C_8  and  C_11
REMARK    4  A    between atoms: C_12  and  O_14
REMARK    5  A    between atoms: C_20  and  C_21
REMARK    6  A    between atoms: C_20  and  C_22
REMARK                            x       y       z     vdW  Elec       q    Type
REMARK                         _______ _______ _______ _____ _____    ______ ____
ROOT
ATOM      1  C   LIG A   1      -9.720  -0.274 125.379  0.00  0.00    +0.016 C 
ATOM      2  C   LIG A   1      -8.203  -0.278 125.683  0.00  0.00    +0.000 C 
ATOM      3  C   LIG A   1      -7.595  -1.724 125.694  0.00  0.00    +0.012 C 
ATOM      4  C   LIG A   1      -8.113  -2.540 126.881  0.00  0.00    +0.084 C 
ATOM      5  C   LIG A   1      -7.814  -1.840 128.181  0.00  0.00    +0.160 C 
ATOM      6  C   LIG A   1      -7.808  -0.344 128.215  0.00  0.00    +0.003 C 
ATOM      7  C   LIG A   1      -7.563   0.262 129.575  0.00  0.00    +0.052 C 
ATOM      8  C   LIG A   1      -7.009   1.703 129.493  0.00  0.00    +0.023 C 
ATOM      9  C   LIG A   1      -6.998   2.304 130.915  0.00  0.00    +0.019 C 
ATOM     10  C   LIG A   1      -7.955   2.514 128.587  0.00  0.00    +0.195 C 
ATOM     11  C   LIG A   1      -8.033   0.353 127.082  0.00  0.00    +0.010 C 
ATOM     12  C   LIG A   1      -8.182   1.848 127.228  0.00  0.00    +0.189 C 
ATOM     13  O   LIG A   1      -8.595   2.535 126.290  0.00  0.00    -0.290 OA
ATOM     14  O   LIG A   1      -7.648  -2.484 129.216  0.00  0.00    -0.292 OA
ATOM     15  C   LIG A   1      -7.660  -2.498 124.324  0.00  0.00    -0.031 C 
ATOM     16  C   LIG A   1      -6.435  -3.445 124.239  0.00  0.00    +0.011 C 
ATOM     17  C   LIG A   1      -8.911  -3.387 124.165  0.00  0.00    +0.011 C 
ATOM     18  C   LIG A   1      -7.595  -1.516 123.128  0.00  0.00    +0.007 C 
ATOM     19  C   LIG A   1      -6.807  -0.261 123.463  0.00  0.00    +0.001 C 
ATOM     20  C   LIG A   1      -7.441   0.549 124.597  0.00  0.00    +0.012 C 
ENDROOT
BRANCH   8  21
ATOM     21  C   LIG A   1      -5.547   1.660 129.027  0.00  0.00    -0.025 C 
ATOM     22  C   LIG A   1      -4.544   0.906 129.499  0.00  0.00    +0.004 C 
ENDBRANCH   8  21
BRANCH  10  23
ATOM     23  O   LIG A   1      -9.243   2.688 129.189  0.00  0.00    -0.383 OA
ATOM     24  H   LIG A   1      -9.654   3.448 128.735  0.00  0.00    +0.210 HD
ENDBRANCH  10  23
TORSDOF 2
ENDMDL
MODEL 9
REMARK VINA RESULT:      -6.8      2.706      3.675
REMARK  Name = NuBBE_2192
REMARK  6 active torsions:
REMARK  status: ('A' for Active; 'I' for Inactive)
REMARK    1  A    between atoms: C_1  and  C_2
REMARK    2  A    between atoms: C_8  and  C_9
REMARK    3  A    between atoms: C_8  and  C_11
REMARK    4  A    between atoms: C_12  and  O_14
REMARK    5  A    between atoms: C_20  and  C_21
REMARK    6  A    between atoms: C_20  and  C_22
REMARK                            x       y       z     vdW  Elec       q    Type
REMARK                         _______ _______ _______ _____ _____    ______ ____
ROOT
ATOM      1  C   LIG A   1      -8.469  -2.510 127.369  0.00  0.00    +0.016 C 
ATOM      2  C   LIG A   1      -7.370  -1.458 127.087  0.00  0.00    +0.000 C 
ATOM      3  C   LIG A   1      -6.981  -0.635 128.364  0.00  0.00    +0.012 C 
ATOM      4  C   LIG A   1      -8.125   0.279 128.810  0.00  0.00    +0.084 C 
ATOM      5  C   LIG A   1      -8.532   1.208 127.697  0.00  0.00    +0.160 C 
ATOM      6  C   LIG A   1      -8.429   0.734 126.282  0.00  0.00    +0.003 C 
ATOM      7  C   LIG A   1      -8.920   1.712 125.243  0.00  0.00    +0.052 C 
ATOM      8  C   LIG A   1      -8.302   1.461 123.850  0.00  0.00    +0.023 C 
ATOM      9  C   LIG A   1      -9.023   2.363 122.825  0.00  0.00    +0.019 C 
ATOM     10  C   LIG A   1      -8.532  -0.021 123.498  0.00  0.00    +0.195 C 
ATOM     11  C   LIG A   1      -7.943  -0.498 126.022  0.00  0.00    +0.010 C 
ATOM     12  C   LIG A   1      -8.031  -0.969 124.590  0.00  0.00    +0.189 C 
ATOM     13  O   LIG A   1      -7.809  -2.147 124.300  0.00  0.00    -0.290 OA
ATOM     14  O   LIG A   1      -9.009   2.314 127.947  0.00  0.00    -0.292 OA
ATOM     15  C   LIG A   1      -6.348  -1.468 129.541  0.00  0.00    -0.031 C 
ATOM     16  C   LIG A   1      -5.353  -0.556 130.305  0.00  0.00    +0.011 C 
ATOM     17  C   LIG A   1      -7.373  -1.964 130.581  0.00  0.00    +0.011 C 
ATOM     18  C   LIG A   1      -5.563  -2.689 128.997  0.00  0.00    +0.007 C 
ATOM     19  C   LIG A   1      -4.991  -2.429 127.614  0.00  0.00    +0.001 C 
ATOM     20  C   LIG A   1      -6.077  -2.166 126.567  0.00  0.00    +0.012 C 
ENDROOT
BRANCH   8  21
ATOM     21  C   LIG A   1      -6.831   1.901 123.859  0.00  0.00    -0.025 C 
ATOM     22  C   LIG A   1      -6.323   3.114 123.596  0.00  0.00    +0.004 C 
ENDBRANCH   8  21
BRANCH  10  23
ATOM     23  O   LIG A   1      -9.922  -0.307 123.301  0.00  0.00    -0.383 OA
ATOM     24  H   LIG A   1     -10.379   0.001 124.106  0.00  0.00    +0.210 HD
ENDBRANCH  10  23
TORSDOF 2
ENDMDL
