MODEL 1
REMARK VINA RESULT:      -8.5      0.000      0.000
REMARK  Name = NuBBE_1720
REMARK  6 active torsions:
REMARK  status: ('A' for Active; 'I' for Inactive)
REMARK    1  A    between atoms: O_1  and  C_2
REMARK    2  A    between atoms: O_1  and  C_3
REMARK    3  A    between atoms: C_10  and  C_13
REMARK    4  A    between atoms: C_10  and  C_14
REMARK    5  A    between atoms: C_21  and  O_25
REMARK    6  A    between atoms: C_22  and  O_24
REMARK                            x       y       z     vdW  Elec       q    Type
REMARK                         _______ _______ _______ _____ _____    ______ ____
ROOT
ATOM      1  C   LIG A   1      -6.963   5.434 133.454  0.00  0.00    +0.138 A 
ATOM      2  C   LIG A   1      -7.737   5.996 132.418  0.00  0.00    +0.107 A 
ATOM      3  C   LIG A   1      -7.115   6.703 131.378  0.00  0.00    +0.153 A 
ATOM      4  C   LIG A   1      -5.717   6.862 131.359  0.00  0.00    +0.060 A 
ATOM      5  C   LIG A   1      -4.959   6.310 132.393  0.00  0.00    +0.136 A 
ATOM      6  C   LIG A   1      -5.574   5.595 133.422  0.00  0.00    +0.092 A 
ATOM      7  O   LIG A   1      -3.596   6.393 132.471  0.00  0.00    -0.481 OA
ATOM      8  C   LIG A   1      -2.912   7.322 131.606  0.00  0.00    +0.123 C 
ATOM      9  C   LIG A   1      -3.711   7.788 130.413  0.00  0.00    +0.020 C 
ATOM     10  C   LIG A   1      -5.023   7.573 130.287  0.00  0.00    +0.015 C 
ATOM     11  C   LIG A   1      -1.653   6.594 131.120  0.00  0.00    +0.060 C 
ATOM     12  C   LIG A   1      -2.511   8.530 132.462  0.00  0.00    +0.060 C 
ATOM     13  O   LIG A   1      -7.804   7.281 130.332  0.00  0.00    -0.454 OA
ATOM     14  C   LIG A   1      -9.169   7.210 130.312  0.00  0.00    +0.143 A 
ATOM     15  C   LIG A   1      -9.921   6.543 131.275  0.00  0.00    +0.068 A 
ATOM     16  C   LIG A   1      -9.217   5.878 132.380  0.00  0.00    +0.204 A 
ATOM     17  O   LIG A   1      -9.880   5.269 133.210  0.00  0.00    -0.286 OA
ATOM     18  C   LIG A   1     -11.321   6.508 131.200  0.00  0.00    +0.064 A 
ATOM     19  C   LIG A   1     -11.950   7.155 130.145  0.00  0.00    +0.159 A 
ATOM     20  C   LIG A   1     -11.197   7.822 129.180  0.00  0.00    +0.162 A 
ATOM     21  C   LIG A   1      -9.812   7.855 129.254  0.00  0.00    +0.096 A 
ENDROOT
BRANCH   1  22
ATOM     22  O   LIG A   1      -7.616   4.750 134.442  0.00  0.00    -0.494 OA
ATOM     23  C   LIG A   1      -7.543   5.242 135.773  0.00  0.00    +0.277 C 
ENDBRANCH   1  22
BRANCH  20  24
ATOM     24  O   LIG A   1     -11.824   8.456 128.147  0.00  0.00    -0.503 OA
ATOM     25  H   LIG A   1     -12.736   8.610 128.465  0.00  0.00    +0.292 HD
ENDBRANCH  20  24
BRANCH  19  26
ATOM     26  O   LIG A   1     -13.309   7.164 130.010  0.00  0.00    -0.503 OA
ATOM     27  H   LIG A   1     -13.620   8.081 130.116  0.00  0.00    +0.292 HD
ENDBRANCH  19  26
TORSDOF 3
ENDMDL
MODEL 2
REMARK VINA RESULT:      -8.1      7.996      9.115
REMARK  Name = NuBBE_1720
REMARK  6 active torsions:
REMARK  status: ('A' for Active; 'I' for Inactive)
REMARK    1  A    between atoms: O_1  and  C_2
REMARK    2  A    between atoms: O_1  and  C_3
REMARK    3  A    between atoms: C_10  and  C_13
REMARK    4  A    between atoms: C_10  and  C_14
REMARK    5  A    between atoms: C_21  and  O_25
REMARK    6  A    between atoms: C_22  and  O_24
REMARK                            x       y       z     vdW  Elec       q    Type
REMARK                         _______ _______ _______ _____ _____    ______ ____
ROOT
ATOM      1  C   LIG A   1      -8.217   2.303 125.346  0.00  0.00    +0.138 A 
ATOM      2  C   LIG A   1      -7.512   2.853 124.256  0.00  0.00    +0.107 A 
ATOM      3  C   LIG A   1      -6.213   3.354 124.438  0.00  0.00    +0.153 A 
ATOM      4  C   LIG A   1      -5.605   3.316 125.706  0.00  0.00    +0.060 A 
ATOM      5  C   LIG A   1      -6.314   2.777 126.781  0.00  0.00    +0.136 A 
ATOM      6  C   LIG A   1      -7.601   2.267 126.600  0.00  0.00    +0.092 A 
ATOM      7  O   LIG A   1      -5.819   2.680 128.052  0.00  0.00    -0.481 OA
ATOM      8  C   LIG A   1      -4.619   3.410 128.382  0.00  0.00    +0.123 C 
ATOM      9  C   LIG A   1      -3.797   3.853 127.195  0.00  0.00    +0.020 C 
ATOM     10  C   LIG A   1      -4.249   3.807 125.939  0.00  0.00    +0.015 C 
ATOM     11  C   LIG A   1      -3.782   2.468 129.256  0.00  0.00    +0.060 C 
ATOM     12  C   LIG A   1      -5.042   4.635 129.202  0.00  0.00    +0.060 C 
ATOM     13  O   LIG A   1      -5.462   3.907 123.422  0.00  0.00    -0.454 OA
ATOM     14  C   LIG A   1      -6.009   4.023 122.174  0.00  0.00    +0.143 A 
ATOM     15  C   LIG A   1      -7.284   3.572 121.846  0.00  0.00    +0.068 A 
ATOM     16  C   LIG A   1      -8.096   2.936 122.893  0.00  0.00    +0.204 A 
ATOM     17  O   LIG A   1      -9.206   2.515 122.593  0.00  0.00    -0.286 OA
ATOM     18  C   LIG A   1      -7.789   3.722 120.547  0.00  0.00    +0.064 A 
ATOM     19  C   LIG A   1      -6.995   4.333 119.587  0.00  0.00    +0.159 A 
ATOM     20  C   LIG A   1      -5.718   4.785 119.915  0.00  0.00    +0.162 A 
ATOM     21  C   LIG A   1      -5.217   4.635 121.201  0.00  0.00    +0.096 A 
ENDROOT
BRANCH   1  22
ATOM     22  O   LIG A   1      -9.477   1.824 125.116  0.00  0.00    -0.494 OA
ATOM     23  C   LIG A   1      -9.778   0.489 125.496  0.00  0.00    +0.277 C 
ENDBRANCH   1  22
BRANCH  20  24
ATOM     24  O   LIG A   1      -4.944   5.386 118.966  0.00  0.00    -0.503 OA
ATOM     25  H   LIG A   1      -4.159   4.808 118.881  0.00  0.00    +0.292 HD
ENDBRANCH  20  24
BRANCH  19  26
ATOM     26  O   LIG A   1      -7.424   4.515 118.303  0.00  0.00    -0.503 OA
ATOM     27  H   LIG A   1      -8.258   5.017 118.328  0.00  0.00    +0.292 HD
ENDBRANCH  19  26
TORSDOF 3
ENDMDL
MODEL 3
REMARK VINA RESULT:      -7.7      9.221     10.124
REMARK  Name = NuBBE_1720
REMARK  6 active torsions:
REMARK  status: ('A' for Active; 'I' for Inactive)
REMARK    1  A    between atoms: O_1  and  C_2
REMARK    2  A    between atoms: O_1  and  C_3
REMARK    3  A    between atoms: C_10  and  C_13
REMARK    4  A    between atoms: C_10  and  C_14
REMARK    5  A    between atoms: C_21  and  O_25
REMARK    6  A    between atoms: C_22  and  O_24
REMARK                            x       y       z     vdW  Elec       q    Type
REMARK                         _______ _______ _______ _____ _____    ______ ____
ROOT
ATOM      1  C   LIG A   1      -8.847  -2.322 125.824  0.00  0.00    +0.138 A 
ATOM      2  C   LIG A   1      -8.274  -1.080 125.483  0.00  0.00    +0.107 A 
ATOM      3  C   LIG A   1      -7.222  -0.555 126.252  0.00  0.00    +0.153 A 
ATOM      4  C   LIG A   1      -6.734  -1.258 127.369  0.00  0.00    +0.060 A 
ATOM      5  C   LIG A   1      -7.314  -2.483 127.703  0.00  0.00    +0.136 A 
ATOM      6  C   LIG A   1      -8.351  -3.014 126.933  0.00  0.00    +0.092 A 
ATOM      7  O   LIG A   1      -6.914  -3.255 128.759  0.00  0.00    -0.481 OA
ATOM      8  C   LIG A   1      -6.042  -2.672 129.748  0.00  0.00    +0.123 C 
ATOM      9  C   LIG A   1      -5.315  -1.427 129.301  0.00  0.00    +0.020 C 
ATOM     10  C   LIG A   1      -5.630  -0.762 128.186  0.00  0.00    +0.015 C 
ATOM     11  C   LIG A   1      -5.018  -3.759 130.096  0.00  0.00    +0.060 C 
ATOM     12  C   LIG A   1      -6.898  -2.356 130.981  0.00  0.00    +0.060 C 
ATOM     13  O   LIG A   1      -6.612   0.652 125.982  0.00  0.00    -0.454 OA
ATOM     14  C   LIG A   1      -7.068   1.413 124.942  0.00  0.00    +0.143 A 
ATOM     15  C   LIG A   1      -8.101   1.022 124.096  0.00  0.00    +0.068 A 
ATOM     16  C   LIG A   1      -8.746  -0.278 124.326  0.00  0.00    +0.204 A 
ATOM     17  O   LIG A   1      -9.635  -0.630 123.562  0.00  0.00    -0.286 OA
ATOM     18  C   LIG A   1      -8.525   1.850 123.046  0.00  0.00    +0.064 A 
ATOM     19  C   LIG A   1      -7.897   3.074 122.865  0.00  0.00    +0.159 A 
ATOM     20  C   LIG A   1      -6.863   3.466 123.712  0.00  0.00    +0.162 A 
ATOM     21  C   LIG A   1      -6.441   2.646 124.749  0.00  0.00    +0.096 A 
ENDROOT
BRANCH   1  22
ATOM     22  O   LIG A   1      -9.865  -2.792 125.041  0.00  0.00    -0.494 OA
ATOM     23  C   LIG A   1      -9.558  -3.719 124.009  0.00  0.00    +0.277 C 
ENDBRANCH   1  22
BRANCH  20  24
ATOM     24  O   LIG A   1      -6.251   4.671 123.527  0.00  0.00    -0.503 OA
ATOM     25  H   LIG A   1      -6.907   5.213 123.044  0.00  0.00    +0.292 HD
ENDBRANCH  20  24
BRANCH  19  26
ATOM     26  O   LIG A   1      -8.261   3.932 121.866  0.00  0.00    -0.503 OA
ATOM     27  H   LIG A   1      -7.494   4.495 121.653  0.00  0.00    +0.292 HD
ENDBRANCH  19  26
TORSDOF 3
ENDMDL
MODEL 4
REMARK VINA RESULT:      -7.6      8.569      9.569
REMARK  Name = NuBBE_1720
REMARK  6 active torsions:
REMARK  status: ('A' for Active; 'I' for Inactive)
REMARK    1  A    between atoms: O_1  and  C_2
REMARK    2  A    between atoms: O_1  and  C_3
REMARK    3  A    between atoms: C_10  and  C_13
REMARK    4  A    between atoms: C_10  and  C_14
REMARK    5  A    between atoms: C_21  and  O_25
REMARK    6  A    between atoms: C_22  and  O_24
REMARK                            x       y       z     vdW  Elec       q    Type
REMARK                         _______ _______ _______ _____ _____    ______ ____
ROOT
ATOM      1  C   LIG A   1      -6.391   3.157 123.821  0.00  0.00    +0.138 A 
ATOM      2  C   LIG A   1      -6.763   1.912 124.367  0.00  0.00    +0.107 A 
ATOM      3  C   LIG A   1      -6.187   1.469 125.569  0.00  0.00    +0.153 A 
ATOM      4  C   LIG A   1      -5.233   2.259 126.237  0.00  0.00    +0.060 A 
ATOM      5  C   LIG A   1      -4.864   3.487 125.684  0.00  0.00    +0.136 A 
ATOM      6  C   LIG A   1      -5.445   3.935 124.496  0.00  0.00    +0.092 A 
ATOM      7  O   LIG A   1      -3.957   4.339 126.250  0.00  0.00    -0.481 OA
ATOM      8  C   LIG A   1      -3.127   3.848 127.323  0.00  0.00    +0.123 C 
ATOM      9  C   LIG A   1      -3.633   2.596 127.998  0.00  0.00    +0.020 C 
ATOM     10  C   LIG A   1      -4.622   1.850 127.499  0.00  0.00    +0.015 C 
ATOM     11  C   LIG A   1      -3.054   4.984 128.350  0.00  0.00    +0.060 C 
ATOM     12  C   LIG A   1      -1.733   3.591 126.738  0.00  0.00    +0.060 C 
ATOM     13  O   LIG A   1      -6.500   0.265 126.164  0.00  0.00    -0.454 OA
ATOM     14  C   LIG A   1      -7.381  -0.577 125.545  0.00  0.00    +0.143 A 
ATOM     15  C   LIG A   1      -8.028  -0.273 124.351  0.00  0.00    +0.068 A 
ATOM     16  C   LIG A   1      -7.754   1.021 123.711  0.00  0.00    +0.204 A 
ATOM     17  O   LIG A   1      -8.347   1.296 122.676  0.00  0.00    -0.286 OA
ATOM     18  C   LIG A   1      -8.922  -1.181 123.764  0.00  0.00    +0.064 A 
ATOM     19  C   LIG A   1      -9.150  -2.396 124.394  0.00  0.00    +0.159 A 
ATOM     20  C   LIG A   1      -8.502  -2.701 125.590  0.00  0.00    +0.162 A 
ATOM     21  C   LIG A   1      -7.620  -1.801 126.172  0.00  0.00    +0.096 A 
ENDROOT
BRANCH   1  22
ATOM     22  O   LIG A   1      -6.983   3.545 122.651  0.00  0.00    -0.494 OA
ATOM     23  C   LIG A   1      -6.163   3.762 121.512  0.00  0.00    +0.277 C 
ENDBRANCH   1  22
BRANCH  20  24
ATOM     24  O   LIG A   1      -8.732  -3.898 126.202  0.00  0.00    -0.503 OA
ATOM     25  H   LIG A   1      -9.680  -3.877 126.445  0.00  0.00    +0.292 HD
ENDBRANCH  20  24
BRANCH  19  26
ATOM     26  O   LIG A   1     -10.004  -3.329 123.878  0.00  0.00    -0.503 OA
ATOM     27  H   LIG A   1      -9.849  -4.173 124.339  0.00  0.00    +0.292 HD
ENDBRANCH  19  26
TORSDOF 3
ENDMDL
MODEL 5
REMARK VINA RESULT:      -7.2      7.881      9.520
REMARK  Name = NuBBE_1720
REMARK  6 active torsions:
REMARK  status: ('A' for Active; 'I' for Inactive)
REMARK    1  A    between atoms: O_1  and  C_2
REMARK    2  A    between atoms: O_1  and  C_3
REMARK    3  A    between atoms: C_10  and  C_13
REMARK    4  A    between atoms: C_10  and  C_14
REMARK    5  A    between atoms: C_21  and  O_25
REMARK    6  A    between atoms: C_22  and  O_24
REMARK                            x       y       z     vdW  Elec       q    Type
REMARK                         _______ _______ _______ _____ _____    ______ ____
ROOT
ATOM      1  C   LIG A   1      -8.263   2.268 125.797  0.00  0.00    +0.138 A 
ATOM      2  C   LIG A   1      -8.128   1.629 127.046  0.00  0.00    +0.107 A 
ATOM      3  C   LIG A   1      -7.755   0.277 127.110  0.00  0.00    +0.153 A 
ATOM      4  C   LIG A   1      -7.515  -0.453 125.931  0.00  0.00    +0.060 A 
ATOM      5  C   LIG A   1      -7.659   0.186 124.698  0.00  0.00    +0.136 A 
ATOM      6  C   LIG A   1      -8.018   1.534 124.632  0.00  0.00    +0.092 A 
ATOM      7  O   LIG A   1      -7.442  -0.421 123.492  0.00  0.00    -0.481 OA
ATOM      8  C   LIG A   1      -7.327  -1.859 123.455  0.00  0.00    +0.123 C 
ATOM      9  C   LIG A   1      -7.024  -2.507 124.785  0.00  0.00    +0.020 C 
ATOM     10  C   LIG A   1      -7.105  -1.855 125.947  0.00  0.00    +0.015 C 
ATOM     11  C   LIG A   1      -6.189  -2.162 122.472  0.00  0.00    +0.060 C 
ATOM     12  C   LIG A   1      -8.647  -2.407 122.901  0.00  0.00    +0.060 C 
ATOM     13  O   LIG A   1      -7.604  -0.416 128.293  0.00  0.00    -0.454 OA
ATOM     14  C   LIG A   1      -7.870   0.216 129.475  0.00  0.00    +0.143 A 
ATOM     15  C   LIG A   1      -8.250   1.552 129.567  0.00  0.00    +0.068 A 
ATOM     16  C   LIG A   1      -8.377   2.334 128.330  0.00  0.00    +0.204 A 
ATOM     17  O   LIG A   1      -8.684   3.516 128.417  0.00  0.00    -0.286 OA
ATOM     18  C   LIG A   1      -8.511   2.143 130.812  0.00  0.00    +0.064 A 
ATOM     19  C   LIG A   1      -8.387   1.370 131.958  0.00  0.00    +0.159 A 
ATOM     20  C   LIG A   1      -8.006   0.033 131.866  0.00  0.00    +0.162 A 
ATOM     21  C   LIG A   1      -7.746  -0.552 130.634  0.00  0.00    +0.096 A 
ENDROOT
BRANCH   1  22
ATOM     22  O   LIG A   1      -8.624   3.587 125.789  0.00  0.00    -0.494 OA
ATOM     23  C   LIG A   1      -7.682   4.549 125.335  0.00  0.00    +0.277 C 
ENDBRANCH   1  22
BRANCH  20  24
ATOM     24  O   LIG A   1      -7.887  -0.720 132.998  0.00  0.00    -0.503 OA
ATOM     25  H   LIG A   1      -7.732  -1.631 132.676  0.00  0.00    +0.292 HD
ENDBRANCH  20  24
BRANCH  19  26
ATOM     26  O   LIG A   1      -8.628   1.879 133.202  0.00  0.00    -0.503 OA
ATOM     27  H   LIG A   1      -7.786   2.204 133.568  0.00  0.00    +0.292 HD
ENDBRANCH  19  26
TORSDOF 3
ENDMDL
MODEL 6
REMARK VINA RESULT:      -7.2      7.995     10.191
REMARK  Name = NuBBE_1720
REMARK  6 active torsions:
REMARK  status: ('A' for Active; 'I' for Inactive)
REMARK    1  A    between atoms: O_1  and  C_2
REMARK    2  A    between atoms: O_1  and  C_3
REMARK    3  A    between atoms: C_10  and  C_13
REMARK    4  A    between atoms: C_10  and  C_14
REMARK    5  A    between atoms: C_21  and  O_25
REMARK    6  A    between atoms: C_22  and  O_24
REMARK                            x       y       z     vdW  Elec       q    Type
REMARK                         _______ _______ _______ _____ _____    ______ ____
ROOT
ATOM      1  C   LIG A   1      -7.091   2.175 123.675  0.00  0.00    +0.138 A 
ATOM      2  C   LIG A   1      -6.269   2.480 124.778  0.00  0.00    +0.107 A 
ATOM      3  C   LIG A   1      -5.884   1.468 125.672  0.00  0.00    +0.153 A 
ATOM      4  C   LIG A   1      -6.318   0.143 125.478  0.00  0.00    +0.060 A 
ATOM      5  C   LIG A   1      -7.139  -0.148 124.388  0.00  0.00    +0.136 A 
ATOM      6  C   LIG A   1      -7.513   0.855 123.491  0.00  0.00    +0.092 A 
ATOM      7  O   LIG A   1      -7.611  -1.398 124.097  0.00  0.00    -0.481 OA
ATOM      8  C   LIG A   1      -7.494  -2.429 125.100  0.00  0.00    +0.123 C 
ATOM      9  C   LIG A   1      -6.487  -2.147 126.189  0.00  0.00    +0.020 C 
ATOM     10  C   LIG A   1      -5.928  -0.947 126.369  0.00  0.00    +0.015 C 
ATOM     11  C   LIG A   1      -7.085  -3.701 124.348  0.00  0.00    +0.060 C 
ATOM     12  C   LIG A   1      -8.884  -2.620 125.719  0.00  0.00    +0.060 C 
ATOM     13  O   LIG A   1      -5.083   1.688 126.773  0.00  0.00    -0.454 OA
ATOM     14  C   LIG A   1      -4.667   2.960 127.051  0.00  0.00    +0.143 A 
ATOM     15  C   LIG A   1      -4.969   4.062 126.257  0.00  0.00    +0.068 A 
ATOM     16  C   LIG A   1      -5.783   3.858 125.051  0.00  0.00    +0.204 A 
ATOM     17  O   LIG A   1      -6.024   4.825 124.340  0.00  0.00    -0.286 OA
ATOM     18  C   LIG A   1      -4.513   5.343 126.598  0.00  0.00    +0.064 A 
ATOM     19  C   LIG A   1      -3.752   5.497 127.748  0.00  0.00    +0.159 A 
ATOM     20  C   LIG A   1      -3.448   4.394 128.544  0.00  0.00    +0.162 A 
ATOM     21  C   LIG A   1      -3.898   3.126 128.205  0.00  0.00    +0.096 A 
ENDROOT
BRANCH   1  22
ATOM     22  O   LIG A   1      -7.434   3.196 122.831  0.00  0.00    -0.494 OA
ATOM     23  C   LIG A   1      -8.637   3.088 122.085  0.00  0.00    +0.277 C 
ENDBRANCH   1  22
BRANCH  20  24
ATOM     24  O   LIG A   1      -2.700   4.555 129.673  0.00  0.00    -0.503 OA
ATOM     25  H   LIG A   1      -1.781   4.369 129.393  0.00  0.00    +0.292 HD
ENDBRANCH  20  24
BRANCH  19  26
ATOM     26  O   LIG A   1      -3.277   6.716 128.142  0.00  0.00    -0.503 OA
ATOM     27  H   LIG A   1      -3.802   7.406 127.699  0.00  0.00    +0.292 HD
ENDBRANCH  19  26
TORSDOF 3
ENDMDL
MODEL 7
REMARK VINA RESULT:      -7.2      3.839      7.012
REMARK  Name = NuBBE_1720
REMARK  6 active torsions:
REMARK  status: ('A' for Active; 'I' for Inactive)
REMARK    1  A    between atoms: O_1  and  C_2
REMARK    2  A    between atoms: O_1  and  C_3
REMARK    3  A    between atoms: C_10  and  C_13
REMARK    4  A    between atoms: C_10  and  C_14
REMARK    5  A    between atoms: C_21  and  O_25
REMARK    6  A    between atoms: C_22  and  O_24
REMARK                            x       y       z     vdW  Elec       q    Type
REMARK                         _______ _______ _______ _____ _____    ______ ____
ROOT
ATOM      1  C   LIG A   1      -9.912   4.651 131.140  0.00  0.00    +0.138 A 
ATOM      2  C   LIG A   1      -9.048   4.493 130.038  0.00  0.00    +0.107 A 
ATOM      3  C   LIG A   1      -9.215   5.287 128.892  0.00  0.00    +0.153 A 
ATOM      4  C   LIG A   1     -10.246   6.244 128.831  0.00  0.00    +0.060 A 
ATOM      5  C   LIG A   1     -11.101   6.387 129.925  0.00  0.00    +0.136 A 
ATOM      6  C   LIG A   1     -10.929   5.607 131.070  0.00  0.00    +0.092 A 
ATOM      7  O   LIG A   1     -12.128   7.289 129.979  0.00  0.00    -0.481 OA
ATOM      8  C   LIG A   1     -12.537   7.942 128.760  0.00  0.00    +0.123 C 
ATOM      9  C   LIG A   1     -11.524   7.895 127.642  0.00  0.00    +0.020 C 
ATOM     10  C   LIG A   1     -10.446   7.106 127.669  0.00  0.00    +0.015 C 
ATOM     11  C   LIG A   1     -12.808   9.403 129.138  0.00  0.00    +0.060 C 
ATOM     12  C   LIG A   1     -13.841   7.278 128.304  0.00  0.00    +0.060 C 
ATOM     13  O   LIG A   1      -8.412   5.191 127.775  0.00  0.00    -0.454 OA
ATOM     14  C   LIG A   1      -7.422   4.248 127.745  0.00  0.00    +0.143 A 
ATOM     15  C   LIG A   1      -7.140   3.391 128.804  0.00  0.00    +0.068 A 
ATOM     16  C   LIG A   1      -7.947   3.496 130.028  0.00  0.00    +0.204 A 
ATOM     17  O   LIG A   1      -7.677   2.760 130.968  0.00  0.00    -0.286 OA
ATOM     18  C   LIG A   1      -6.111   2.443 128.710  0.00  0.00    +0.064 A 
ATOM     19  C   LIG A   1      -5.375   2.369 127.536  0.00  0.00    +0.159 A 
ATOM     20  C   LIG A   1      -5.657   3.227 126.474  0.00  0.00    +0.162 A 
ATOM     21  C   LIG A   1      -6.674   4.168 126.568  0.00  0.00    +0.096 A 
ENDROOT
BRANCH   1  22
ATOM     22  O   LIG A   1      -9.704   3.856 132.234  0.00  0.00    -0.494 OA
ATOM     23  C   LIG A   1      -9.305   4.467 133.453  0.00  0.00    +0.277 C 
ENDBRANCH   1  22
BRANCH  20  24
ATOM     24  O   LIG A   1      -4.930   3.148 125.323  0.00  0.00    -0.503 OA
ATOM     25  H   LIG A   1      -4.546   4.041 125.208  0.00  0.00    +0.292 HD
ENDBRANCH  20  24
BRANCH  19  26
ATOM     26  O   LIG A   1      -4.362   1.468 127.373  0.00  0.00    -0.503 OA
ATOM     27  H   LIG A   1      -4.754   0.582 127.275  0.00  0.00    +0.292 HD
ENDBRANCH  19  26
TORSDOF 3
ENDMDL
MODEL 8
REMARK VINA RESULT:      -7.0      3.704      4.146
REMARK  Name = NuBBE_1720
REMARK  6 active torsions:
REMARK  status: ('A' for Active; 'I' for Inactive)
REMARK    1  A    between atoms: O_1  and  C_2
REMARK    2  A    between atoms: O_1  and  C_3
REMARK    3  A    between atoms: C_10  and  C_13
REMARK    4  A    between atoms: C_10  and  C_14
REMARK    5  A    between atoms: C_21  and  O_25
REMARK    6  A    between atoms: C_22  and  O_24
REMARK                            x       y       z     vdW  Elec       q    Type
REMARK                         _______ _______ _______ _____ _____    ______ ____
ROOT
ATOM      1  C   LIG A   1      -7.959   3.110 130.961  0.00  0.00    +0.138 A 
ATOM      2  C   LIG A   1      -8.669   4.151 130.328  0.00  0.00    +0.107 A 
ATOM      3  C   LIG A   1      -8.382   4.491 128.996  0.00  0.00    +0.153 A 
ATOM      4  C   LIG A   1      -7.384   3.802 128.283  0.00  0.00    +0.060 A 
ATOM      5  C   LIG A   1      -6.680   2.779 128.921  0.00  0.00    +0.136 A 
ATOM      6  C   LIG A   1      -6.972   2.430 130.241  0.00  0.00    +0.092 A 
ATOM      7  O   LIG A   1      -5.699   2.038 128.322  0.00  0.00    -0.481 OA
ATOM      8  C   LIG A   1      -5.158   2.496 127.066  0.00  0.00    +0.123 C 
ATOM      9  C   LIG A   1      -6.018   3.495 126.330  0.00  0.00    +0.020 C 
ATOM     10  C   LIG A   1      -7.064   4.107 126.890  0.00  0.00    +0.015 C 
ATOM     11  C   LIG A   1      -4.986   1.241 126.202  0.00  0.00    +0.060 C 
ATOM     12  C   LIG A   1      -3.785   3.113 127.359  0.00  0.00    +0.060 C 
ATOM     13  O   LIG A   1      -9.032   5.496 128.311  0.00  0.00    -0.454 OA
ATOM     14  C   LIG A   1      -9.979   6.241 128.958  0.00  0.00    +0.143 A 
ATOM     15  C   LIG A   1     -10.366   6.019 130.276  0.00  0.00    +0.068 A 
ATOM     16  C   LIG A   1      -9.727   4.928 131.023  0.00  0.00    +0.204 A 
ATOM     17  O   LIG A   1     -10.090   4.718 132.173  0.00  0.00    -0.286 OA
ATOM     18  C   LIG A   1     -11.343   6.820 130.884  0.00  0.00    +0.064 A 
ATOM     19  C   LIG A   1     -11.920   7.846 130.148  0.00  0.00    +0.159 A 
ATOM     20  C   LIG A   1     -11.532   8.068 128.828  0.00  0.00    +0.162 A 
ATOM     21  C   LIG A   1     -10.567   7.273 128.225  0.00  0.00    +0.096 A 
ENDROOT
BRANCH   1  22
ATOM     22  O   LIG A   1      -8.278   2.814 132.257  0.00  0.00    -0.494 OA
ATOM     23  C   LIG A   1      -7.230   2.705 133.209  0.00  0.00    +0.277 C 
ENDBRANCH   1  22
BRANCH  20  24
ATOM     24  O   LIG A   1     -12.104   9.079 128.112  0.00  0.00    -0.503 OA
ATOM     25  H   LIG A   1     -11.767   8.960 127.200  0.00  0.00    +0.292 HD
ENDBRANCH  20  24
BRANCH  19  26
ATOM     26  O   LIG A   1     -12.875   8.667 130.677  0.00  0.00    -0.503 OA
ATOM     27  H   LIG A   1     -12.774   9.549 130.277  0.00  0.00    +0.292 HD
ENDBRANCH  19  26
TORSDOF 3
ENDMDL
MODEL 9
REMARK VINA RESULT:      -7.0      8.633     10.357
REMARK  Name = NuBBE_1720
REMARK  6 active torsions:
REMARK  status: ('A' for Active; 'I' for Inactive)
REMARK    1  A    between atoms: O_1  and  C_2
REMARK    2  A    between atoms: O_1  and  C_3
REMARK    3  A    between atoms: C_10  and  C_13
REMARK    4  A    between atoms: C_10  and  C_14
REMARK    5  A    between atoms: C_21  and  O_25
REMARK    6  A    between atoms: C_22  and  O_24
REMARK                            x       y       z     vdW  Elec       q    Type
REMARK                         _______ _______ _______ _____ _____    ______ ____
ROOT
ATOM      1  C   LIG A   1      -8.256   1.134 127.347  0.00  0.00    +0.138 A 
ATOM      2  C   LIG A   1      -7.926   0.126 128.276  0.00  0.00    +0.107 A 
ATOM      3  C   LIG A   1      -7.522  -1.141 127.827  0.00  0.00    +0.153 A 
ATOM      4  C   LIG A   1      -7.446  -1.419 126.450  0.00  0.00    +0.060 A 
ATOM      5  C   LIG A   1      -7.783  -0.418 125.537  0.00  0.00    +0.136 A 
ATOM      6  C   LIG A   1      -8.173   0.847 125.981  0.00  0.00    +0.092 A 
ATOM      7  O   LIG A   1      -7.736  -0.574 124.180  0.00  0.00    -0.481 OA
ATOM      8  C   LIG A   1      -7.601  -1.906 123.642  0.00  0.00    +0.123 C 
ATOM      9  C   LIG A   1      -7.093  -2.937 124.621  0.00  0.00    +0.020 C 
ATOM     10  C   LIG A   1      -7.013  -2.716 125.935  0.00  0.00    +0.015 C 
ATOM     11  C   LIG A   1      -6.617  -1.787 122.473  0.00  0.00    +0.060 C 
ATOM     12  C   LIG A   1      -8.978  -2.327 123.117  0.00  0.00    +0.060 C 
ATOM     13  O   LIG A   1      -7.185  -2.176 128.674  0.00  0.00    -0.454 OA
ATOM     14  C   LIG A   1      -7.284  -1.993 130.025  0.00  0.00    +0.143 A 
ATOM     15  C   LIG A   1      -7.671  -0.793 130.614  0.00  0.00    +0.068 A 
ATOM     16  C   LIG A   1      -7.995   0.346 129.744  0.00  0.00    +0.204 A 
ATOM     17  O   LIG A   1      -8.308   1.408 130.266  0.00  0.00    -0.286 OA
ATOM     18  C   LIG A   1      -7.755  -0.669 132.008  0.00  0.00    +0.064 A 
ATOM     19  C   LIG A   1      -7.448  -1.769 132.797  0.00  0.00    +0.159 A 
ATOM     20  C   LIG A   1      -7.061  -2.970 132.207  0.00  0.00    +0.162 A 
ATOM     21  C   LIG A   1      -6.975  -3.093 130.828  0.00  0.00    +0.096 A 
ENDROOT
BRANCH   1  22
ATOM     22  O   LIG A   1      -8.640   2.353 127.835  0.00  0.00    -0.494 OA
ATOM     23  C   LIG A   1      -7.855   3.492 127.514  0.00  0.00    +0.277 C 
ENDBRANCH   1  22
BRANCH  20  24
ATOM     24  O   LIG A   1      -6.761  -4.047 132.990  0.00  0.00    -0.503 OA
ATOM     25  H   LIG A   1      -7.477  -4.079 133.656  0.00  0.00    +0.292 HD
ENDBRANCH  20  24
BRANCH  19  26
ATOM     26  O   LIG A   1      -7.512  -1.720 134.161  0.00  0.00    -0.503 OA
ATOM     27  H   LIG A   1      -8.415  -1.459 134.415  0.00  0.00    +0.292 HD
ENDBRANCH  19  26
TORSDOF 3
ENDMDL
