MODEL 1
REMARK VINA RESULT:      -5.6      0.000      0.000
REMARK  Name = NuBBE_397
REMARK  3 active torsions:
REMARK  status: ('A' for Active; 'I' for Inactive)
REMARK    1  A    between atoms: C_1  and  C_2
REMARK    2  A    between atoms: C_2  and  C_3
REMARK    3  A    between atoms: C_3  and  C_4
REMARK                            x       y       z     vdW  Elec       q    Type
REMARK                         _______ _______ _______ _____ _____    ______ ____
ROOT
ATOM      1  C   LIG A   1     -13.043   8.028 128.921  0.00  0.00    +0.180 C 
ATOM      2  O   LIG A   1     -11.733   7.863 129.508  0.00  0.00    -0.458 OA
ATOM      3  C   LIG A   1     -13.189   7.182 127.654  0.00  0.00    +0.072 C 
ATOM      4  C   LIG A   1     -11.995   7.345 126.772  0.00  0.00    -0.016 C 
ATOM      5  C   LIG A   1     -10.813   7.712 127.282  0.00  0.00    +0.087 C 
ATOM      6  C   LIG A   1     -10.621   7.912 128.731  0.00  0.00    +0.332 C 
ATOM      7  O   LIG A   1      -9.500   8.070 129.193  0.00  0.00    -0.246 OA
ENDROOT
BRANCH   1   8
ATOM      8  C   LIG A   1     -13.332   9.522 128.686  0.00  0.00    +0.045 C 
BRANCH   8  10
ATOM      9  C   LIG A   1     -13.812  11.724 129.817  0.00  0.00    +0.004 C 
ATOM     10  C   LIG A   1     -13.203  10.340 129.975  0.00  0.00    +0.000 C 
ENDBRANCH   8  10
ENDBRANCH   1   8
TORSDOF 2
ENDMDL
MODEL 2
REMARK VINA RESULT:      -5.3     12.125     13.633
REMARK  Name = NuBBE_397
REMARK  3 active torsions:
REMARK  status: ('A' for Active; 'I' for Inactive)
REMARK    1  A    between atoms: C_1  and  C_2
REMARK    2  A    between atoms: C_2  and  C_3
REMARK    3  A    between atoms: C_3  and  C_4
REMARK                            x       y       z     vdW  Elec       q    Type
REMARK                         _______ _______ _______ _____ _____    ______ ____
ROOT
ATOM      1  C   LIG A   1      -6.621  -1.806 124.342  0.00  0.00    +0.180 C 
ATOM      2  O   LIG A   1      -7.785  -1.761 125.198  0.00  0.00    -0.458 OA
ATOM      3  C   LIG A   1      -6.987  -1.461 122.896  0.00  0.00    +0.072 C 
ATOM      4  C   LIG A   1      -8.206  -2.211 122.470  0.00  0.00    -0.016 C 
ATOM      5  C   LIG A   1      -9.095  -2.643 123.372  0.00  0.00    +0.087 C 
ATOM      6  C   LIG A   1      -8.945  -2.350 124.810  0.00  0.00    +0.332 C 
ATOM      7  O   LIG A   1      -9.853  -2.597 125.593  0.00  0.00    -0.246 OA
ENDROOT
BRANCH   1   8
ATOM      8  C   LIG A   1      -5.918  -3.169 124.479  0.00  0.00    +0.045 C 
BRANCH   8  10
ATOM      9  C   LIG A   1      -4.233  -4.744 123.460  0.00  0.00    +0.004 C 
ATOM     10  C   LIG A   1      -4.761  -3.319 123.486  0.00  0.00    +0.000 C 
ENDBRANCH   8  10
ENDBRANCH   1   8
TORSDOF 2
ENDMDL
MODEL 3
REMARK VINA RESULT:      -5.2      2.225      4.039
REMARK  Name = NuBBE_397
REMARK  3 active torsions:
REMARK  status: ('A' for Active; 'I' for Inactive)
REMARK    1  A    between atoms: C_1  and  C_2
REMARK    2  A    between atoms: C_2  and  C_3
REMARK    3  A    between atoms: C_3  and  C_4
REMARK                            x       y       z     vdW  Elec       q    Type
REMARK                         _______ _______ _______ _____ _____    ______ ____
ROOT
ATOM      1  C   LIG A   1     -11.603   6.732 130.083  0.00  0.00    +0.180 C 
ATOM      2  O   LIG A   1     -12.016   6.224 128.794  0.00  0.00    -0.458 OA
ATOM      3  C   LIG A   1     -12.533   7.854 130.555  0.00  0.00    +0.072 C 
ATOM      4  C   LIG A   1     -12.778   8.833 129.454  0.00  0.00    -0.016 C 
ATOM      5  C   LIG A   1     -12.656   8.466 128.172  0.00  0.00    +0.087 C 
ATOM      6  C   LIG A   1     -12.338   7.078 127.790  0.00  0.00    +0.332 C 
ATOM      7  O   LIG A   1     -12.408   6.724 126.620  0.00  0.00    -0.246 OA
ENDROOT
BRANCH   1   8
ATOM      8  C   LIG A   1     -10.124   7.156 130.033  0.00  0.00    +0.045 C 
BRANCH   8  10
ATOM      9  C   LIG A   1      -7.837   6.852 131.052  0.00  0.00    +0.004 C 
ATOM     10  C   LIG A   1      -9.326   6.588 131.211  0.00  0.00    +0.000 C 
ENDBRANCH   8  10
ENDBRANCH   1   8
TORSDOF 2
ENDMDL
MODEL 4
REMARK VINA RESULT:      -4.9     11.619     13.512
REMARK  Name = NuBBE_397
REMARK  3 active torsions:
REMARK  status: ('A' for Active; 'I' for Inactive)
REMARK    1  A    between atoms: C_1  and  C_2
REMARK    2  A    between atoms: C_2  and  C_3
REMARK    3  A    between atoms: C_3  and  C_4
REMARK                            x       y       z     vdW  Elec       q    Type
REMARK                         _______ _______ _______ _____ _____    ______ ____
ROOT
ATOM      1  C   LIG A   1      -7.374  -3.187 123.923  0.00  0.00    +0.180 C 
ATOM      2  O   LIG A   1      -8.235  -2.053 123.674  0.00  0.00    -0.458 OA
ATOM      3  C   LIG A   1      -8.038  -4.185 124.876  0.00  0.00    +0.072 C 
ATOM      4  C   LIG A   1      -8.630  -3.476 126.050  0.00  0.00    -0.016 C 
ATOM      5  C   LIG A   1      -8.986  -2.189 125.964  0.00  0.00    +0.087 C 
ATOM      6  C   LIG A   1      -8.868  -1.434 124.702  0.00  0.00    +0.332 C 
ATOM      7  O   LIG A   1      -9.362  -0.319 124.597  0.00  0.00    -0.246 OA
ENDROOT
BRANCH   1   8
ATOM      8  C   LIG A   1      -5.997  -2.705 124.417  0.00  0.00    +0.045 C 
BRANCH   8  10
ATOM      9  C   LIG A   1      -4.425  -4.544 123.704  0.00  0.00    +0.004 C 
ATOM     10  C   LIG A   1      -4.872  -3.111 123.460  0.00  0.00    +0.000 C 
ENDBRANCH   8  10
ENDBRANCH   1   8
TORSDOF 2
ENDMDL
MODEL 5
REMARK VINA RESULT:      -4.8     12.641     13.059
REMARK  Name = NuBBE_397
REMARK  3 active torsions:
REMARK  status: ('A' for Active; 'I' for Inactive)
REMARK    1  A    between atoms: C_1  and  C_2
REMARK    2  A    between atoms: C_2  and  C_3
REMARK    3  A    between atoms: C_3  and  C_4
REMARK                            x       y       z     vdW  Elec       q    Type
REMARK                         _______ _______ _______ _____ _____    ______ ____
ROOT
ATOM      1  C   LIG A   1      -8.876  -3.696 124.560  0.00  0.00    +0.180 C 
ATOM      2  O   LIG A   1      -7.453  -3.950 124.510  0.00  0.00    -0.458 OA
ATOM      3  C   LIG A   1      -9.369  -3.071 123.252  0.00  0.00    +0.072 C 
ATOM      4  C   LIG A   1      -8.468  -1.959 122.827  0.00  0.00    -0.016 C 
ATOM      5  C   LIG A   1      -7.190  -1.924 123.225  0.00  0.00    +0.087 C 
ATOM      6  C   LIG A   1      -6.603  -3.001 124.044  0.00  0.00    +0.332 C 
ATOM      7  O   LIG A   1      -5.397  -3.040 124.245  0.00  0.00    -0.246 OA
ENDROOT
BRANCH   1   8
ATOM      8  C   LIG A   1      -9.217  -2.849 125.800  0.00  0.00    +0.045 C 
BRANCH   8  10
ATOM      9  C   LIG A   1      -7.941  -2.885 127.975  0.00  0.00    +0.004 C 
ATOM     10  C   LIG A   1      -8.953  -3.611 127.103  0.00  0.00    +0.000 C 
ENDBRANCH   8  10
ENDBRANCH   1   8
TORSDOF 2
ENDMDL
MODEL 6
REMARK VINA RESULT:      -4.7     11.901     12.768
REMARK  Name = NuBBE_397
REMARK  3 active torsions:
REMARK  status: ('A' for Active; 'I' for Inactive)
REMARK    1  A    between atoms: C_1  and  C_2
REMARK    2  A    between atoms: C_2  and  C_3
REMARK    3  A    between atoms: C_3  and  C_4
REMARK                            x       y       z     vdW  Elec       q    Type
REMARK                         _______ _______ _______ _____ _____    ______ ____
ROOT
ATOM      1  C   LIG A   1      -8.729  -2.370 126.547  0.00  0.00    +0.180 C 
ATOM      2  O   LIG A   1      -9.596  -2.419 125.392  0.00  0.00    -0.458 OA
ATOM      3  C   LIG A   1      -7.279  -2.105 126.136  0.00  0.00    +0.072 C 
ATOM      4  C   LIG A   1      -6.886  -2.984 124.994  0.00  0.00    -0.016 C 
ATOM      5  C   LIG A   1      -7.810  -3.478 124.161  0.00  0.00    +0.087 C 
ATOM      6  C   LIG A   1      -9.238  -3.131 124.294  0.00  0.00    +0.332 C 
ATOM      7  O   LIG A   1     -10.037  -3.446 123.422  0.00  0.00    -0.246 OA
ENDROOT
BRANCH   1   8
ATOM      8  C   LIG A   1      -8.894  -3.653 127.384  0.00  0.00    +0.045 C 
BRANCH   8  10
ATOM      9  C   LIG A   1      -8.193  -2.564 129.548  0.00  0.00    +0.004 C 
ATOM     10  C   LIG A   1      -7.921  -3.693 128.567  0.00  0.00    +0.000 C 
ENDBRANCH   8  10
ENDBRANCH   1   8
TORSDOF 2
ENDMDL
MODEL 7
REMARK VINA RESULT:      -4.7      4.460      6.162
REMARK  Name = NuBBE_397
REMARK  3 active torsions:
REMARK  status: ('A' for Active; 'I' for Inactive)
REMARK    1  A    between atoms: C_1  and  C_2
REMARK    2  A    between atoms: C_2  and  C_3
REMARK    3  A    between atoms: C_3  and  C_4
REMARK                            x       y       z     vdW  Elec       q    Type
REMARK                         _______ _______ _______ _____ _____    ______ ____
ROOT
ATOM      1  C   LIG A   1      -9.288   5.842 132.542  0.00  0.00    +0.180 C 
ATOM      2  O   LIG A   1     -10.624   6.370 132.711  0.00  0.00    -0.458 OA
ATOM      3  C   LIG A   1      -8.533   6.598 131.445  0.00  0.00    +0.072 C 
ATOM      4  C   LIG A   1      -9.388   6.758 130.231  0.00  0.00    -0.016 C 
ATOM      5  C   LIG A   1     -10.723   6.738 130.327  0.00  0.00    +0.087 C 
ATOM      6  C   LIG A   1     -11.405   6.619 131.630  0.00  0.00    +0.332 C 
ATOM      7  O   LIG A   1     -12.615   6.783 131.714  0.00  0.00    -0.246 OA
ENDROOT
BRANCH   1   8
ATOM      8  C   LIG A   1      -9.350   4.323 132.296  0.00  0.00    +0.045 C 
BRANCH   8  10
ATOM      9  C   LIG A   1      -8.300   4.349 134.588  0.00  0.00    +0.004 C 
ATOM     10  C   LIG A   1      -9.079   3.525 133.575  0.00  0.00    +0.000 C 
ENDBRANCH   8  10
ENDBRANCH   1   8
TORSDOF 2
ENDMDL
MODEL 8
REMARK VINA RESULT:      -4.6      2.623      3.661
REMARK  Name = NuBBE_397
REMARK  3 active torsions:
REMARK  status: ('A' for Active; 'I' for Inactive)
REMARK    1  A    between atoms: C_1  and  C_2
REMARK    2  A    between atoms: C_2  and  C_3
REMARK    3  A    between atoms: C_3  and  C_4
REMARK                            x       y       z     vdW  Elec       q    Type
REMARK                         _______ _______ _______ _____ _____    ______ ____
ROOT
ATOM      1  C   LIG A   1     -10.946   7.028 129.394  0.00  0.00    +0.180 C 
ATOM      2  O   LIG A   1     -11.132   5.606 129.214  0.00  0.00    -0.458 OA
ATOM      3  C   LIG A   1      -9.644   7.322 130.143  0.00  0.00    +0.072 C 
ATOM      4  C   LIG A   1      -9.512   6.436 131.338  0.00  0.00    -0.016 C 
ATOM      5  C   LIG A   1     -10.140   5.255 131.386  0.00  0.00    +0.087 C 
ATOM      6  C   LIG A   1     -10.934   4.751 130.249  0.00  0.00    +0.332 C 
ATOM      7  O   LIG A   1     -11.348   3.600 130.243  0.00  0.00    -0.246 OA
ENDROOT
BRANCH   1   8
ATOM      8  C   LIG A   1     -12.185   7.640 130.073  0.00  0.00    +0.045 C 
BRANCH   8  10
ATOM      9  C   LIG A   1     -13.092   9.844 129.250  0.00  0.00    +0.004 C 
ATOM     10  C   LIG A   1     -13.106   8.334 129.065  0.00  0.00    +0.000 C 
ENDBRANCH   8  10
ENDBRANCH   1   8
TORSDOF 2
ENDMDL
MODEL 9
REMARK VINA RESULT:      -4.5      2.829      4.675
REMARK  Name = NuBBE_397
REMARK  3 active torsions:
REMARK  status: ('A' for Active; 'I' for Inactive)
REMARK    1  A    between atoms: C_1  and  C_2
REMARK    2  A    between atoms: C_2  and  C_3
REMARK    3  A    between atoms: C_3  and  C_4
REMARK                            x       y       z     vdW  Elec       q    Type
REMARK                         _______ _______ _______ _____ _____    ______ ____
ROOT
ATOM      1  C   LIG A   1      -9.946   5.899 130.195  0.00  0.00    +0.180 C 
ATOM      2  O   LIG A   1      -9.772   6.725 129.021  0.00  0.00    -0.458 OA
ATOM      3  C   LIG A   1     -11.430   5.672 130.493  0.00  0.00    +0.072 C 
ATOM      4  C   LIG A   1     -12.186   6.958 130.415  0.00  0.00    -0.016 C 
ATOM      5  C   LIG A   1     -11.729   7.976 129.675  0.00  0.00    +0.087 C 
ATOM      6  C   LIG A   1     -10.504   7.856 128.862  0.00  0.00    +0.332 C 
ATOM      7  O   LIG A   1     -10.204   8.729 128.059  0.00  0.00    -0.246 OA
ENDROOT
BRANCH   1   8
ATOM      8  C   LIG A   1      -9.178   6.506 131.384  0.00  0.00    +0.045 C 
BRANCH   8  10
ATOM      9  C   LIG A   1      -6.744   6.227 131.983  0.00  0.00    +0.004 C 
ATOM     10  C   LIG A   1      -7.733   6.856 131.014  0.00  0.00    +0.000 C 
ENDBRANCH   8  10
ENDBRANCH   1   8
TORSDOF 2
ENDMDL
