MODEL 1
REMARK VINA RESULT:      -7.6      0.000      0.000
REMARK  Name = NuBBE_2466
REMARK  12 active torsions:
REMARK  status: ('A' for Active; 'I' for Inactive)
REMARK    1  A    between atoms: C_1  and  O_2
REMARK    2  A    between atoms: O_2  and  C_3
REMARK    3  A    between atoms: C_5  and  C_6
REMARK    4  A    between atoms: C_14  and  C_18
REMARK    5  A    between atoms: C_20  and  O_21
REMARK    6  A    between atoms: O_21  and  C_22
REMARK    7  A    between atoms: C_23  and  O_24
REMARK    8  A    between atoms: O_24  and  C_25
REMARK    9  A    between atoms: C_25  and  C_26
REMARK   10  A    between atoms: C_32  and  O_33
REMARK   11  A    between atoms: O_33  and  C_34
REMARK   12  A    between atoms: C_34  and  C_35
REMARK                            x       y       z     vdW  Elec       q    Type
REMARK                         _______ _______ _______ _____ _____    ______ ____
ROOT
ATOM      1  C   LIG A   1      -7.630  -2.178 129.350  0.00  0.00    +0.154 C 
ATOM      2  C   LIG A   1      -6.846  -2.202 128.036  0.00  0.00    +0.056 C 
ATOM      3  C   LIG A   1      -6.768  -0.750 127.660  0.00  0.00    +0.056 C 
ATOM      4  C   LIG A   1      -6.771  -0.037 128.984  0.00  0.00    +0.167 C 
ATOM      5  O   LIG A   1      -7.631  -0.810 129.826  0.00  0.00    -0.371 OA
ATOM      6  C   LIG A   1      -8.061  -0.509 126.880  0.00  0.00    +0.154 C 
ATOM      7  O   LIG A   1      -8.497  -1.801 126.402  0.00  0.00    -0.371 OA
ATOM      8  C   LIG A   1      -7.604  -2.809 126.883  0.00  0.00    +0.167 C 
ENDROOT
BRANCH   1  11
ATOM      9  C   LIG A   1      -6.550  -3.559 132.747  0.00  0.00    +0.163 A 
ATOM     10  C   LIG A   1      -7.153  -2.788 131.755  0.00  0.00    +0.055 A 
ATOM     11  C   LIG A   1      -6.988  -3.065 130.390  0.00  0.00    -0.015 A 
ATOM     12  C   LIG A   1      -6.196  -4.148 130.016  0.00  0.00    +0.010 A 
ATOM     13  C   LIG A   1      -5.585  -4.938 130.990  0.00  0.00    +0.050 A 
ATOM     14  C   LIG A   1      -5.734  -4.628 132.346  0.00  0.00    +0.173 A 
BRANCH   9  16
ATOM     15  C   LIG A   1      -6.297  -2.010 134.534  0.00  0.00    +0.277 C 
ATOM     16  O   LIG A   1      -6.701  -3.309 134.089  0.00  0.00    -0.491 OA
ENDBRANCH   9  16
BRANCH  14  17
ATOM     17  O   LIG A   1      -5.007  -5.292 133.370  0.00  0.00    -0.422 OA
BRANCH  17  18
ATOM     18  C   LIG A   1      -3.615  -5.333 133.453  0.00  0.00    +0.309 C 
ATOM     19  C   LIG A   1      -3.198  -6.616 134.100  0.00  0.00    +0.136 C 
ATOM     20  O   LIG A   1      -2.821  -4.452 133.150  0.00  0.00    -0.251 OA
ENDBRANCH  17  18
ENDBRANCH  14  17
ENDBRANCH   1  11
BRANCH   6  21
ATOM     21  C   LIG A   1      -7.907   0.469 125.736  0.00  0.00    -0.015 A 
ATOM     22  C   LIG A   1      -8.387   1.791 125.813  0.00  0.00    +0.055 A 
ATOM     23  C   LIG A   1      -8.262   2.685 124.744  0.00  0.00    +0.163 A 
ATOM     24  C   LIG A   1      -7.642   2.238 123.574  0.00  0.00    +0.173 A 
ATOM     25  C   LIG A   1      -7.165   0.927 123.474  0.00  0.00    +0.050 A 
ATOM     26  C   LIG A   1      -7.321   0.046 124.540  0.00  0.00    +0.010 A 
BRANCH  23  27
ATOM     27  O   LIG A   1      -8.794   3.920 125.014  0.00  0.00    -0.491 OA
ATOM     28  C   LIG A   1      -8.011   4.833 125.767  0.00  0.00    +0.277 C 
ENDBRANCH  23  27
BRANCH  24  29
ATOM     29  O   LIG A   1      -7.427   3.139 122.506  0.00  0.00    -0.422 OA
BRANCH  29  30
ATOM     30  C   LIG A   1      -6.210   3.781 122.272  0.00  0.00    +0.309 C 
ATOM     31  C   LIG A   1      -5.648   3.235 121.010  0.00  0.00    +0.136 C 
ATOM     32  O   LIG A   1      -5.637   4.550 122.995  0.00  0.00    -0.251 OA
ENDBRANCH  29  30
ENDBRANCH  24  29
ENDBRANCH   6  21
TORSDOF 8
ENDMDL
MODEL 2
REMARK VINA RESULT:      -7.4      1.039     10.310
REMARK  Name = NuBBE_2466
REMARK  12 active torsions:
REMARK  status: ('A' for Active; 'I' for Inactive)
REMARK    1  A    between atoms: C_1  and  O_2
REMARK    2  A    between atoms: O_2  and  C_3
REMARK    3  A    between atoms: C_5  and  C_6
REMARK    4  A    between atoms: C_14  and  C_18
REMARK    5  A    between atoms: C_20  and  O_21
REMARK    6  A    between atoms: O_21  and  C_22
REMARK    7  A    between atoms: C_23  and  O_24
REMARK    8  A    between atoms: O_24  and  C_25
REMARK    9  A    between atoms: C_25  and  C_26
REMARK   10  A    between atoms: C_32  and  O_33
REMARK   11  A    between atoms: O_33  and  C_34
REMARK   12  A    between atoms: C_34  and  C_35
REMARK                            x       y       z     vdW  Elec       q    Type
REMARK                         _______ _______ _______ _____ _____    ______ ____
ROOT
ATOM      1  C   LIG A   1      -8.699  -0.617 126.997  0.00  0.00    +0.154 C 
ATOM      2  C   LIG A   1      -7.484  -0.362 127.894  0.00  0.00    +0.056 C 
ATOM      3  C   LIG A   1      -6.970  -1.745 128.171  0.00  0.00    +0.056 C 
ATOM      4  C   LIG A   1      -7.348  -2.522 126.940  0.00  0.00    +0.167 C 
ATOM      5  O   LIG A   1      -8.608  -1.984 126.528  0.00  0.00    -0.371 OA
ATOM      6  C   LIG A   1      -7.775  -2.190 129.394  0.00  0.00    +0.154 C 
ATOM      7  O   LIG A   1      -8.242  -0.983 130.038  0.00  0.00    -0.371 OA
ATOM      8  C   LIG A   1      -7.835   0.150 129.267  0.00  0.00    +0.167 C 
ENDROOT
BRANCH   1  11
ATOM      9  C   LIG A   1      -8.756   2.603 124.940  0.00  0.00    +0.163 A 
ATOM     10  C   LIG A   1      -8.707   1.706 126.004  0.00  0.00    +0.055 A 
ATOM     11  C   LIG A   1      -8.713   0.316 125.811  0.00  0.00    -0.015 A 
ATOM     12  C   LIG A   1      -8.766  -0.180 124.510  0.00  0.00    +0.010 A 
ATOM     13  C   LIG A   1      -8.810   0.698 123.428  0.00  0.00    +0.050 A 
ATOM     14  C   LIG A   1      -8.836   2.081 123.640  0.00  0.00    +0.173 A 
BRANCH   9  16
ATOM     15  C   LIG A   1      -7.478   4.553 125.414  0.00  0.00    +0.277 C 
ATOM     16  O   LIG A   1      -8.747   3.967 125.105  0.00  0.00    -0.491 OA
ENDBRANCH   9  16
BRANCH  14  17
ATOM     17  O   LIG A   1      -9.046   3.015 122.591  0.00  0.00    -0.422 OA
BRANCH  17  18
ATOM     18  C   LIG A   1      -8.075   3.393 121.662  0.00  0.00    +0.309 C 
ATOM     19  C   LIG A   1      -8.749   3.861 120.410  0.00  0.00    +0.136 C 
ATOM     20  O   LIG A   1      -6.861   3.291 121.765  0.00  0.00    -0.251 OA
ENDBRANCH  17  18
ENDBRANCH  14  17
ENDBRANCH   1  11
BRANCH   6  21
ATOM     21  C   LIG A   1      -6.987  -3.050 130.359  0.00  0.00    -0.015 A 
ATOM     22  C   LIG A   1      -7.137  -2.936 131.754  0.00  0.00    +0.055 A 
ATOM     23  C   LIG A   1      -6.389  -3.716 132.643  0.00  0.00    +0.163 A 
ATOM     24  C   LIG A   1      -5.473  -4.630 132.115  0.00  0.00    +0.173 A 
ATOM     25  C   LIG A   1      -5.305  -4.755 130.732  0.00  0.00    +0.050 A 
ATOM     26  C   LIG A   1      -6.039  -3.951 129.866  0.00  0.00    +0.010 A 
BRANCH  23  27
ATOM     27  O   LIG A   1      -6.677  -3.455 133.958  0.00  0.00    -0.491 OA
ATOM     28  C   LIG A   1      -8.027  -3.570 134.382  0.00  0.00    +0.277 C 
ENDBRANCH  23  27
BRANCH  24  29
ATOM     29  O   LIG A   1      -4.763  -5.492 132.982  0.00  0.00    -0.422 OA
BRANCH  29  30
ATOM     30  C   LIG A   1      -3.441  -5.274 133.374  0.00  0.00    +0.309 C 
ATOM     31  C   LIG A   1      -3.002  -6.457 134.157  0.00  0.00    +0.136 C 
ATOM     32  O   LIG A   1      -2.789  -4.278 133.224  0.00  0.00    -0.251 OA
ENDBRANCH  29  30
ENDBRANCH  24  29
ENDBRANCH   6  21
TORSDOF 8
ENDMDL
MODEL 3
REMARK VINA RESULT:      -7.2      5.701      8.938
REMARK  Name = NuBBE_2466
REMARK  12 active torsions:
REMARK  status: ('A' for Active; 'I' for Inactive)
REMARK    1  A    between atoms: C_1  and  O_2
REMARK    2  A    between atoms: O_2  and  C_3
REMARK    3  A    between atoms: C_5  and  C_6
REMARK    4  A    between atoms: C_14  and  C_18
REMARK    5  A    between atoms: C_20  and  O_21
REMARK    6  A    between atoms: O_21  and  C_22
REMARK    7  A    between atoms: C_23  and  O_24
REMARK    8  A    between atoms: O_24  and  C_25
REMARK    9  A    between atoms: C_25  and  C_26
REMARK   10  A    between atoms: C_32  and  O_33
REMARK   11  A    between atoms: O_33  and  C_34
REMARK   12  A    between atoms: C_34  and  C_35
REMARK                            x       y       z     vdW  Elec       q    Type
REMARK                         _______ _______ _______ _____ _____    ______ ____
ROOT
ATOM      1  C   LIG A   1      -5.944   2.731 125.715  0.00  0.00    +0.154 C 
ATOM      2  C   LIG A   1      -4.904   2.398 126.789  0.00  0.00    +0.056 C 
ATOM      3  C   LIG A   1      -5.188   3.409 127.862  0.00  0.00    +0.056 C 
ATOM      4  C   LIG A   1      -6.663   3.667 127.731  0.00  0.00    +0.167 C 
ATOM      5  O   LIG A   1      -6.935   3.589 126.328  0.00  0.00    -0.371 OA
ATOM      6  C   LIG A   1      -4.358   4.624 127.441  0.00  0.00    +0.154 C 
ATOM      7  O   LIG A   1      -3.315   4.125 126.573  0.00  0.00    -0.371 OA
ATOM      8  C   LIG A   1      -3.487   2.718 126.389  0.00  0.00    +0.167 C 
ENDROOT
BRANCH   1  11
ATOM      9  C   LIG A   1      -8.635   0.385 124.353  0.00  0.00    +0.163 A 
ATOM     10  C   LIG A   1      -7.964   1.519 124.804  0.00  0.00    +0.055 A 
ATOM     11  C   LIG A   1      -6.618   1.484 125.196  0.00  0.00    -0.015 A 
ATOM     12  C   LIG A   1      -5.930   0.274 125.130  0.00  0.00    +0.010 A 
ATOM     13  C   LIG A   1      -6.579  -0.874 124.677  0.00  0.00    +0.050 A 
ATOM     14  C   LIG A   1      -7.931  -0.828 124.320  0.00  0.00    +0.173 A 
BRANCH   9  16
ATOM     15  C   LIG A   1     -10.197   0.792 122.606  0.00  0.00    +0.277 C 
ATOM     16  O   LIG A   1      -9.951   0.396 123.959  0.00  0.00    -0.491 OA
ENDBRANCH   9  16
BRANCH  14  17
ATOM     17  O   LIG A   1      -8.684  -1.993 124.011  0.00  0.00    -0.422 OA
BRANCH  17  18
ATOM     18  C   LIG A   1      -9.075  -2.954 124.945  0.00  0.00    +0.309 C 
ATOM     19  C   LIG A   1      -8.195  -4.156 124.811  0.00  0.00    +0.136 C 
ATOM     20  O   LIG A   1     -10.032  -2.911 125.706  0.00  0.00    -0.251 OA
ENDBRANCH  17  18
ENDBRANCH  14  17
ENDBRANCH   1  11
BRANCH   6  21
ATOM     21  C   LIG A   1      -3.773   5.392 128.605  0.00  0.00    -0.015 A 
ATOM     22  C   LIG A   1      -4.563   5.824 129.689  0.00  0.00    +0.055 A 
ATOM     23  C   LIG A   1      -4.022   6.555 130.752  0.00  0.00    +0.163 A 
ATOM     24  C   LIG A   1      -2.658   6.857 130.724  0.00  0.00    +0.173 A 
ATOM     25  C   LIG A   1      -1.857   6.444 129.655  0.00  0.00    +0.050 A 
ATOM     26  C   LIG A   1      -2.419   5.740 128.594  0.00  0.00    +0.010 A 
BRANCH  23  27
ATOM     27  O   LIG A   1      -4.953   6.883 131.705  0.00  0.00    -0.491 OA
ATOM     28  C   LIG A   1      -5.279   5.908 132.684  0.00  0.00    +0.277 C 
ENDBRANCH  23  27
BRANCH  24  29
ATOM     29  O   LIG A   1      -2.065   7.521 131.822  0.00  0.00    -0.422 OA
BRANCH  29  30
ATOM     30  C   LIG A   1      -1.008   6.992 132.564  0.00  0.00    +0.309 C 
ATOM     31  C   LIG A   1      -1.489   5.740 133.203  0.00  0.00    +0.136 C 
ATOM     32  O   LIG A   1       0.065   7.490 132.767  0.00  0.00    -0.251 OA
ENDBRANCH  29  30
ENDBRANCH  24  29
ENDBRANCH   6  21
TORSDOF 8
ENDMDL
MODEL 4
REMARK VINA RESULT:      -7.1      5.965      9.654
REMARK  Name = NuBBE_2466
REMARK  12 active torsions:
REMARK  status: ('A' for Active; 'I' for Inactive)
REMARK    1  A    between atoms: C_1  and  O_2
REMARK    2  A    between atoms: O_2  and  C_3
REMARK    3  A    between atoms: C_5  and  C_6
REMARK    4  A    between atoms: C_14  and  C_18
REMARK    5  A    between atoms: C_20  and  O_21
REMARK    6  A    between atoms: O_21  and  C_22
REMARK    7  A    between atoms: C_23  and  O_24
REMARK    8  A    between atoms: O_24  and  C_25
REMARK    9  A    between atoms: C_25  and  C_26
REMARK   10  A    between atoms: C_32  and  O_33
REMARK   11  A    between atoms: O_33  and  C_34
REMARK   12  A    between atoms: C_34  and  C_35
REMARK                            x       y       z     vdW  Elec       q    Type
REMARK                         _______ _______ _______ _____ _____    ______ ____
ROOT
ATOM      1  C   LIG A   1      -5.134   3.225 126.292  0.00  0.00    +0.154 C 
ATOM      2  C   LIG A   1      -4.287   2.801 127.495  0.00  0.00    +0.056 C 
ATOM      3  C   LIG A   1      -4.702   3.773 128.561  0.00  0.00    +0.056 C 
ATOM      4  C   LIG A   1      -6.130   4.095 128.217  0.00  0.00    +0.167 C 
ATOM      5  O   LIG A   1      -6.182   4.092 126.788  0.00  0.00    -0.371 OA
ATOM      6  C   LIG A   1      -3.778   4.972 128.336  0.00  0.00    +0.154 C 
ATOM      7  O   LIG A   1      -2.629   4.473 127.616  0.00  0.00    -0.371 OA
ATOM      8  C   LIG A   1      -2.815   3.084 127.335  0.00  0.00    +0.167 C 
ENDROOT
BRANCH   1  11
ATOM      9  C   LIG A   1      -7.356   1.137 123.986  0.00  0.00    +0.163 A 
ATOM     10  C   LIG A   1      -6.728   2.211 124.615  0.00  0.00    +0.055 A 
ATOM     11  C   LIG A   1      -5.759   2.030 125.611  0.00  0.00    -0.015 A 
ATOM     12  C   LIG A   1      -5.411   0.733 125.982  0.00  0.00    +0.010 A 
ATOM     13  C   LIG A   1      -6.021  -0.358 125.364  0.00  0.00    +0.050 A 
ATOM     14  C   LIG A   1      -7.010  -0.159 124.395  0.00  0.00    +0.173 A 
BRANCH   9  16
ATOM     15  C   LIG A   1      -8.699   2.636 122.718  0.00  0.00    +0.277 C 
ATOM     16  O   LIG A   1      -8.304   1.290 123.005  0.00  0.00    -0.491 OA
ENDBRANCH   9  16
BRANCH  14  17
ATOM     17  O   LIG A   1      -7.779  -1.224 123.853  0.00  0.00    -0.422 OA
BRANCH  17  18
ATOM     18  C   LIG A   1      -8.818  -1.871 124.523  0.00  0.00    +0.309 C 
ATOM     19  C   LIG A   1      -9.083  -3.188 123.864  0.00  0.00    +0.136 C 
ATOM     20  O   LIG A   1      -9.498  -1.439 125.444  0.00  0.00    -0.251 OA
ENDBRANCH  17  18
ENDBRANCH  14  17
ENDBRANCH   1  11
BRANCH   6  21
ATOM     21  C   LIG A   1      -3.358   5.663 129.615  0.00  0.00    -0.015 A 
ATOM     22  C   LIG A   1      -2.730   4.969 130.668  0.00  0.00    +0.055 A 
ATOM     23  C   LIG A   1      -2.365   5.608 131.858  0.00  0.00    +0.163 A 
ATOM     24  C   LIG A   1      -2.637   6.972 131.990  0.00  0.00    +0.173 A 
ATOM     25  C   LIG A   1      -3.266   7.678 130.960  0.00  0.00    +0.050 A 
ATOM     26  C   LIG A   1      -3.645   7.020 129.794  0.00  0.00    +0.010 A 
BRANCH  23  27
ATOM     27  O   LIG A   1      -1.770   4.762 132.759  0.00  0.00    -0.491 OA
ATOM     28  C   LIG A   1      -2.431   3.544 133.068  0.00  0.00    +0.277 C 
ENDBRANCH  23  27
BRANCH  24  29
ATOM     29  O   LIG A   1      -2.207   7.665 133.145  0.00  0.00    -0.422 OA
BRANCH  29  30
ATOM     30  C   LIG A   1      -1.156   8.584 133.147  0.00  0.00    +0.309 C 
ATOM     31  C   LIG A   1       0.098   7.834 133.418  0.00  0.00    +0.136 C 
ATOM     32  O   LIG A   1      -1.229   9.779 133.066  0.00  0.00    -0.251 OA
ENDBRANCH  29  30
ENDBRANCH  24  29
ENDBRANCH   6  21
TORSDOF 8
ENDMDL
MODEL 5
REMARK VINA RESULT:      -7.1      5.803      9.568
REMARK  Name = NuBBE_2466
REMARK  12 active torsions:
REMARK  status: ('A' for Active; 'I' for Inactive)
REMARK    1  A    between atoms: C_1  and  O_2
REMARK    2  A    between atoms: O_2  and  C_3
REMARK    3  A    between atoms: C_5  and  C_6
REMARK    4  A    between atoms: C_14  and  C_18
REMARK    5  A    between atoms: C_20  and  O_21
REMARK    6  A    between atoms: O_21  and  C_22
REMARK    7  A    between atoms: C_23  and  O_24
REMARK    8  A    between atoms: O_24  and  C_25
REMARK    9  A    between atoms: C_25  and  C_26
REMARK   10  A    between atoms: C_32  and  O_33
REMARK   11  A    between atoms: O_33  and  C_34
REMARK   12  A    between atoms: C_34  and  C_35
REMARK                            x       y       z     vdW  Elec       q    Type
REMARK                         _______ _______ _______ _____ _____    ______ ____
ROOT
ATOM      1  C   LIG A   1      -5.514   3.437 125.915  0.00  0.00    +0.154 C 
ATOM      2  C   LIG A   1      -4.638   2.922 127.061  0.00  0.00    +0.056 C 
ATOM      3  C   LIG A   1      -5.003   3.827 128.201  0.00  0.00    +0.056 C 
ATOM      4  C   LIG A   1      -6.435   4.193 127.924  0.00  0.00    +0.167 C 
ATOM      5  O   LIG A   1      -6.530   4.286 126.500  0.00  0.00    -0.371 OA
ATOM      6  C   LIG A   1      -4.066   5.023 128.027  0.00  0.00    +0.154 C 
ATOM      7  O   LIG A   1      -2.948   4.555 127.239  0.00  0.00    -0.371 OA
ATOM      8  C   LIG A   1      -3.166   3.191 126.874  0.00  0.00    +0.167 C 
ENDROOT
BRANCH   1  11
ATOM      9  C   LIG A   1      -6.850  -0.053 125.114  0.00  0.00    +0.163 A 
ATOM     10  C   LIG A   1      -6.277   1.033 125.772  0.00  0.00    +0.055 A 
ATOM     11  C   LIG A   1      -6.179   2.299 125.178  0.00  0.00    -0.015 A 
ATOM     12  C   LIG A   1      -6.674   2.476 123.888  0.00  0.00    +0.010 A 
ATOM     13  C   LIG A   1      -7.257   1.406 123.210  0.00  0.00    +0.050 A 
ATOM     14  C   LIG A   1      -7.317   0.141 123.805  0.00  0.00    +0.173 A 
BRANCH   9  16
ATOM     15  C   LIG A   1      -5.746  -2.050 125.786  0.00  0.00    +0.277 C 
ATOM     16  O   LIG A   1      -6.961  -1.301 125.677  0.00  0.00    -0.491 OA
ENDBRANCH   9  16
BRANCH  14  17
ATOM     17  O   LIG A   1      -7.747  -1.018 123.105  0.00  0.00    -0.422 OA
BRANCH  17  18
ATOM     18  C   LIG A   1      -9.077  -1.426 122.990  0.00  0.00    +0.309 C 
ATOM     19  C   LIG A   1      -9.178  -2.878 123.340  0.00  0.00    +0.136 C 
ATOM     20  O   LIG A   1     -10.028  -0.772 122.584  0.00  0.00    -0.251 OA
ENDBRANCH  17  18
ENDBRANCH  14  17
ENDBRANCH   1  11
BRANCH   6  21
ATOM     21  C   LIG A   1      -3.596   5.622 129.335  0.00  0.00    -0.015 A 
ATOM     22  C   LIG A   1      -2.880   4.869 130.286  0.00  0.00    +0.055 A 
ATOM     23  C   LIG A   1      -2.467   5.420 131.504  0.00  0.00    +0.163 A 
ATOM     24  C   LIG A   1      -2.782   6.756 131.769  0.00  0.00    +0.173 A 
ATOM     25  C   LIG A   1      -3.497   7.519 130.841  0.00  0.00    +0.050 A 
ATOM     26  C   LIG A   1      -3.921   6.945 129.646  0.00  0.00    +0.010 A 
BRANCH  23  27
ATOM     27  O   LIG A   1      -1.788   4.527 132.293  0.00  0.00    -0.491 OA
ATOM     28  C   LIG A   1      -2.539   3.535 132.976  0.00  0.00    +0.277 C 
ENDBRANCH  23  27
BRANCH  24  29
ATOM     29  O   LIG A   1      -2.308   7.366 132.953  0.00  0.00    -0.422 OA
BRANCH  29  30
ATOM     30  C   LIG A   1      -1.315   8.347 132.972  0.00  0.00    +0.309 C 
ATOM     31  C   LIG A   1      -0.004   7.659 133.091  0.00  0.00    +0.136 C 
ATOM     32  O   LIG A   1      -1.463   9.538 133.005  0.00  0.00    -0.251 OA
ENDBRANCH  29  30
ENDBRANCH  24  29
ENDBRANCH   6  21
TORSDOF 8
ENDMDL
MODEL 6
REMARK VINA RESULT:      -7.1      5.765      8.018
REMARK  Name = NuBBE_2466
REMARK  12 active torsions:
REMARK  status: ('A' for Active; 'I' for Inactive)
REMARK    1  A    between atoms: C_1  and  O_2
REMARK    2  A    between atoms: O_2  and  C_3
REMARK    3  A    between atoms: C_5  and  C_6
REMARK    4  A    between atoms: C_14  and  C_18
REMARK    5  A    between atoms: C_20  and  O_21
REMARK    6  A    between atoms: O_21  and  C_22
REMARK    7  A    between atoms: C_23  and  O_24
REMARK    8  A    between atoms: O_24  and  C_25
REMARK    9  A    between atoms: C_25  and  C_26
REMARK   10  A    between atoms: C_32  and  O_33
REMARK   11  A    between atoms: O_33  and  C_34
REMARK   12  A    between atoms: C_34  and  C_35
REMARK                            x       y       z     vdW  Elec       q    Type
REMARK                         _______ _______ _______ _____ _____    ______ ____
ROOT
ATOM      1  C   LIG A   1      -3.936   4.646 128.090  0.00  0.00    +0.154 C 
ATOM      2  C   LIG A   1      -4.800   3.419 128.393  0.00  0.00    +0.056 C 
ATOM      3  C   LIG A   1      -4.563   2.535 127.202  0.00  0.00    +0.056 C 
ATOM      4  C   LIG A   1      -3.164   2.878 126.773  0.00  0.00    +0.167 C 
ATOM      5  O   LIG A   1      -3.026   4.280 127.025  0.00  0.00    -0.371 OA
ATOM      6  C   LIG A   1      -5.603   3.012 126.187  0.00  0.00    +0.154 C 
ATOM      7  O   LIG A   1      -6.643   3.671 126.945  0.00  0.00    -0.371 OA
ATOM      8  C   LIG A   1      -6.282   3.683 128.329  0.00  0.00    +0.167 C 
ENDROOT
BRANCH   1  11
ATOM      9  C   LIG A   1      -2.659   4.827 131.688  0.00  0.00    +0.163 A 
ATOM     10  C   LIG A   1      -3.346   4.444 130.538  0.00  0.00    +0.055 A 
ATOM     11  C   LIG A   1      -3.139   5.070 129.300  0.00  0.00    -0.015 A 
ATOM     12  C   LIG A   1      -2.213   6.108 129.220  0.00  0.00    +0.010 A 
ATOM     13  C   LIG A   1      -1.509   6.507 130.356  0.00  0.00    +0.050 A 
ATOM     14  C   LIG A   1      -1.752   5.893 131.589  0.00  0.00    +0.173 A 
BRANCH   9  16
ATOM     15  C   LIG A   1      -2.909   2.796 132.900  0.00  0.00    +0.277 C 
ATOM     16  O   LIG A   1      -2.843   4.226 132.909  0.00  0.00    -0.491 OA
ENDBRANCH   9  16
BRANCH  14  17
ATOM     17  O   LIG A   1      -1.190   6.364 132.806  0.00  0.00    -0.422 OA
BRANCH  17  18
ATOM     18  C   LIG A   1      -0.962   7.708 133.104  0.00  0.00    +0.309 C 
ATOM     19  C   LIG A   1      -2.277   8.402 133.278  0.00  0.00    +0.136 C 
ATOM     20  O   LIG A   1       0.110   8.296 133.137  0.00  0.00    -0.251 OA
ENDBRANCH  17  18
ENDBRANCH  14  17
ENDBRANCH   1  11
BRANCH   6  21
ATOM     21  C   LIG A   1      -6.176   1.900 125.336  0.00  0.00    -0.015 A 
ATOM     22  C   LIG A   1      -6.201   0.561 125.774  0.00  0.00    +0.055 A 
ATOM     23  C   LIG A   1      -6.710  -0.468 124.973  0.00  0.00    +0.163 A 
ATOM     24  C   LIG A   1      -7.203  -0.141 123.707  0.00  0.00    +0.173 A 
ATOM     25  C   LIG A   1      -7.182   1.180 123.251  0.00  0.00    +0.050 A 
ATOM     26  C   LIG A   1      -6.648   2.185 124.052  0.00  0.00    +0.010 A 
BRANCH  23  27
ATOM     27  O   LIG A   1      -6.643  -1.698 125.576  0.00  0.00    -0.491 OA
ATOM     28  C   LIG A   1      -5.603  -2.580 125.179  0.00  0.00    +0.277 C 
ENDBRANCH  23  27
BRANCH  24  29
ATOM     29  O   LIG A   1      -7.800  -1.144 122.908  0.00  0.00    -0.422 OA
BRANCH  29  30
ATOM     30  C   LIG A   1      -9.149  -1.492 122.988  0.00  0.00    +0.309 C 
ATOM     31  C   LIG A   1      -9.222  -2.917 123.402  0.00  0.00    +0.136 C 
ATOM     32  O   LIG A   1     -10.097  -0.827 122.673  0.00  0.00    -0.251 OA
ENDBRANCH  29  30
ENDBRANCH  24  29
ENDBRANCH   6  21
TORSDOF 8
ENDMDL
MODEL 7
REMARK VINA RESULT:      -7.1      5.592      7.983
REMARK  Name = NuBBE_2466
REMARK  12 active torsions:
REMARK  status: ('A' for Active; 'I' for Inactive)
REMARK    1  A    between atoms: C_1  and  O_2
REMARK    2  A    between atoms: O_2  and  C_3
REMARK    3  A    between atoms: C_5  and  C_6
REMARK    4  A    between atoms: C_14  and  C_18
REMARK    5  A    between atoms: C_20  and  O_21
REMARK    6  A    between atoms: O_21  and  C_22
REMARK    7  A    between atoms: C_23  and  O_24
REMARK    8  A    between atoms: O_24  and  C_25
REMARK    9  A    between atoms: C_25  and  C_26
REMARK   10  A    between atoms: C_32  and  O_33
REMARK   11  A    between atoms: O_33  and  C_34
REMARK   12  A    between atoms: C_34  and  C_35
REMARK                            x       y       z     vdW  Elec       q    Type
REMARK                         _______ _______ _______ _____ _____    ______ ____
ROOT
ATOM      1  C   LIG A   1      -4.525   4.301 128.114  0.00  0.00    +0.154 C 
ATOM      2  C   LIG A   1      -4.828   2.838 128.448  0.00  0.00    +0.056 C 
ATOM      3  C   LIG A   1      -4.761   2.164 127.108  0.00  0.00    +0.056 C 
ATOM      4  C   LIG A   1      -3.760   2.985 126.343  0.00  0.00    +0.167 C 
ATOM      5  O   LIG A   1      -3.967   4.332 126.779  0.00  0.00    -0.371 OA
ATOM      6  C   LIG A   1      -6.176   2.327 126.550  0.00  0.00    +0.154 C 
ATOM      7  O   LIG A   1      -7.041   2.548 127.687  0.00  0.00    -0.371 OA
ATOM      8  C   LIG A   1      -6.252   2.591 128.878  0.00  0.00    +0.167 C 
ENDROOT
BRANCH   1  11
ATOM      9  C   LIG A   1      -2.491   4.870 131.300  0.00  0.00    +0.163 A 
ATOM     10  C   LIG A   1      -3.373   4.337 130.362  0.00  0.00    +0.055 A 
ATOM     11  C   LIG A   1      -3.528   4.891 129.083  0.00  0.00    -0.015 A 
ATOM     12  C   LIG A   1      -2.772   6.010 128.740  0.00  0.00    +0.010 A 
ATOM     13  C   LIG A   1      -1.879   6.559 129.660  0.00  0.00    +0.050 A 
ATOM     14  C   LIG A   1      -1.761   6.013 130.943  0.00  0.00    +0.173 A 
BRANCH   9  16
ATOM     15  C   LIG A   1      -3.022   3.124 132.826  0.00  0.00    +0.277 C 
ATOM     16  O   LIG A   1      -2.320   4.342 132.556  0.00  0.00    -0.491 OA
ENDBRANCH   9  16
BRANCH  14  17
ATOM     17  O   LIG A   1      -0.995   6.626 131.970  0.00  0.00    -0.422 OA
BRANCH  17  18
ATOM     18  C   LIG A   1      -1.353   7.801 132.632  0.00  0.00    +0.309 C 
ATOM     19  C   LIG A   1      -0.157   8.349 133.344  0.00  0.00    +0.136 C 
ATOM     20  O   LIG A   1      -2.468   8.295 132.726  0.00  0.00    -0.251 OA
ENDBRANCH  17  18
ENDBRANCH  14  17
ENDBRANCH   1  11
BRANCH   6  21
ATOM     21  C   LIG A   1      -6.646   1.144 125.732  0.00  0.00    -0.015 A 
ATOM     22  C   LIG A   1      -7.946   1.076 125.196  0.00  0.00    +0.055 A 
ATOM     23  C   LIG A   1      -8.384  -0.031 124.460  0.00  0.00    +0.163 A 
ATOM     24  C   LIG A   1      -7.494  -1.090 124.261  0.00  0.00    +0.173 A 
ATOM     25  C   LIG A   1      -6.201  -1.045 124.791  0.00  0.00    +0.050 A 
ATOM     26  C   LIG A   1      -5.793   0.053 125.541  0.00  0.00    +0.010 A 
BRANCH  23  27
ATOM     27  O   LIG A   1      -9.680   0.092 124.027  0.00  0.00    -0.491 OA
ATOM     28  C   LIG A   1      -9.923   0.859 122.857  0.00  0.00    +0.277 C 
ENDBRANCH  23  27
BRANCH  24  29
ATOM     29  O   LIG A   1      -7.877  -2.185 123.453  0.00  0.00    -0.422 OA
BRANCH  29  30
ATOM     30  C   LIG A   1      -8.850  -3.115 123.825  0.00  0.00    +0.309 C 
ATOM     31  C   LIG A   1      -8.239  -4.031 124.822  0.00  0.00    +0.136 C 
ATOM     32  O   LIG A   1      -9.947  -3.252 123.359  0.00  0.00    -0.251 OA
ENDBRANCH  29  30
ENDBRANCH  24  29
ENDBRANCH   6  21
TORSDOF 8
ENDMDL
MODEL 8
REMARK VINA RESULT:      -6.8      2.897     10.257
REMARK  Name = NuBBE_2466
REMARK  12 active torsions:
REMARK  status: ('A' for Active; 'I' for Inactive)
REMARK    1  A    between atoms: C_1  and  O_2
REMARK    2  A    between atoms: O_2  and  C_3
REMARK    3  A    between atoms: C_5  and  C_6
REMARK    4  A    between atoms: C_14  and  C_18
REMARK    5  A    between atoms: C_20  and  O_21
REMARK    6  A    between atoms: O_21  and  C_22
REMARK    7  A    between atoms: C_23  and  O_24
REMARK    8  A    between atoms: O_24  and  C_25
REMARK    9  A    between atoms: C_25  and  C_26
REMARK   10  A    between atoms: C_32  and  O_33
REMARK   11  A    between atoms: O_33  and  C_34
REMARK   12  A    between atoms: C_34  and  C_35
REMARK                            x       y       z     vdW  Elec       q    Type
REMARK                         _______ _______ _______ _____ _____    ______ ____
ROOT
ATOM      1  C   LIG A   1      -7.077  -2.684 129.946  0.00  0.00    +0.154 C 
ATOM      2  C   LIG A   1      -5.934  -1.686 130.153  0.00  0.00    +0.056 C 
ATOM      3  C   LIG A   1      -4.862  -2.524 130.787  0.00  0.00    +0.056 C 
ATOM      4  C   LIG A   1      -5.101  -3.898 130.224  0.00  0.00    +0.167 C 
ATOM      5  O   LIG A   1      -6.522  -4.012 130.101  0.00  0.00    -0.371 OA
ATOM      6  C   LIG A   1      -5.188  -2.456 132.280  0.00  0.00    +0.154 C 
ATOM      7  O   LIG A   1      -5.984  -1.265 132.472  0.00  0.00    -0.371 OA
ATOM      8  C   LIG A   1      -6.215  -0.644 131.205  0.00  0.00    +0.167 C 
ENDROOT
BRANCH   1  11
ATOM      9  C   LIG A   1      -8.056  -1.203 126.560  0.00  0.00    +0.163 A 
ATOM     10  C   LIG A   1      -7.490  -1.380 127.822  0.00  0.00    +0.055 A 
ATOM     11  C   LIG A   1      -7.677  -2.554 128.566  0.00  0.00    -0.015 A 
ATOM     12  C   LIG A   1      -8.453  -3.576 128.024  0.00  0.00    +0.010 A 
ATOM     13  C   LIG A   1      -9.025  -3.426 126.761  0.00  0.00    +0.050 A 
ATOM     14  C   LIG A   1      -8.855  -2.235 126.046  0.00  0.00    +0.173 A 
BRANCH   9  16
ATOM     15  C   LIG A   1      -7.204   1.015 126.461  0.00  0.00    +0.277 C 
ATOM     16  O   LIG A   1      -7.883  -0.065 125.812  0.00  0.00    -0.491 OA
ENDBRANCH   9  16
BRANCH  14  17
ATOM     17  O   LIG A   1      -9.546  -1.961 124.835  0.00  0.00    -0.422 OA
BRANCH  17  18
ATOM     18  C   LIG A   1      -9.396  -2.692 123.656  0.00  0.00    +0.309 C 
ATOM     19  C   LIG A   1      -8.244  -2.139 122.878  0.00  0.00    +0.136 C 
ATOM     20  O   LIG A   1     -10.118  -3.585 123.232  0.00  0.00    -0.251 OA
ENDBRANCH  17  18
ENDBRANCH  14  17
ENDBRANCH   1  11
BRANCH   6  21
ATOM     21  C   LIG A   1      -3.963  -2.438 133.168  0.00  0.00    -0.015 A 
ATOM     22  C   LIG A   1      -3.800  -3.343 134.236  0.00  0.00    +0.055 A 
ATOM     23  C   LIG A   1      -2.676  -3.307 135.069  0.00  0.00    +0.163 A 
ATOM     24  C   LIG A   1      -1.697  -2.341 134.821  0.00  0.00    +0.173 A 
ATOM     25  C   LIG A   1      -1.842  -1.430 133.771  0.00  0.00    +0.050 A 
ATOM     26  C   LIG A   1      -2.979  -1.465 132.970  0.00  0.00    +0.010 A 
BRANCH  23  27
ATOM     27  O   LIG A   1      -2.706  -4.266 136.049  0.00  0.00    -0.491 OA
ATOM     28  C   LIG A   1      -2.492  -5.617 135.668  0.00  0.00    +0.277 C 
ENDBRANCH  23  27
BRANCH  24  29
ATOM     29  O   LIG A   1      -0.512  -2.331 135.592  0.00  0.00    -0.422 OA
BRANCH  29  30
ATOM     30  C   LIG A   1       0.502  -3.282 135.460  0.00  0.00    +0.309 C 
ATOM     31  C   LIG A   1       1.267  -2.956 134.229  0.00  0.00    +0.136 C 
ATOM     32  O   LIG A   1       0.679  -4.261 136.131  0.00  0.00    -0.251 OA
ENDBRANCH  29  30
ENDBRANCH  24  29
ENDBRANCH   6  21
TORSDOF 8
ENDMDL
MODEL 9
REMARK VINA RESULT:      -6.8      5.516      8.885
REMARK  Name = NuBBE_2466
REMARK  12 active torsions:
REMARK  status: ('A' for Active; 'I' for Inactive)
REMARK    1  A    between atoms: C_1  and  O_2
REMARK    2  A    between atoms: O_2  and  C_3
REMARK    3  A    between atoms: C_5  and  C_6
REMARK    4  A    between atoms: C_14  and  C_18
REMARK    5  A    between atoms: C_20  and  O_21
REMARK    6  A    between atoms: O_21  and  C_22
REMARK    7  A    between atoms: C_23  and  O_24
REMARK    8  A    between atoms: O_24  and  C_25
REMARK    9  A    between atoms: C_25  and  C_26
REMARK   10  A    between atoms: C_32  and  O_33
REMARK   11  A    between atoms: O_33  and  C_34
REMARK   12  A    between atoms: C_34  and  C_35
REMARK                            x       y       z     vdW  Elec       q    Type
REMARK                         _______ _______ _______ _____ _____    ______ ____
ROOT
ATOM      1  C   LIG A   1      -6.872   2.684 126.822  0.00  0.00    +0.154 C 
ATOM      2  C   LIG A   1      -5.443   2.452 127.319  0.00  0.00    +0.056 C 
ATOM      3  C   LIG A   1      -5.391   3.252 128.588  0.00  0.00    +0.056 C 
ATOM      4  C   LIG A   1      -6.806   3.211 129.096  0.00  0.00    +0.167 C 
ATOM      5  O   LIG A   1      -7.627   3.240 127.925  0.00  0.00    -0.371 OA
ATOM      6  C   LIG A   1      -4.997   4.653 128.116  0.00  0.00    +0.154 C 
ATOM      7  O   LIG A   1      -4.354   4.486 126.832  0.00  0.00    -0.371 OA
ATOM      8  C   LIG A   1      -4.385   3.104 126.466  0.00  0.00    +0.167 C 
ENDROOT
BRANCH   1  11
ATOM      9  C   LIG A   1      -9.179   0.239 125.001  0.00  0.00    +0.163 A 
ATOM     10  C   LIG A   1      -8.532   1.404 125.412  0.00  0.00    +0.055 A 
ATOM     11  C   LIG A   1      -7.517   1.392 126.380  0.00  0.00    -0.015 A 
ATOM     12  C   LIG A   1      -7.142   0.175 126.946  0.00  0.00    +0.010 A 
ATOM     13  C   LIG A   1      -7.771  -1.004 126.547  0.00  0.00    +0.050 A 
ATOM     14  C   LIG A   1      -8.804  -0.970 125.605  0.00  0.00    +0.173 A 
BRANCH   9  16
ATOM     15  C   LIG A   1      -9.905   0.962 122.855  0.00  0.00    +0.277 C 
ATOM     16  O   LIG A   1     -10.172   0.226 124.053  0.00  0.00    -0.491 OA
ENDBRANCH   9  16
BRANCH  14  17
ATOM     17  O   LIG A   1      -9.589  -2.111 125.284  0.00  0.00    -0.422 OA
BRANCH  17  18
ATOM     18  C   LIG A   1      -9.102  -3.252 124.643  0.00  0.00    +0.309 C 
ATOM     19  C   LIG A   1      -9.659  -3.312 123.256  0.00  0.00    +0.136 C 
ATOM     20  O   LIG A   1      -8.409  -4.139 125.121  0.00  0.00    -0.251 OA
ENDBRANCH  17  18
ENDBRANCH  14  17
ENDBRANCH   1  11
BRANCH   6  21
ATOM     21  C   LIG A   1      -4.094   5.387 129.083  0.00  0.00    -0.015 A 
ATOM     22  C   LIG A   1      -4.542   5.813 130.349  0.00  0.00    +0.055 A 
ATOM     23  C   LIG A   1      -3.710   6.513 131.230  0.00  0.00    +0.163 A 
ATOM     24  C   LIG A   1      -2.400   6.788 130.828  0.00  0.00    +0.173 A 
ATOM     25  C   LIG A   1      -1.937   6.379 129.574  0.00  0.00    +0.050 A 
ATOM     26  C   LIG A   1      -2.787   5.707 128.702  0.00  0.00    +0.010 A 
BRANCH  23  27
ATOM     27  O   LIG A   1      -4.333   6.841 132.407  0.00  0.00    -0.491 OA
ATOM     28  C   LIG A   1      -4.830   5.786 133.216  0.00  0.00    +0.277 C 
ENDBRANCH  23  27
BRANCH  24  29
ATOM     29  O   LIG A   1      -1.510   7.419 131.727  0.00  0.00    -0.422 OA
BRANCH  29  30
ATOM     30  C   LIG A   1      -0.825   6.742 132.738  0.00  0.00    +0.309 C 
ATOM     31  C   LIG A   1       0.032   7.730 133.442  0.00  0.00    +0.136 C 
ATOM     32  O   LIG A   1      -0.815   5.561 132.951  0.00  0.00    -0.251 OA
ENDBRANCH  29  30
ENDBRANCH  24  29
ENDBRANCH   6  21
TORSDOF 8
ENDMDL
