MODEL 1
REMARK VINA RESULT:      -7.3      0.000      0.000
REMARK  Name = NuBBE_2473
REMARK  12 active torsions:
REMARK  status: ('A' for Active; 'I' for Inactive)
REMARK    1  A    between atoms: C_1  and  O_2
REMARK    2  A    between atoms: O_2  and  C_3
REMARK    3  A    between atoms: C_5  and  C_6
REMARK    4  A    between atoms: C_6  and  C_7
REMARK    5  A    between atoms: C_9  and  C_11
REMARK    6  A    between atoms: C_11  and  O_12
REMARK    7  A    between atoms: C_13  and  C_15
REMARK    8  A    between atoms: C_18  and  O_19
REMARK    9  A    between atoms: C_20  and  O_21
REMARK   10  A    between atoms: O_21  and  C_22
REMARK   11  A    between atoms: C_28  and  O_29
REMARK   12  A    between atoms: O_29  and  C_30
REMARK                            x       y       z     vdW  Elec       q    Type
REMARK                         _______ _______ _______ _____ _____    ______ ____
ROOT
ATOM      1  C   LIG A   1      -8.972   3.882 131.130  0.00  0.00    +0.027 C 
ATOM      2  C   LIG A   1      -9.261   5.377 131.312  0.00  0.00    +0.053 C 
ATOM      3  C   LIG A   1     -10.782   5.446 131.117  0.00  0.00    +0.154 C 
ATOM      4  O   LIG A   1     -11.138   4.310 130.299  0.00  0.00    -0.371 OA
ATOM      5  C   LIG A   1      -9.929   3.606 129.976  0.00  0.00    +0.165 C 
ENDROOT
BRANCH   3   6
ATOM      6  C   LIG A   1     -11.349   6.685 130.463  0.00  0.00    -0.015 A 
ATOM      7  C   LIG A   1     -12.418   7.352 131.075  0.00  0.00    +0.010 A 
ATOM      8  C   LIG A   1     -12.981   8.486 130.489  0.00  0.00    +0.049 A 
ATOM      9  C   LIG A   1     -12.484   8.971 129.278  0.00  0.00    +0.159 A 
ATOM     10  C   LIG A   1     -11.443   8.312 128.624  0.00  0.00    +0.162 A 
ATOM     11  C   LIG A   1     -10.896   7.166 129.226  0.00  0.00    +0.055 A 
BRANCH   9  12
ATOM     12  O   LIG A   1     -13.048  10.097 128.757  0.00  0.00    -0.503 OA
ATOM     13  H   LIG A   1     -12.344  10.741 128.573  0.00  0.00    +0.292 HD
ENDBRANCH   9  12
BRANCH  10  14
ATOM     14  O   LIG A   1     -10.857   8.617 127.423  0.00  0.00    -0.491 OA
ATOM     15  C   LIG A   1     -10.902   7.627 126.404  0.00  0.00    +0.277 C 
ENDBRANCH  10  14
ENDBRANCH   3   6
BRANCH   1  16
ATOM     16  C   LIG A   1      -9.289   3.043 132.382  0.00  0.00    +0.041 C 
BRANCH  16  19
ATOM     17  C   LIG A   1      -6.680   0.379 133.199  0.00  0.00    +0.162 A 
ATOM     18  C   LIG A   1      -7.333   1.612 133.088  0.00  0.00    +0.053 A 
ATOM     19  C   LIG A   1      -8.568   1.719 132.433  0.00  0.00    -0.043 A 
ATOM     20  C   LIG A   1      -9.130   0.578 131.857  0.00  0.00    +0.007 A 
ATOM     21  C   LIG A   1      -8.476  -0.651 131.935  0.00  0.00    +0.050 A 
ATOM     22  C   LIG A   1      -7.253  -0.765 132.606  0.00  0.00    +0.162 A 
BRANCH  17  24
ATOM     23  C   LIG A   1      -5.530   0.280 135.289  0.00  0.00    +0.277 C 
ATOM     24  O   LIG A   1      -5.496   0.193 133.870  0.00  0.00    -0.491 OA
ENDBRANCH  17  24
BRANCH  22  25
ATOM     25  O   LIG A   1      -6.554  -1.941 132.735  0.00  0.00    -0.491 OA
ATOM     26  C   LIG A   1      -7.283  -3.087 133.152  0.00  0.00    +0.277 C 
ENDBRANCH  22  25
ENDBRANCH  16  19
ENDBRANCH   1  16
BRANCH   2  27
ATOM     27  C   LIG A   1      -8.776   6.048 132.586  0.00  0.00    +0.162 C 
BRANCH  27  28
ATOM     28  O   LIG A   1      -9.907   6.380 133.386  0.00  0.00    -0.395 OA
ATOM     29  H   LIG A   1     -10.649   6.553 132.781  0.00  0.00    +0.209 HD
ENDBRANCH  27  28
ENDBRANCH   2  27
TORSDOF 9
ENDMDL
MODEL 2
REMARK VINA RESULT:      -6.9      1.180      2.070
REMARK  Name = NuBBE_2473
REMARK  12 active torsions:
REMARK  status: ('A' for Active; 'I' for Inactive)
REMARK    1  A    between atoms: C_1  and  O_2
REMARK    2  A    between atoms: O_2  and  C_3
REMARK    3  A    between atoms: C_5  and  C_6
REMARK    4  A    between atoms: C_6  and  C_7
REMARK    5  A    between atoms: C_9  and  C_11
REMARK    6  A    between atoms: C_11  and  O_12
REMARK    7  A    between atoms: C_13  and  C_15
REMARK    8  A    between atoms: C_18  and  O_19
REMARK    9  A    between atoms: C_20  and  O_21
REMARK   10  A    between atoms: O_21  and  C_22
REMARK   11  A    between atoms: C_28  and  O_29
REMARK   12  A    between atoms: O_29  and  C_30
REMARK                            x       y       z     vdW  Elec       q    Type
REMARK                         _______ _______ _______ _____ _____    ______ ____
ROOT
ATOM      1  C   LIG A   1      -8.634   3.146 131.061  0.00  0.00    +0.027 C 
ATOM      2  C   LIG A   1      -9.048   4.576 131.428  0.00  0.00    +0.053 C 
ATOM      3  C   LIG A   1     -10.505   4.634 130.948  0.00  0.00    +0.154 C 
ATOM      4  O   LIG A   1     -10.624   3.649 129.898  0.00  0.00    -0.371 OA
ATOM      5  C   LIG A   1      -9.334   3.049 129.710  0.00  0.00    +0.165 C 
ENDROOT
BRANCH   3   6
ATOM      6  C   LIG A   1     -11.014   5.951 130.410  0.00  0.00    -0.015 A 
ATOM      7  C   LIG A   1     -12.086   6.583 131.053  0.00  0.00    +0.010 A 
ATOM      8  C   LIG A   1     -12.597   7.788 130.571  0.00  0.00    +0.049 A 
ATOM      9  C   LIG A   1     -12.043   8.382 129.435  0.00  0.00    +0.159 A 
ATOM     10  C   LIG A   1     -10.996   7.764 128.751  0.00  0.00    +0.162 A 
ATOM     11  C   LIG A   1     -10.503   6.544 129.246  0.00  0.00    +0.055 A 
BRANCH   9  12
ATOM     12  O   LIG A   1     -12.557   9.573 129.017  0.00  0.00    -0.503 OA
ATOM     13  H   LIG A   1     -13.404   9.723 129.471  0.00  0.00    +0.292 HD
ENDBRANCH   9  12
BRANCH  10  14
ATOM     14  O   LIG A   1     -10.359   8.174 127.610  0.00  0.00    -0.491 OA
ATOM     15  C   LIG A   1     -10.879   7.715 126.369  0.00  0.00    +0.277 C 
ENDBRANCH  10  14
ENDBRANCH   3   6
BRANCH   1  16
ATOM     16  C   LIG A   1      -9.131   2.090 132.067  0.00  0.00    +0.041 C 
BRANCH  16  19
ATOM     17  C   LIG A   1      -7.661  -1.392 131.540  0.00  0.00    +0.162 A 
ATOM     18  C   LIG A   1      -8.520  -0.288 131.485  0.00  0.00    +0.053 A 
ATOM     19  C   LIG A   1      -8.229   0.887 132.191  0.00  0.00    -0.043 A 
ATOM     20  C   LIG A   1      -7.080   0.936 132.982  0.00  0.00    +0.007 A 
ATOM     21  C   LIG A   1      -6.232  -0.167 133.068  0.00  0.00    +0.050 A 
ATOM     22  C   LIG A   1      -6.508  -1.335 132.350  0.00  0.00    +0.162 A 
BRANCH  17  24
ATOM     23  C   LIG A   1      -7.761  -2.483 129.418  0.00  0.00    +0.277 C 
ATOM     24  O   LIG A   1      -7.858  -2.555 130.835  0.00  0.00    -0.491 OA
ENDBRANCH  17  24
BRANCH  22  25
ATOM     25  O   LIG A   1      -5.716  -2.458 132.373  0.00  0.00    -0.491 OA
ATOM     26  C   LIG A   1      -5.408  -3.007 133.647  0.00  0.00    +0.277 C 
ENDBRANCH  22  25
ENDBRANCH  16  19
ENDBRANCH   1  16
BRANCH   2  27
ATOM     27  C   LIG A   1      -8.859   5.027 132.867  0.00  0.00    +0.162 C 
BRANCH  27  28
ATOM     28  O   LIG A   1     -10.084   4.838 133.568  0.00  0.00    -0.395 OA
ATOM     29  H   LIG A   1     -10.170   3.887 133.752  0.00  0.00    +0.209 HD
ENDBRANCH  27  28
ENDBRANCH   2  27
TORSDOF 9
ENDMDL
MODEL 3
REMARK VINA RESULT:      -6.7      2.819      8.695
REMARK  Name = NuBBE_2473
REMARK  12 active torsions:
REMARK  status: ('A' for Active; 'I' for Inactive)
REMARK    1  A    between atoms: C_1  and  O_2
REMARK    2  A    between atoms: O_2  and  C_3
REMARK    3  A    between atoms: C_5  and  C_6
REMARK    4  A    between atoms: C_6  and  C_7
REMARK    5  A    between atoms: C_9  and  C_11
REMARK    6  A    between atoms: C_11  and  O_12
REMARK    7  A    between atoms: C_13  and  C_15
REMARK    8  A    between atoms: C_18  and  O_19
REMARK    9  A    between atoms: C_20  and  O_21
REMARK   10  A    between atoms: O_21  and  C_22
REMARK   11  A    between atoms: C_28  and  O_29
REMARK   12  A    between atoms: O_29  and  C_30
REMARK                            x       y       z     vdW  Elec       q    Type
REMARK                         _______ _______ _______ _____ _____    ______ ____
ROOT
ATOM      1  C   LIG A   1      -9.114   5.012 130.773  0.00  0.00    +0.027 C 
ATOM      2  C   LIG A   1      -8.443   4.318 131.964  0.00  0.00    +0.053 C 
ATOM      3  C   LIG A   1      -8.574   5.368 133.077  0.00  0.00    +0.154 C 
ATOM      4  O   LIG A   1      -8.676   6.649 132.415  0.00  0.00    -0.371 OA
ATOM      5  C   LIG A   1      -8.578   6.421 131.001  0.00  0.00    +0.165 C 
ENDROOT
BRANCH   3   6
ATOM      6  C   LIG A   1      -7.459   5.457 134.092  0.00  0.00    -0.015 A 
ATOM      7  C   LIG A   1      -7.779   5.534 135.454  0.00  0.00    +0.010 A 
ATOM      8  C   LIG A   1      -6.777   5.640 136.418  0.00  0.00    +0.049 A 
ATOM      9  C   LIG A   1      -5.434   5.672 136.035  0.00  0.00    +0.159 A 
ATOM     10  C   LIG A   1      -5.081   5.630 134.686  0.00  0.00    +0.162 A 
ATOM     11  C   LIG A   1      -6.106   5.535 133.730  0.00  0.00    +0.055 A 
BRANCH   9  12
ATOM     12  O   LIG A   1      -4.488   5.748 137.013  0.00  0.00    -0.503 OA
ATOM     13  H   LIG A   1      -4.546   6.623 137.435  0.00  0.00    +0.292 HD
ENDBRANCH   9  12
BRANCH  10  14
ATOM     14  O   LIG A   1      -3.831   5.688 134.126  0.00  0.00    -0.491 OA
ATOM     15  C   LIG A   1      -3.346   6.968 133.742  0.00  0.00    +0.277 C 
ENDBRANCH  10  14
ENDBRANCH   3   6
BRANCH   1  16
ATOM     16  C   LIG A   1     -10.652   4.945 130.816  0.00  0.00    +0.041 C 
BRANCH  16  19
ATOM     17  C   LIG A   1     -11.789   7.900 128.683  0.00  0.00    +0.162 A 
ATOM     18  C   LIG A   1     -11.116   6.749 129.113  0.00  0.00    +0.053 A 
ATOM     19  C   LIG A   1     -11.334   6.223 130.394  0.00  0.00    -0.043 A 
ATOM     20  C   LIG A   1     -12.213   6.881 131.256  0.00  0.00    +0.007 A 
ATOM     21  C   LIG A   1     -12.867   8.043 130.850  0.00  0.00    +0.050 A 
ATOM     22  C   LIG A   1     -12.667   8.561 129.566  0.00  0.00    +0.162 A 
BRANCH  17  24
ATOM     23  C   LIG A   1     -10.993   7.657 126.444  0.00  0.00    +0.277 C 
ATOM     24  O   LIG A   1     -11.661   8.440 127.426  0.00  0.00    -0.491 OA
ENDBRANCH  17  24
BRANCH  22  25
ATOM     25  O   LIG A   1     -13.282   9.693 129.088  0.00  0.00    -0.491 OA
ATOM     26  C   LIG A   1     -13.396  10.794 129.980  0.00  0.00    +0.277 C 
ENDBRANCH  22  25
ENDBRANCH  16  19
ENDBRANCH   1  16
BRANCH   2  27
ATOM     27  C   LIG A   1      -8.943   2.939 132.362  0.00  0.00    +0.162 C 
BRANCH  27  28
ATOM     28  O   LIG A   1      -9.806   3.074 133.486  0.00  0.00    -0.395 OA
ATOM     29  H   LIG A   1      -9.668   3.964 133.853  0.00  0.00    +0.209 HD
ENDBRANCH  27  28
ENDBRANCH   2  27
TORSDOF 9
ENDMDL
MODEL 4
REMARK VINA RESULT:      -6.7      6.954      7.859
REMARK  Name = NuBBE_2473
REMARK  12 active torsions:
REMARK  status: ('A' for Active; 'I' for Inactive)
REMARK    1  A    between atoms: C_1  and  O_2
REMARK    2  A    between atoms: O_2  and  C_3
REMARK    3  A    between atoms: C_5  and  C_6
REMARK    4  A    between atoms: C_6  and  C_7
REMARK    5  A    between atoms: C_9  and  C_11
REMARK    6  A    between atoms: C_11  and  O_12
REMARK    7  A    between atoms: C_13  and  C_15
REMARK    8  A    between atoms: C_18  and  O_19
REMARK    9  A    between atoms: C_20  and  O_21
REMARK   10  A    between atoms: O_21  and  C_22
REMARK   11  A    between atoms: C_28  and  O_29
REMARK   12  A    between atoms: O_29  and  C_30
REMARK                            x       y       z     vdW  Elec       q    Type
REMARK                         _______ _______ _______ _____ _____    ______ ____
ROOT
ATOM      1  C   LIG A   1      -8.304  -1.477 126.634  0.00  0.00    +0.027 C 
ATOM      2  C   LIG A   1      -8.555  -1.127 125.162  0.00  0.00    +0.053 C 
ATOM      3  C   LIG A   1      -7.479  -0.067 124.885  0.00  0.00    +0.154 C 
ATOM      4  O   LIG A   1      -7.166   0.535 126.160  0.00  0.00    -0.371 OA
ATOM      5  C   LIG A   1      -8.007  -0.074 127.151  0.00  0.00    +0.165 C 
ENDROOT
BRANCH   3   6
ATOM      6  C   LIG A   1      -7.821   1.043 123.918  0.00  0.00    -0.015 A 
ATOM      7  C   LIG A   1      -9.092   1.069 123.330  0.00  0.00    +0.010 A 
ATOM      8  C   LIG A   1      -9.435   2.065 122.416  0.00  0.00    +0.049 A 
ATOM      9  C   LIG A   1      -8.509   3.054 122.074  0.00  0.00    +0.159 A 
ATOM     10  C   LIG A   1      -7.224   3.039 122.616  0.00  0.00    +0.162 A 
ATOM     11  C   LIG A   1      -6.895   2.020 123.526  0.00  0.00    +0.055 A 
BRANCH   9  12
ATOM     12  O   LIG A   1      -8.898   4.023 121.197  0.00  0.00    -0.503 OA
ATOM     13  H   LIG A   1      -8.551   3.803 120.316  0.00  0.00    +0.292 HD
ENDBRANCH   9  12
BRANCH  10  14
ATOM     14  O   LIG A   1      -6.182   3.895 122.371  0.00  0.00    -0.491 OA
ATOM     15  C   LIG A   1      -5.436   4.354 123.490  0.00  0.00    +0.277 C 
ENDBRANCH  10  14
ENDBRANCH   3   6
BRANCH   1  16
ATOM     16  C   LIG A   1      -7.127  -2.449 126.837  0.00  0.00    +0.041 C 
BRANCH  16  19
ATOM     17  C   LIG A   1      -5.169  -2.876 130.085  0.00  0.00    +0.162 A 
ATOM     18  C   LIG A   1      -5.479  -2.679 128.734  0.00  0.00    +0.053 A 
ATOM     19  C   LIG A   1      -6.805  -2.730 128.283  0.00  0.00    -0.043 A 
ATOM     20  C   LIG A   1      -7.821  -3.015 129.198  0.00  0.00    +0.007 A 
ATOM     21  C   LIG A   1      -7.523  -3.241 130.541  0.00  0.00    +0.050 A 
ATOM     22  C   LIG A   1      -6.202  -3.171 130.998  0.00  0.00    +0.162 A 
BRANCH  17  24
ATOM     23  C   LIG A   1      -3.341  -1.489 130.747  0.00  0.00    +0.277 C 
ATOM     24  O   LIG A   1      -3.899  -2.789 130.603  0.00  0.00    -0.491 OA
ENDBRANCH  17  24
BRANCH  22  25
ATOM     25  O   LIG A   1      -5.829  -3.371 132.306  0.00  0.00    -0.491 OA
ATOM     26  C   LIG A   1      -5.778  -4.713 132.767  0.00  0.00    +0.277 C 
ENDBRANCH  22  25
ENDBRANCH  16  19
ENDBRANCH   1  16
BRANCH   2  27
ATOM     27  C   LIG A   1      -8.572  -2.261 124.151  0.00  0.00    +0.162 C 
BRANCH  27  28
ATOM     28  O   LIG A   1      -9.900  -2.767 124.056  0.00  0.00    -0.395 OA
ATOM     29  H   LIG A   1      -9.879  -3.694 124.351  0.00  0.00    +0.209 HD
ENDBRANCH  27  28
ENDBRANCH   2  27
TORSDOF 9
ENDMDL
MODEL 5
REMARK VINA RESULT:      -6.7      1.288      9.294
REMARK  Name = NuBBE_2473
REMARK  12 active torsions:
REMARK  status: ('A' for Active; 'I' for Inactive)
REMARK    1  A    between atoms: C_1  and  O_2
REMARK    2  A    between atoms: O_2  and  C_3
REMARK    3  A    between atoms: C_5  and  C_6
REMARK    4  A    between atoms: C_6  and  C_7
REMARK    5  A    between atoms: C_9  and  C_11
REMARK    6  A    between atoms: C_11  and  O_12
REMARK    7  A    between atoms: C_13  and  C_15
REMARK    8  A    between atoms: C_18  and  O_19
REMARK    9  A    between atoms: C_20  and  O_21
REMARK   10  A    between atoms: O_21  and  C_22
REMARK   11  A    between atoms: C_28  and  O_29
REMARK   12  A    between atoms: O_29  and  C_30
REMARK                            x       y       z     vdW  Elec       q    Type
REMARK                         _______ _______ _______ _____ _____    ______ ____
ROOT
ATOM      1  C   LIG A   1      -9.484   4.720 131.299  0.00  0.00    +0.027 C 
ATOM      2  C   LIG A   1      -8.766   3.416 130.929  0.00  0.00    +0.053 C 
ATOM      3  C   LIG A   1      -9.234   2.455 132.031  0.00  0.00    +0.154 C 
ATOM      4  O   LIG A   1      -9.585   3.279 133.165  0.00  0.00    -0.371 OA
ATOM      5  C   LIG A   1      -9.320   4.645 132.813  0.00  0.00    +0.165 C 
ENDROOT
BRANCH   3   6
ATOM      6  C   LIG A   1      -8.258   1.403 132.505  0.00  0.00    -0.015 A 
ATOM      7  C   LIG A   1      -7.169   1.788 133.297  0.00  0.00    +0.010 A 
ATOM      8  C   LIG A   1      -6.237   0.848 133.734  0.00  0.00    +0.049 A 
ATOM      9  C   LIG A   1      -6.377  -0.496 133.382  0.00  0.00    +0.159 A 
ATOM     10  C   LIG A   1      -7.431  -0.909 132.567  0.00  0.00    +0.162 A 
ATOM     11  C   LIG A   1      -8.354   0.055 132.129  0.00  0.00    +0.055 A 
BRANCH   9  12
ATOM     12  O   LIG A   1      -5.456  -1.383 133.855  0.00  0.00    -0.503 OA
ATOM     13  H   LIG A   1      -5.080  -1.872 133.103  0.00  0.00    +0.292 HD
ENDBRANCH   9  12
BRANCH  10  14
ATOM     14  O   LIG A   1      -7.705  -2.166 132.094  0.00  0.00    -0.491 OA
ATOM     15  C   LIG A   1      -7.069  -2.563 130.886  0.00  0.00    +0.277 C 
ENDBRANCH  10  14
ENDBRANCH   3   6
BRANCH   1  16
ATOM     16  C   LIG A   1     -10.960   4.748 130.860  0.00  0.00    +0.041 C 
BRANCH  16  19
ATOM     17  C   LIG A   1     -11.593   7.912 128.821  0.00  0.00    +0.162 A 
ATOM     18  C   LIG A   1     -11.091   6.671 129.231  0.00  0.00    +0.053 A 
ATOM     19  C   LIG A   1     -11.457   6.116 130.465  0.00  0.00    -0.043 A 
ATOM     20  C   LIG A   1     -12.310   6.835 131.305  0.00  0.00    +0.007 A 
ATOM     21  C   LIG A   1     -12.794   8.085 130.921  0.00  0.00    +0.050 A 
ATOM     22  C   LIG A   1     -12.447   8.633 129.681  0.00  0.00    +0.162 A 
BRANCH  17  24
ATOM     23  C   LIG A   1     -11.003   7.619 126.526  0.00  0.00    +0.277 C 
ATOM     24  O   LIG A   1     -11.317   8.490 127.605  0.00  0.00    -0.491 OA
ENDBRANCH  17  24
BRANCH  22  25
ATOM     25  O   LIG A   1     -12.890   9.852 129.228  0.00  0.00    -0.491 OA
ATOM     26  C   LIG A   1     -13.419  10.750 130.194  0.00  0.00    +0.277 C 
ENDBRANCH  22  25
ENDBRANCH  16  19
ENDBRANCH   1  16
BRANCH   2  27
ATOM     27  C   LIG A   1      -8.952   2.872 129.522  0.00  0.00    +0.162 C 
BRANCH  27  28
ATOM     28  O   LIG A   1      -8.588   3.885 128.590  0.00  0.00    -0.395 OA
ATOM     29  H   LIG A   1      -8.964   3.636 127.729  0.00  0.00    +0.209 HD
ENDBRANCH  27  28
ENDBRANCH   2  27
TORSDOF 9
ENDMDL
MODEL 6
REMARK VINA RESULT:      -6.7      4.211      8.523
REMARK  Name = NuBBE_2473
REMARK  12 active torsions:
REMARK  status: ('A' for Active; 'I' for Inactive)
REMARK    1  A    between atoms: C_1  and  O_2
REMARK    2  A    between atoms: O_2  and  C_3
REMARK    3  A    between atoms: C_5  and  C_6
REMARK    4  A    between atoms: C_6  and  C_7
REMARK    5  A    between atoms: C_9  and  C_11
REMARK    6  A    between atoms: C_11  and  O_12
REMARK    7  A    between atoms: C_13  and  C_15
REMARK    8  A    between atoms: C_18  and  O_19
REMARK    9  A    between atoms: C_20  and  O_21
REMARK   10  A    between atoms: O_21  and  C_22
REMARK   11  A    between atoms: C_28  and  O_29
REMARK   12  A    between atoms: O_29  and  C_30
REMARK                            x       y       z     vdW  Elec       q    Type
REMARK                         _______ _______ _______ _____ _____    ______ ____
ROOT
ATOM      1  C   LIG A   1      -7.807   4.914 131.174  0.00  0.00    +0.027 C 
ATOM      2  C   LIG A   1      -6.299   4.671 131.040  0.00  0.00    +0.053 C 
ATOM      3  C   LIG A   1      -6.017   5.123 129.600  0.00  0.00    +0.154 C 
ATOM      4  O   LIG A   1      -7.261   4.981 128.880  0.00  0.00    -0.371 OA
ATOM      5  C   LIG A   1      -8.235   4.445 129.788  0.00  0.00    +0.165 C 
ENDROOT
BRANCH   3   6
ATOM      6  C   LIG A   1      -4.947   4.385 128.831  0.00  0.00    -0.015 A 
ATOM      7  C   LIG A   1      -3.641   4.893 128.817  0.00  0.00    +0.010 A 
ATOM      8  C   LIG A   1      -2.633   4.251 128.099  0.00  0.00    +0.049 A 
ATOM      9  C   LIG A   1      -2.915   3.087 127.380  0.00  0.00    +0.159 A 
ATOM     10  C   LIG A   1      -4.210   2.572 127.345  0.00  0.00    +0.162 A 
ATOM     11  C   LIG A   1      -5.215   3.240 128.066  0.00  0.00    +0.055 A 
BRANCH   9  12
ATOM     12  O   LIG A   1      -1.891   2.479 126.715  0.00  0.00    -0.503 OA
ATOM     13  H   LIG A   1      -2.255   2.013 125.943  0.00  0.00    +0.292 HD
ENDBRANCH   9  12
BRANCH  10  14
ATOM     14  O   LIG A   1      -4.677   1.474 126.670  0.00  0.00    -0.491 OA
ATOM     15  C   LIG A   1      -5.733   1.678 125.740  0.00  0.00    +0.277 C 
ENDBRANCH  10  14
ENDBRANCH   3   6
BRANCH   1  16
ATOM     16  C   LIG A   1      -8.165   6.388 131.442  0.00  0.00    +0.041 C 
BRANCH  16  19
ATOM     17  C   LIG A   1     -10.870   7.880 129.199  0.00  0.00    +0.162 A 
ATOM     18  C   LIG A   1      -9.620   7.545 129.735  0.00  0.00    +0.053 A 
ATOM     19  C   LIG A   1      -9.519   6.797 130.916  0.00  0.00    -0.043 A 
ATOM     20  C   LIG A   1     -10.687   6.412 131.577  0.00  0.00    +0.007 A 
ATOM     21  C   LIG A   1     -11.937   6.763 131.069  0.00  0.00    +0.050 A 
ATOM     22  C   LIG A   1     -12.043   7.493 129.880  0.00  0.00    +0.162 A 
BRANCH  17  24
ATOM     23  C   LIG A   1     -10.750   7.872 126.814  0.00  0.00    +0.277 C 
ATOM     24  O   LIG A   1     -11.042   8.565 128.021  0.00  0.00    -0.491 OA
ENDBRANCH  17  24
BRANCH  22  25
ATOM     25  O   LIG A   1     -13.236   7.867 129.311  0.00  0.00    -0.491 OA
ATOM     26  C   LIG A   1     -13.844   6.947 128.415  0.00  0.00    +0.277 C 
ENDBRANCH  22  25
ENDBRANCH  16  19
ENDBRANCH   1  16
BRANCH   2  27
ATOM     27  C   LIG A   1      -5.379   5.303 132.072  0.00  0.00    +0.162 C 
BRANCH  27  28
ATOM     28  O   LIG A   1      -5.618   4.687 133.333  0.00  0.00    -0.395 OA
ATOM     29  H   LIG A   1      -6.573   4.744 133.508  0.00  0.00    +0.209 HD
ENDBRANCH  27  28
ENDBRANCH   2  27
TORSDOF 9
ENDMDL
MODEL 7
REMARK VINA RESULT:      -6.6      7.140      9.340
REMARK  Name = NuBBE_2473
REMARK  12 active torsions:
REMARK  status: ('A' for Active; 'I' for Inactive)
REMARK    1  A    between atoms: C_1  and  O_2
REMARK    2  A    between atoms: O_2  and  C_3
REMARK    3  A    between atoms: C_5  and  C_6
REMARK    4  A    between atoms: C_6  and  C_7
REMARK    5  A    between atoms: C_9  and  C_11
REMARK    6  A    between atoms: C_11  and  O_12
REMARK    7  A    between atoms: C_13  and  C_15
REMARK    8  A    between atoms: C_18  and  O_19
REMARK    9  A    between atoms: C_20  and  O_21
REMARK   10  A    between atoms: O_21  and  C_22
REMARK   11  A    between atoms: C_28  and  O_29
REMARK   12  A    between atoms: O_29  and  C_30
REMARK                            x       y       z     vdW  Elec       q    Type
REMARK                         _______ _______ _______ _____ _____    ______ ____
ROOT
ATOM      1  C   LIG A   1      -3.135   4.325 128.610  0.00  0.00    +0.027 C 
ATOM      2  C   LIG A   1      -3.196   3.615 127.252  0.00  0.00    +0.053 C 
ATOM      3  C   LIG A   1      -4.337   4.356 126.541  0.00  0.00    +0.154 C 
ATOM      4  O   LIG A   1      -5.181   4.895 127.583  0.00  0.00    -0.371 OA
ATOM      5  C   LIG A   1      -4.632   4.490 128.846  0.00  0.00    +0.165 C 
ENDROOT
BRANCH   3   6
ATOM      6  C   LIG A   1      -5.212   3.560 125.600  0.00  0.00    -0.015 A 
ATOM      7  C   LIG A   1      -5.727   4.182 124.456  0.00  0.00    +0.010 A 
ATOM      8  C   LIG A   1      -6.556   3.485 123.577  0.00  0.00    +0.049 A 
ATOM      9  C   LIG A   1      -6.885   2.151 123.830  0.00  0.00    +0.159 A 
ATOM     10  C   LIG A   1      -6.416   1.511 124.977  0.00  0.00    +0.162 A 
ATOM     11  C   LIG A   1      -5.591   2.234 125.855  0.00  0.00    +0.055 A 
BRANCH   9  12
ATOM     12  O   LIG A   1      -7.675   1.503 122.928  0.00  0.00    -0.503 OA
ATOM     13  H   LIG A   1      -7.106   1.066 122.273  0.00  0.00    +0.292 HD
ENDBRANCH   9  12
BRANCH  10  14
ATOM     14  O   LIG A   1      -6.662   0.233 125.405  0.00  0.00    -0.491 OA
ATOM     15  C   LIG A   1      -5.539  -0.599 125.663  0.00  0.00    +0.277 C 
ENDBRANCH  10  14
ENDBRANCH   3   6
BRANCH   1  16
ATOM     16  C   LIG A   1      -2.387   5.671 128.560  0.00  0.00    +0.041 C 
BRANCH  16  19
ATOM     17  C   LIG A   1      -1.858   6.936 132.122  0.00  0.00    +0.162 A 
ATOM     18  C   LIG A   1      -1.795   6.148 130.966  0.00  0.00    +0.053 A 
ATOM     19  C   LIG A   1      -2.519   6.494 129.817  0.00  0.00    -0.043 A 
ATOM     20  C   LIG A   1      -3.337   7.625 129.846  0.00  0.00    +0.007 A 
ATOM     21  C   LIG A   1      -3.430   8.402 131.000  0.00  0.00    +0.050 A 
ATOM     22  C   LIG A   1      -2.694   8.071 132.143  0.00  0.00    +0.162 A 
BRANCH  17  24
ATOM     23  C   LIG A   1       0.120   7.339 133.399  0.00  0.00    +0.277 C 
ATOM     24  O   LIG A   1      -1.136   6.684 133.264  0.00  0.00    -0.491 OA
ENDBRANCH  17  24
BRANCH  22  25
ATOM     25  O   LIG A   1      -2.723   8.791 133.313  0.00  0.00    -0.491 OA
ATOM     26  C   LIG A   1      -2.265  10.135 133.258  0.00  0.00    +0.277 C 
ENDBRANCH  22  25
ENDBRANCH  16  19
ENDBRANCH   1  16
BRANCH   2  27
ATOM     27  C   LIG A   1      -1.919   3.527 126.433  0.00  0.00    +0.162 C 
BRANCH  27  28
ATOM     28  O   LIG A   1      -1.159   2.413 126.891  0.00  0.00    -0.395 OA
ATOM     29  H   LIG A   1      -0.688   2.694 127.695  0.00  0.00    +0.209 HD
ENDBRANCH  27  28
ENDBRANCH   2  27
TORSDOF 9
ENDMDL
MODEL 8
REMARK VINA RESULT:      -6.5      6.632      8.167
REMARK  Name = NuBBE_2473
REMARK  12 active torsions:
REMARK  status: ('A' for Active; 'I' for Inactive)
REMARK    1  A    between atoms: C_1  and  O_2
REMARK    2  A    between atoms: O_2  and  C_3
REMARK    3  A    between atoms: C_5  and  C_6
REMARK    4  A    between atoms: C_6  and  C_7
REMARK    5  A    between atoms: C_9  and  C_11
REMARK    6  A    between atoms: C_11  and  O_12
REMARK    7  A    between atoms: C_13  and  C_15
REMARK    8  A    between atoms: C_18  and  O_19
REMARK    9  A    between atoms: C_20  and  O_21
REMARK   10  A    between atoms: O_21  and  C_22
REMARK   11  A    between atoms: C_28  and  O_29
REMARK   12  A    between atoms: O_29  and  C_30
REMARK                            x       y       z     vdW  Elec       q    Type
REMARK                         _______ _______ _______ _____ _____    ______ ____
ROOT
ATOM      1  C   LIG A   1      -6.131  -1.723 128.481  0.00  0.00    +0.027 C 
ATOM      2  C   LIG A   1      -7.398  -1.973 127.655  0.00  0.00    +0.053 C 
ATOM      3  C   LIG A   1      -6.903  -1.759 126.217  0.00  0.00    +0.154 C 
ATOM      4  O   LIG A   1      -5.759  -0.882 126.308  0.00  0.00    -0.371 OA
ATOM      5  C   LIG A   1      -5.575  -0.544 127.691  0.00  0.00    +0.165 C 
ENDROOT
BRANCH   3   6
ATOM      6  C   LIG A   1      -7.872  -1.157 125.225  0.00  0.00    -0.015 A 
ATOM      7  C   LIG A   1      -8.213  -1.884 124.076  0.00  0.00    +0.010 A 
ATOM      8  C   LIG A   1      -9.085  -1.351 123.128  0.00  0.00    +0.049 A 
ATOM      9  C   LIG A   1      -9.631  -0.079 123.312  0.00  0.00    +0.159 A 
ATOM     10  C   LIG A   1      -9.288   0.685 124.427  0.00  0.00    +0.162 A 
ATOM     11  C   LIG A   1      -8.398   0.135 125.366  0.00  0.00    +0.055 A 
BRANCH   9  12
ATOM     12  O   LIG A   1     -10.501   0.390 122.372  0.00  0.00    -0.503 OA
ATOM     13  H   LIG A   1     -10.921   1.197 122.713  0.00  0.00    +0.292 HD
ENDBRANCH   9  12
BRANCH  10  14
ATOM     14  O   LIG A   1      -9.690   1.955 124.752  0.00  0.00    -0.491 OA
ATOM     15  C   LIG A   1      -8.740   3.001 124.598  0.00  0.00    +0.277 C 
ENDBRANCH  10  14
ENDBRANCH   3   6
BRANCH   1  16
ATOM     16  C   LIG A   1      -5.173  -2.929 128.507  0.00  0.00    +0.041 C 
BRANCH  16  19
ATOM     17  C   LIG A   1      -3.736  -3.365 132.016  0.00  0.00    +0.162 A 
ATOM     18  C   LIG A   1      -3.942  -2.904 130.710  0.00  0.00    +0.053 A 
ATOM     19  C   LIG A   1      -4.918  -3.482 129.887  0.00  0.00    -0.043 A 
ATOM     20  C   LIG A   1      -5.668  -4.554 130.374  0.00  0.00    +0.007 A 
ATOM     21  C   LIG A   1      -5.452  -5.042 131.663  0.00  0.00    +0.050 A 
ATOM     22  C   LIG A   1      -4.493  -4.454 132.495  0.00  0.00    +0.162 A 
BRANCH  17  24
ATOM     23  C   LIG A   1      -2.763  -1.393 132.947  0.00  0.00    +0.277 C 
ATOM     24  O   LIG A   1      -2.834  -2.812 132.893  0.00  0.00    -0.491 OA
ENDBRANCH  17  24
BRANCH  22  25
ATOM     25  O   LIG A   1      -4.230  -4.869 133.778  0.00  0.00    -0.491 OA
ATOM     26  C   LIG A   1      -3.726  -6.188 133.942  0.00  0.00    +0.277 C 
ENDBRANCH  22  25
ENDBRANCH  16  19
ENDBRANCH   1  16
BRANCH   2  27
ATOM     27  C   LIG A   1      -8.138  -3.285 127.859  0.00  0.00    +0.162 C 
BRANCH  27  28
ATOM     28  O   LIG A   1      -8.695  -3.294 129.169  0.00  0.00    -0.395 OA
ATOM     29  H   LIG A   1      -8.411  -2.475 129.611  0.00  0.00    +0.209 HD
ENDBRANCH  27  28
ENDBRANCH   2  27
TORSDOF 9
ENDMDL
MODEL 9
REMARK VINA RESULT:      -6.4      2.631      9.217
REMARK  Name = NuBBE_2473
REMARK  12 active torsions:
REMARK  status: ('A' for Active; 'I' for Inactive)
REMARK    1  A    between atoms: C_1  and  O_2
REMARK    2  A    between atoms: O_2  and  C_3
REMARK    3  A    between atoms: C_5  and  C_6
REMARK    4  A    between atoms: C_6  and  C_7
REMARK    5  A    between atoms: C_9  and  C_11
REMARK    6  A    between atoms: C_11  and  O_12
REMARK    7  A    between atoms: C_13  and  C_15
REMARK    8  A    between atoms: C_18  and  O_19
REMARK    9  A    between atoms: C_20  and  O_21
REMARK   10  A    between atoms: O_21  and  C_22
REMARK   11  A    between atoms: C_28  and  O_29
REMARK   12  A    between atoms: O_29  and  C_30
REMARK                            x       y       z     vdW  Elec       q    Type
REMARK                         _______ _______ _______ _____ _____    ______ ____
ROOT
ATOM      1  C   LIG A   1      -9.159   5.411 132.417  0.00  0.00    +0.027 C 
ATOM      2  C   LIG A   1      -7.709   5.203 131.964  0.00  0.00    +0.053 C 
ATOM      3  C   LIG A   1      -7.539   3.682 132.084  0.00  0.00    +0.154 C 
ATOM      4  O   LIG A   1      -8.495   3.244 133.074  0.00  0.00    -0.371 OA
ATOM      5  C   LIG A   1      -9.183   4.405 133.562  0.00  0.00    +0.165 C 
ENDROOT
BRANCH   3   6
ATOM      6  C   LIG A   1      -6.180   3.158 132.486  0.00  0.00    -0.015 A 
ATOM      7  C   LIG A   1      -5.519   2.254 131.644  0.00  0.00    +0.010 A 
ATOM      8  C   LIG A   1      -4.274   1.733 131.994  0.00  0.00    +0.049 A 
ATOM      9  C   LIG A   1      -3.668   2.106 133.196  0.00  0.00    +0.159 A 
ATOM     10  C   LIG A   1      -4.313   2.978 134.073  0.00  0.00    +0.162 A 
ATOM     11  C   LIG A   1      -5.572   3.484 133.708  0.00  0.00    +0.055 A 
BRANCH   9  12
ATOM     12  O   LIG A   1      -2.439   1.591 133.483  0.00  0.00    -0.503 OA
ATOM     13  H   LIG A   1      -2.387   1.426 134.440  0.00  0.00    +0.292 HD
ENDBRANCH   9  12
BRANCH  10  14
ATOM     14  O   LIG A   1      -3.894   3.422 135.301  0.00  0.00    -0.491 OA
ATOM     15  C   LIG A   1      -4.499   2.840 136.448  0.00  0.00    +0.277 C 
ENDBRANCH  10  14
ENDBRANCH   3   6
BRANCH   1  16
ATOM     16  C   LIG A   1     -10.192   5.091 131.321  0.00  0.00    +0.041 C 
BRANCH  16  19
ATOM     17  C   LIG A   1     -11.306   8.001 129.115  0.00  0.00    +0.162 A 
ATOM     18  C   LIG A   1     -10.575   6.920 129.624  0.00  0.00    +0.053 A 
ATOM     19  C   LIG A   1     -10.951   6.296 130.821  0.00  0.00    -0.043 A 
ATOM     20  C   LIG A   1     -12.052   6.787 131.525  0.00  0.00    +0.007 A 
ATOM     21  C   LIG A   1     -12.771   7.880 131.043  0.00  0.00    +0.050 A 
ATOM     22  C   LIG A   1     -12.411   8.493 129.838  0.00  0.00    +0.162 A 
BRANCH  17  24
ATOM     23  C   LIG A   1     -10.984   7.815 126.756  0.00  0.00    +0.277 C 
ATOM     24  O   LIG A   1     -11.024   8.625 127.923  0.00  0.00    -0.491 OA
ENDBRANCH  17  24
BRANCH  22  25
ATOM     25  O   LIG A   1     -13.075   9.566 129.293  0.00  0.00    -0.491 OA
ATOM     26  C   LIG A   1     -13.359  10.659 130.155  0.00  0.00    +0.277 C 
ENDBRANCH  22  25
ENDBRANCH  16  19
ENDBRANCH   1  16
BRANCH   2  27
ATOM     27  C   LIG A   1      -7.296   5.761 130.612  0.00  0.00    +0.162 C 
BRANCH  27  28
ATOM     28  O   LIG A   1      -7.197   7.178 130.715  0.00  0.00    -0.395 OA
ATOM     29  H   LIG A   1      -6.502   7.373 131.368  0.00  0.00    +0.209 HD
ENDBRANCH  27  28
ENDBRANCH   2  27
TORSDOF 9
ENDMDL
