MODEL 1
REMARK VINA RESULT:      -7.7      0.000      0.000
REMARK  Name = NuBBE_2331
REMARK  13 active torsions:
REMARK  status: ('A' for Active; 'I' for Inactive)
REMARK    1  A    between atoms: O_1  and  C_2
REMARK    2  A    between atoms: C_2  and  C_3
REMARK    3  A    between atoms: C_5  and  C_6
REMARK    4  A    between atoms: C_6  and  C_7
REMARK    5  A    between atoms: C_8  and  C_9
REMARK    6  A    between atoms: C_8  and  C_10
REMARK    7  A    between atoms: C_14  and  O_16
REMARK    8  A    between atoms: C_17  and  C_18
REMARK    9  A    between atoms: C_17  and  C_24
REMARK   10  A    between atoms: C_18  and  C_19
REMARK   11  A    between atoms: C_19  and  C_20
REMARK   12  A    between atoms: C_21  and  C_22
REMARK   13  A    between atoms: C_21  and  C_23
REMARK                            x       y       z     vdW  Elec       q    Type
REMARK                         _______ _______ _______ _____ _____    ______ ____
ROOT
ATOM      1  C   LIG A   1      -9.078   0.654 125.176  0.00  0.00    +0.060 A 
ATOM      2  C   LIG A   1      -8.969  -0.641 124.650  0.00  0.00    +0.022 A 
ATOM      3  C   LIG A   1      -8.455  -1.695 125.433  0.00  0.00    -0.001 A 
ATOM      4  C   LIG A   1      -8.052  -1.421 126.759  0.00  0.00    +0.128 A 
ATOM      5  C   LIG A   1      -8.160  -0.124 127.284  0.00  0.00    -0.002 A 
ATOM      6  C   LIG A   1      -7.691   0.211 128.669  0.00  0.00    +0.074 C 
ATOM      7  C   LIG A   1      -7.570  -1.040 129.520  0.00  0.00    +0.162 C 
ATOM      8  C   LIG A   1      -6.896  -2.189 128.734  0.00  0.00    +0.134 C 
ATOM      9  C   LIG A   1      -5.418  -1.880 128.400  0.00  0.00    +0.058 C 
ATOM     10  O   LIG A   1      -7.580  -2.476 127.496  0.00  0.00    -0.483 OA
ATOM     11  C   LIG A   1      -8.672   0.908 126.486  0.00  0.00    +0.022 A 
ENDROOT
BRANCH   1  12
ATOM     12  C   LIG A   1      -9.604   1.739 124.311  0.00  0.00    +0.337 C 
ATOM     13  O   LIG A   1     -10.153   1.587 123.233  0.00  0.00    -0.245 OA
BRANCH  12  14
ATOM     14  O   LIG A   1      -9.412   2.966 124.825  0.00  0.00    -0.477 OA
ATOM     15  H   LIG A   1      -9.846   3.564 124.181  0.00  0.00    +0.295 HD
ENDBRANCH  12  14
ENDBRANCH   1  12
BRANCH   7  16
ATOM     16  O   LIG A   1      -6.859  -0.748 130.725  0.00  0.00    -0.388 OA
ATOM     17  H   LIG A   1      -7.515  -0.525 131.407  0.00  0.00    +0.210 HD
ENDBRANCH   7  16
BRANCH   3  18
ATOM     18  C   LIG A   1      -8.262  -3.063 124.793  0.00  0.00    +0.066 C 
BRANCH  18  19
ATOM     19  C   LIG A   1      -6.822  -3.428 124.523  0.00  0.00    -0.023 C 
ATOM     20  C   LIG A   1      -5.990  -2.937 123.579  0.00  0.00    -0.079 C 
ATOM     21  C   LIG A   1      -6.337  -1.908 122.539  0.00  0.00    +0.038 C 
ATOM     22  C   LIG A   1      -4.557  -3.404 123.494  0.00  0.00    +0.038 C 
ENDBRANCH  18  19
ENDBRANCH   3  18
BRANCH   8  23
ATOM     23  C   LIG A   1      -6.930  -3.494 129.581  0.00  0.00    +0.054 C 
BRANCH  23  24
ATOM     24  C   LIG A   1      -5.548  -3.990 130.043  0.00  0.00    +0.031 C 
BRANCH  24  25
ATOM     25  C   LIG A   1      -5.655  -4.843 131.277  0.00  0.00    -0.028 C 
ATOM     26  C   LIG A   1      -5.608  -4.428 132.559  0.00  0.00    -0.080 C 
ATOM     27  C   LIG A   1      -5.437  -3.000 133.002  0.00  0.00    +0.038 C 
ATOM     28  C   LIG A   1      -5.683  -5.419 133.691  0.00  0.00    +0.038 C 
ENDBRANCH  24  25
ENDBRANCH  23  24
ENDBRANCH   8  23
TORSDOF 8
ENDMDL
MODEL 2
REMARK VINA RESULT:      -7.7      2.462      7.567
REMARK  Name = NuBBE_2331
REMARK  13 active torsions:
REMARK  status: ('A' for Active; 'I' for Inactive)
REMARK    1  A    between atoms: O_1  and  C_2
REMARK    2  A    between atoms: C_2  and  C_3
REMARK    3  A    between atoms: C_5  and  C_6
REMARK    4  A    between atoms: C_6  and  C_7
REMARK    5  A    between atoms: C_8  and  C_9
REMARK    6  A    between atoms: C_8  and  C_10
REMARK    7  A    between atoms: C_14  and  O_16
REMARK    8  A    between atoms: C_17  and  C_18
REMARK    9  A    between atoms: C_17  and  C_24
REMARK   10  A    between atoms: C_18  and  C_19
REMARK   11  A    between atoms: C_19  and  C_20
REMARK   12  A    between atoms: C_21  and  C_22
REMARK   13  A    between atoms: C_21  and  C_23
REMARK                            x       y       z     vdW  Elec       q    Type
REMARK                         _______ _______ _______ _____ _____    ______ ____
ROOT
ATOM      1  C   LIG A   1      -7.687  -1.588 128.084  0.00  0.00    +0.060 A 
ATOM      2  C   LIG A   1      -7.750  -2.408 126.948  0.00  0.00    +0.022 A 
ATOM      3  C   LIG A   1      -8.064  -1.865 125.686  0.00  0.00    -0.001 A 
ATOM      4  C   LIG A   1      -8.312  -0.478 125.586  0.00  0.00    +0.128 A 
ATOM      5  C   LIG A   1      -8.250   0.342 126.724  0.00  0.00    -0.002 A 
ATOM      6  C   LIG A   1      -8.561   1.808 126.662  0.00  0.00    +0.074 C 
ATOM      7  C   LIG A   1      -8.461   2.326 125.239  0.00  0.00    +0.162 C 
ATOM      8  C   LIG A   1      -9.129   1.353 124.240  0.00  0.00    +0.134 C 
ATOM      9  C   LIG A   1     -10.658   1.264 124.445  0.00  0.00    +0.058 C 
ATOM     10  O   LIG A   1      -8.590   0.017 124.338  0.00  0.00    -0.483 OA
ATOM     11  C   LIG A   1      -7.939  -0.221 127.969  0.00  0.00    +0.022 A 
ENDROOT
BRANCH   1  12
ATOM     12  C   LIG A   1      -7.375  -2.204 129.397  0.00  0.00    +0.337 C 
ATOM     13  O   LIG A   1      -6.916  -1.623 130.365  0.00  0.00    -0.245 OA
BRANCH  12  14
ATOM     14  O   LIG A   1      -7.642  -3.521 129.441  0.00  0.00    -0.477 OA
ATOM     15  H   LIG A   1      -7.578  -3.745 130.393  0.00  0.00    +0.295 HD
ENDBRANCH  12  14
ENDBRANCH   1  12
BRANCH   7  16
ATOM     16  O   LIG A   1      -9.030   3.633 125.150  0.00  0.00    -0.388 OA
ATOM     17  H   LIG A   1      -8.357   4.223 124.770  0.00  0.00    +0.210 HD
ENDBRANCH   7  16
BRANCH   3  18
ATOM     18  C   LIG A   1      -8.219  -2.803 124.496  0.00  0.00    +0.066 C 
BRANCH  18  19
ATOM     19  C   LIG A   1      -7.079  -3.777 124.318  0.00  0.00    -0.023 C 
ATOM     20  C   LIG A   1      -5.807  -3.528 123.940  0.00  0.00    -0.079 C 
ATOM     21  C   LIG A   1      -5.237  -2.185 123.575  0.00  0.00    +0.038 C 
ATOM     22  C   LIG A   1      -4.793  -4.643 123.859  0.00  0.00    +0.038 C 
ENDBRANCH  18  19
ENDBRANCH   3  18
BRANCH   8  23
ATOM     23  C   LIG A   1      -8.870   1.837 122.783  0.00  0.00    +0.054 C 
BRANCH  23  24
ATOM     24  C   LIG A   1      -7.623   2.722 122.619  0.00  0.00    +0.031 C 
BRANCH  24  25
ATOM     25  C   LIG A   1      -7.640   3.456 121.306  0.00  0.00    -0.028 C 
ATOM     26  C   LIG A   1      -6.574   3.867 120.589  0.00  0.00    -0.080 C 
ATOM     27  C   LIG A   1      -5.136   3.659 120.979  0.00  0.00    +0.038 C 
ATOM     28  C   LIG A   1      -6.760   4.637 119.308  0.00  0.00    +0.038 C 
ENDBRANCH  24  25
ENDBRANCH  23  24
ENDBRANCH   8  23
TORSDOF 8
ENDMDL
MODEL 3
REMARK VINA RESULT:      -7.6      4.154      6.541
REMARK  Name = NuBBE_2331
REMARK  13 active torsions:
REMARK  status: ('A' for Active; 'I' for Inactive)
REMARK    1  A    between atoms: O_1  and  C_2
REMARK    2  A    between atoms: C_2  and  C_3
REMARK    3  A    between atoms: C_5  and  C_6
REMARK    4  A    between atoms: C_6  and  C_7
REMARK    5  A    between atoms: C_8  and  C_9
REMARK    6  A    between atoms: C_8  and  C_10
REMARK    7  A    between atoms: C_14  and  O_16
REMARK    8  A    between atoms: C_17  and  C_18
REMARK    9  A    between atoms: C_17  and  C_24
REMARK   10  A    between atoms: C_18  and  C_19
REMARK   11  A    between atoms: C_19  and  C_20
REMARK   12  A    between atoms: C_21  and  C_22
REMARK   13  A    between atoms: C_21  and  C_23
REMARK                            x       y       z     vdW  Elec       q    Type
REMARK                         _______ _______ _______ _____ _____    ______ ____
ROOT
ATOM      1  C   LIG A   1      -5.495   4.284 121.884  0.00  0.00    +0.060 A 
ATOM      2  C   LIG A   1      -5.181   4.676 123.194  0.00  0.00    +0.022 A 
ATOM      3  C   LIG A   1      -5.701   3.971 124.299  0.00  0.00    -0.001 A 
ATOM      4  C   LIG A   1      -6.542   2.862 124.062  0.00  0.00    +0.128 A 
ATOM      5  C   LIG A   1      -6.857   2.471 122.751  0.00  0.00    -0.002 A 
ATOM      6  C   LIG A   1      -7.791   1.332 122.466  0.00  0.00    +0.074 C 
ATOM      7  C   LIG A   1      -7.928   0.425 123.676  0.00  0.00    +0.162 C 
ATOM      8  C   LIG A   1      -8.087   1.247 124.976  0.00  0.00    +0.134 C 
ATOM      9  C   LIG A   1      -9.416   2.035 125.010  0.00  0.00    +0.058 C 
ATOM     10  O   LIG A   1      -7.008   2.188 125.162  0.00  0.00    -0.483 OA
ATOM     11  C   LIG A   1      -6.331   3.189 121.668  0.00  0.00    +0.022 A 
ENDROOT
BRANCH   1  12
ATOM     12  C   LIG A   1      -4.945   5.066 120.750  0.00  0.00    +0.337 C 
ATOM     13  O   LIG A   1      -5.199   4.886 119.572  0.00  0.00    -0.245 OA
BRANCH  12  14
ATOM     14  O   LIG A   1      -4.095   6.034 121.137  0.00  0.00    -0.477 OA
ATOM     15  H   LIG A   1      -3.772   5.731 122.011  0.00  0.00    +0.295 HD
ENDBRANCH  12  14
ENDBRANCH   1  12
BRANCH   7  16
ATOM     16  O   LIG A   1      -9.021  -0.476 123.493  0.00  0.00    -0.388 OA
ATOM     17  H   LIG A   1      -9.782   0.044 123.180  0.00  0.00    +0.210 HD
ENDBRANCH   7  16
BRANCH   3  18
ATOM     18  C   LIG A   1      -5.416   4.487 125.703  0.00  0.00    +0.066 C 
BRANCH  18  19
ATOM     19  C   LIG A   1      -3.998   4.266 126.173  0.00  0.00    -0.023 C 
ATOM     20  C   LIG A   1      -3.413   3.120 126.584  0.00  0.00    -0.079 C 
ATOM     21  C   LIG A   1      -4.078   1.776 126.694  0.00  0.00    +0.038 C 
ATOM     22  C   LIG A   1      -1.957   3.095 126.980  0.00  0.00    +0.038 C 
ENDBRANCH  18  19
ENDBRANCH   3  18
BRANCH   8  23
ATOM     23  C   LIG A   1      -8.067   0.291 126.205  0.00  0.00    +0.054 C 
BRANCH  23  24
ATOM     24  C   LIG A   1      -7.147  -0.931 126.047  0.00  0.00    +0.031 C 
BRANCH  24  25
ATOM     25  C   LIG A   1      -7.489  -2.008 127.041  0.00  0.00    -0.028 C 
ATOM     26  C   LIG A   1      -8.497  -2.899 126.960  0.00  0.00    -0.080 C 
ATOM     27  C   LIG A   1      -9.491  -2.984 125.833  0.00  0.00    +0.038 C 
ATOM     28  C   LIG A   1      -8.737  -3.890 128.069  0.00  0.00    +0.038 C 
ENDBRANCH  24  25
ENDBRANCH  23  24
ENDBRANCH   8  23
TORSDOF 8
ENDMDL
MODEL 4
REMARK VINA RESULT:      -7.6      3.713      5.309
REMARK  Name = NuBBE_2331
REMARK  13 active torsions:
REMARK  status: ('A' for Active; 'I' for Inactive)
REMARK    1  A    between atoms: O_1  and  C_2
REMARK    2  A    between atoms: C_2  and  C_3
REMARK    3  A    between atoms: C_5  and  C_6
REMARK    4  A    between atoms: C_6  and  C_7
REMARK    5  A    between atoms: C_8  and  C_9
REMARK    6  A    between atoms: C_8  and  C_10
REMARK    7  A    between atoms: C_14  and  O_16
REMARK    8  A    between atoms: C_17  and  C_18
REMARK    9  A    between atoms: C_17  and  C_24
REMARK   10  A    between atoms: C_18  and  C_19
REMARK   11  A    between atoms: C_19  and  C_20
REMARK   12  A    between atoms: C_21  and  C_22
REMARK   13  A    between atoms: C_21  and  C_23
REMARK                            x       y       z     vdW  Elec       q    Type
REMARK                         _______ _______ _______ _____ _____    ______ ____
ROOT
ATOM      1  C   LIG A   1      -5.684   4.083 122.250  0.00  0.00    +0.060 A 
ATOM      2  C   LIG A   1      -6.439   2.902 122.185  0.00  0.00    +0.022 A 
ATOM      3  C   LIG A   1      -6.825   2.230 123.363  0.00  0.00    -0.001 A 
ATOM      4  C   LIG A   1      -6.437   2.768 124.610  0.00  0.00    +0.128 A 
ATOM      5  C   LIG A   1      -5.680   3.949 124.674  0.00  0.00    -0.002 A 
ATOM      6  C   LIG A   1      -5.207   4.516 125.979  0.00  0.00    +0.074 C 
ATOM      7  C   LIG A   1      -6.020   3.968 127.138  0.00  0.00    +0.162 C 
ATOM      8  C   LIG A   1      -6.242   2.445 126.994  0.00  0.00    +0.134 C 
ATOM      9  C   LIG A   1      -4.923   1.648 127.118  0.00  0.00    +0.058 C 
ATOM     10  O   LIG A   1      -6.852   2.099 125.733  0.00  0.00    -0.483 OA
ATOM     11  C   LIG A   1      -5.306   4.598 123.490  0.00  0.00    +0.022 A 
ENDROOT
BRANCH   1  12
ATOM     12  C   LIG A   1      -5.280   4.746 120.987  0.00  0.00    +0.337 C 
ATOM     13  O   LIG A   1      -5.621   4.411 119.865  0.00  0.00    -0.245 OA
BRANCH  12  14
ATOM     14  O   LIG A   1      -4.459   5.794 121.177  0.00  0.00    -0.477 OA
ATOM     15  H   LIG A   1      -4.005   5.590 122.022  0.00  0.00    +0.295 HD
ENDBRANCH  12  14
ENDBRANCH   1  12
BRANCH   7  16
ATOM     16  O   LIG A   1      -5.385   4.287 128.377  0.00  0.00    -0.388 OA
ATOM     17  H   LIG A   1      -4.604   4.831 128.177  0.00  0.00    +0.210 HD
ENDBRANCH   7  16
BRANCH   3  18
ATOM     18  C   LIG A   1      -7.559   0.901 123.247  0.00  0.00    +0.066 C 
BRANCH  18  19
ATOM     19  C   LIG A   1      -6.671  -0.315 123.368  0.00  0.00    -0.023 C 
ATOM     20  C   LIG A   1      -6.978  -1.610 123.141  0.00  0.00    -0.079 C 
ATOM     21  C   LIG A   1      -8.324  -2.144 122.732  0.00  0.00    +0.038 C 
ATOM     22  C   LIG A   1      -5.931  -2.688 123.278  0.00  0.00    +0.038 C 
ENDBRANCH  18  19
ENDBRANCH   3  18
BRANCH   8  23
ATOM     23  C   LIG A   1      -7.206   1.948 128.111  0.00  0.00    +0.054 C 
BRANCH  23  24
ATOM     24  C   LIG A   1      -6.932   0.514 128.597  0.00  0.00    +0.031 C 
BRANCH  24  25
ATOM     25  C   LIG A   1      -7.823  -0.480 127.904  0.00  0.00    -0.028 C 
ATOM     26  C   LIG A   1      -7.438  -1.536 127.159  0.00  0.00    -0.080 C 
ATOM     27  C   LIG A   1      -6.012  -1.925 126.878  0.00  0.00    +0.038 C 
ATOM     28  C   LIG A   1      -8.460  -2.416 126.488  0.00  0.00    +0.038 C 
ENDBRANCH  24  25
ENDBRANCH  23  24
ENDBRANCH   8  23
TORSDOF 8
ENDMDL
MODEL 5
REMARK VINA RESULT:      -7.4      3.322      4.547
REMARK  Name = NuBBE_2331
REMARK  13 active torsions:
REMARK  status: ('A' for Active; 'I' for Inactive)
REMARK    1  A    between atoms: O_1  and  C_2
REMARK    2  A    between atoms: C_2  and  C_3
REMARK    3  A    between atoms: C_5  and  C_6
REMARK    4  A    between atoms: C_6  and  C_7
REMARK    5  A    between atoms: C_8  and  C_9
REMARK    6  A    between atoms: C_8  and  C_10
REMARK    7  A    between atoms: C_14  and  O_16
REMARK    8  A    between atoms: C_17  and  C_18
REMARK    9  A    between atoms: C_17  and  C_24
REMARK   10  A    between atoms: C_18  and  C_19
REMARK   11  A    between atoms: C_19  and  C_20
REMARK   12  A    between atoms: C_21  and  C_22
REMARK   13  A    between atoms: C_21  and  C_23
REMARK                            x       y       z     vdW  Elec       q    Type
REMARK                         _______ _______ _______ _____ _____    ______ ____
ROOT
ATOM      1  C   LIG A   1      -6.013   3.566 122.504  0.00  0.00    +0.060 A 
ATOM      2  C   LIG A   1      -6.688   2.338 122.440  0.00  0.00    +0.022 A 
ATOM      3  C   LIG A   1      -7.017   1.635 123.616  0.00  0.00    -0.001 A 
ATOM      4  C   LIG A   1      -6.655   2.192 124.863  0.00  0.00    +0.128 A 
ATOM      5  C   LIG A   1      -5.978   3.420 124.927  0.00  0.00    -0.002 A 
ATOM      6  C   LIG A   1      -5.532   4.011 126.231  0.00  0.00    +0.074 C 
ATOM      7  C   LIG A   1      -6.296   3.404 127.394  0.00  0.00    +0.162 C 
ATOM      8  C   LIG A   1      -6.416   1.870 127.244  0.00  0.00    +0.134 C 
ATOM      9  C   LIG A   1      -5.046   1.163 127.352  0.00  0.00    +0.058 C 
ATOM     10  O   LIG A   1      -7.013   1.491 125.986  0.00  0.00    -0.483 OA
ATOM     11  C   LIG A   1      -5.659   4.099 123.743  0.00  0.00    +0.022 A 
ENDROOT
BRANCH   1  12
ATOM     12  C   LIG A   1      -5.666   4.261 121.241  0.00  0.00    +0.337 C 
ATOM     13  O   LIG A   1      -4.907   5.209 121.135  0.00  0.00    -0.245 OA
BRANCH  12  14
ATOM     14  O   LIG A   1      -6.289   3.749 120.165  0.00  0.00    -0.477 OA
ATOM     15  H   LIG A   1      -6.110   4.399 119.454  0.00  0.00    +0.295 HD
ENDBRANCH  12  14
ENDBRANCH   1  12
BRANCH   7  16
ATOM     16  O   LIG A   1      -5.672   3.758 128.630  0.00  0.00    -0.388 OA
ATOM     17  H   LIG A   1      -5.713   4.726 128.714  0.00  0.00    +0.210 HD
ENDBRANCH   7  16
BRANCH   3  18
ATOM     18  C   LIG A   1      -7.661   0.260 123.500  0.00  0.00    +0.066 C 
BRANCH  18  19
ATOM     19  C   LIG A   1      -6.713  -0.840 123.087  0.00  0.00    -0.023 C 
ATOM     20  C   LIG A   1      -6.076  -1.742 123.865  0.00  0.00    -0.079 C 
ATOM     21  C   LIG A   1      -6.153  -1.829 125.365  0.00  0.00    +0.038 C 
ATOM     22  C   LIG A   1      -5.192  -2.801 123.255  0.00  0.00    +0.038 C 
ENDBRANCH  18  19
ENDBRANCH   3  18
BRANCH   8  23
ATOM     23  C   LIG A   1      -7.335   1.304 128.367  0.00  0.00    +0.054 C 
BRANCH  23  24
ATOM     24  C   LIG A   1      -7.899  -0.099 128.080  0.00  0.00    +0.031 C 
BRANCH  24  25
ATOM     25  C   LIG A   1      -7.559  -1.063 129.183  0.00  0.00    -0.028 C 
ATOM     26  C   LIG A   1      -7.775  -2.394 129.195  0.00  0.00    -0.080 C 
ATOM     27  C   LIG A   1      -8.411  -3.179 128.080  0.00  0.00    +0.038 C 
ATOM     28  C   LIG A   1      -7.418  -3.220 130.403  0.00  0.00    +0.038 C 
ENDBRANCH  24  25
ENDBRANCH  23  24
ENDBRANCH   8  23
TORSDOF 8
ENDMDL
MODEL 6
REMARK VINA RESULT:      -7.4      1.367      1.906
REMARK  Name = NuBBE_2331
REMARK  13 active torsions:
REMARK  status: ('A' for Active; 'I' for Inactive)
REMARK    1  A    between atoms: O_1  and  C_2
REMARK    2  A    between atoms: C_2  and  C_3
REMARK    3  A    between atoms: C_5  and  C_6
REMARK    4  A    between atoms: C_6  and  C_7
REMARK    5  A    between atoms: C_8  and  C_9
REMARK    6  A    between atoms: C_8  and  C_10
REMARK    7  A    between atoms: C_14  and  O_16
REMARK    8  A    between atoms: C_17  and  C_18
REMARK    9  A    between atoms: C_17  and  C_24
REMARK   10  A    between atoms: C_18  and  C_19
REMARK   11  A    between atoms: C_19  and  C_20
REMARK   12  A    between atoms: C_21  and  C_22
REMARK   13  A    between atoms: C_21  and  C_23
REMARK                            x       y       z     vdW  Elec       q    Type
REMARK                         _______ _______ _______ _____ _____    ______ ____
ROOT
ATOM      1  C   LIG A   1      -9.263   0.567 124.201  0.00  0.00    +0.060 A 
ATOM      2  C   LIG A   1      -8.989  -0.805 124.300  0.00  0.00    +0.022 A 
ATOM      3  C   LIG A   1      -8.509  -1.358 125.505  0.00  0.00    -0.001 A 
ATOM      4  C   LIG A   1      -8.310  -0.503 126.612  0.00  0.00    +0.128 A 
ATOM      5  C   LIG A   1      -8.582   0.870 126.512  0.00  0.00    -0.002 A 
ATOM      6  C   LIG A   1      -8.329   1.813 127.651  0.00  0.00    +0.074 C 
ATOM      7  C   LIG A   1      -8.233   1.062 128.967  0.00  0.00    +0.162 C 
ATOM      8  C   LIG A   1      -7.377  -0.217 128.820  0.00  0.00    +0.134 C 
ATOM      9  C   LIG A   1      -5.895   0.102 128.519  0.00  0.00    +0.058 C 
ATOM     10  O   LIG A   1      -7.865  -1.082 127.772  0.00  0.00    -0.483 OA
ATOM     11  C   LIG A   1      -9.056   1.397 125.302  0.00  0.00    +0.022 A 
ENDROOT
BRANCH   1  12
ATOM     12  C   LIG A   1      -9.745   1.112 122.908  0.00  0.00    +0.337 C 
ATOM     13  O   LIG A   1     -10.488   0.542 122.128  0.00  0.00    -0.245 OA
BRANCH  12  14
ATOM     14  O   LIG A   1      -9.270   2.341 122.641  0.00  0.00    -0.477 OA
ATOM     15  H   LIG A   1     -10.070   2.908 122.629  0.00  0.00    +0.295 HD
ENDBRANCH  12  14
ENDBRANCH   1  12
BRANCH   7  16
ATOM     16  O   LIG A   1      -7.714   1.921 129.984  0.00  0.00    -0.388 OA
ATOM     17  H   LIG A   1      -6.993   2.443 129.591  0.00  0.00    +0.210 HD
ENDBRANCH   7  16
BRANCH   3  18
ATOM     18  C   LIG A   1      -8.133  -2.833 125.541  0.00  0.00    +0.066 C 
BRANCH  18  19
ATOM     19  C   LIG A   1      -7.068  -3.230 124.546  0.00  0.00    -0.023 C 
ATOM     20  C   LIG A   1      -5.827  -2.721 124.390  0.00  0.00    -0.079 C 
ATOM     21  C   LIG A   1      -5.226  -1.591 125.180  0.00  0.00    +0.038 C 
ATOM     22  C   LIG A   1      -4.886  -3.286 123.354  0.00  0.00    +0.038 C 
ENDBRANCH  18  19
ENDBRANCH   3  18
BRANCH   8  23
ATOM     23  C   LIG A   1      -7.429  -1.038 130.142  0.00  0.00    +0.054 C 
BRANCH  23  24
ATOM     24  C   LIG A   1      -7.843  -2.508 129.962  0.00  0.00    +0.031 C 
BRANCH  24  25
ATOM     25  C   LIG A   1      -7.028  -3.419 130.840  0.00  0.00    -0.028 C 
ATOM     26  C   LIG A   1      -5.771  -3.853 130.616  0.00  0.00    -0.080 C 
ATOM     27  C   LIG A   1      -4.931  -3.496 129.420  0.00  0.00    +0.038 C 
ATOM     28  C   LIG A   1      -5.105  -4.806 131.575  0.00  0.00    +0.038 C 
ENDBRANCH  24  25
ENDBRANCH  23  24
ENDBRANCH   8  23
TORSDOF 8
ENDMDL
MODEL 7
REMARK VINA RESULT:      -7.3      4.403      7.047
REMARK  Name = NuBBE_2331
REMARK  13 active torsions:
REMARK  status: ('A' for Active; 'I' for Inactive)
REMARK    1  A    between atoms: O_1  and  C_2
REMARK    2  A    between atoms: C_2  and  C_3
REMARK    3  A    between atoms: C_5  and  C_6
REMARK    4  A    between atoms: C_6  and  C_7
REMARK    5  A    between atoms: C_8  and  C_9
REMARK    6  A    between atoms: C_8  and  C_10
REMARK    7  A    between atoms: C_14  and  O_16
REMARK    8  A    between atoms: C_17  and  C_18
REMARK    9  A    between atoms: C_17  and  C_24
REMARK   10  A    between atoms: C_18  and  C_19
REMARK   11  A    between atoms: C_19  and  C_20
REMARK   12  A    between atoms: C_21  and  C_22
REMARK   13  A    between atoms: C_21  and  C_23
REMARK                            x       y       z     vdW  Elec       q    Type
REMARK                         _______ _______ _______ _____ _____    ______ ____
ROOT
ATOM      1  C   LIG A   1      -5.594   4.353 121.724  0.00  0.00    +0.060 A 
ATOM      2  C   LIG A   1      -5.062   4.538 123.008  0.00  0.00    +0.022 A 
ATOM      3  C   LIG A   1      -5.540   3.786 124.100  0.00  0.00    -0.001 A 
ATOM      4  C   LIG A   1      -6.565   2.840 123.876  0.00  0.00    +0.128 A 
ATOM      5  C   LIG A   1      -7.098   2.656 122.590  0.00  0.00    -0.002 A 
ATOM      6  C   LIG A   1      -8.224   1.700 122.328  0.00  0.00    +0.074 C 
ATOM      7  C   LIG A   1      -8.345   0.682 123.448  0.00  0.00    +0.162 C 
ATOM      8  C   LIG A   1      -8.212   1.357 124.833  0.00  0.00    +0.134 C 
ATOM      9  C   LIG A   1      -9.389   2.312 125.134  0.00  0.00    +0.058 C 
ATOM     10  O   LIG A   1      -6.987   2.110 124.957  0.00  0.00    -0.483 OA
ATOM     11  C   LIG A   1      -6.608   3.418 121.521  0.00  0.00    +0.022 A 
ENDROOT
BRANCH   1  12
ATOM     12  C   LIG A   1      -5.078   5.182 120.607  0.00  0.00    +0.337 C 
ATOM     13  O   LIG A   1      -5.369   5.052 119.431  0.00  0.00    -0.245 OA
BRANCH  12  14
ATOM     14  O   LIG A   1      -4.213   6.130 121.007  0.00  0.00    -0.477 OA
ATOM     15  H   LIG A   1      -4.332   6.166 121.979  0.00  0.00    +0.295 HD
ENDBRANCH  12  14
ENDBRANCH   1  12
BRANCH   7  16
ATOM     16  O   LIG A   1      -9.578  -0.030 123.333  0.00  0.00    -0.388 OA
ATOM     17  H   LIG A   1      -9.707  -0.531 124.157  0.00  0.00    +0.210 HD
ENDBRANCH   7  16
BRANCH   3  18
ATOM     18  C   LIG A   1      -5.006   4.085 125.494  0.00  0.00    +0.066 C 
BRANCH  18  19
ATOM     19  C   LIG A   1      -3.685   3.424 125.811  0.00  0.00    -0.023 C 
ATOM     20  C   LIG A   1      -2.766   3.775 126.736  0.00  0.00    -0.079 C 
ATOM     21  C   LIG A   1      -2.847   4.958 127.662  0.00  0.00    +0.038 C 
ATOM     22  C   LIG A   1      -1.514   2.955 126.931  0.00  0.00    +0.038 C 
ENDBRANCH  18  19
ENDBRANCH   3  18
BRANCH   8  23
ATOM     23  C   LIG A   1      -8.185   0.268 125.946  0.00  0.00    +0.054 C 
BRANCH  23  24
ATOM     24  C   LIG A   1      -7.338   0.636 127.177  0.00  0.00    +0.031 C 
BRANCH  24  25
ATOM     25  C   LIG A   1      -8.197   1.146 128.301  0.00  0.00    -0.028 C 
ATOM     26  C   LIG A   1      -8.295   2.418 128.739  0.00  0.00    -0.080 C 
ATOM     27  C   LIG A   1      -7.546   3.591 128.167  0.00  0.00    +0.038 C 
ATOM     28  C   LIG A   1      -9.171   2.761 129.915  0.00  0.00    +0.038 C 
ENDBRANCH  24  25
ENDBRANCH  23  24
ENDBRANCH   8  23
TORSDOF 8
ENDMDL
MODEL 8
REMARK VINA RESULT:      -7.3      3.887      5.785
REMARK  Name = NuBBE_2331
REMARK  13 active torsions:
REMARK  status: ('A' for Active; 'I' for Inactive)
REMARK    1  A    between atoms: O_1  and  C_2
REMARK    2  A    between atoms: C_2  and  C_3
REMARK    3  A    between atoms: C_5  and  C_6
REMARK    4  A    between atoms: C_6  and  C_7
REMARK    5  A    between atoms: C_8  and  C_9
REMARK    6  A    between atoms: C_8  and  C_10
REMARK    7  A    between atoms: C_14  and  O_16
REMARK    8  A    between atoms: C_17  and  C_18
REMARK    9  A    between atoms: C_17  and  C_24
REMARK   10  A    between atoms: C_18  and  C_19
REMARK   11  A    between atoms: C_19  and  C_20
REMARK   12  A    between atoms: C_21  and  C_22
REMARK   13  A    between atoms: C_21  and  C_23
REMARK                            x       y       z     vdW  Elec       q    Type
REMARK                         _______ _______ _______ _____ _____    ______ ____
ROOT
ATOM      1  C   LIG A   1      -6.129   3.734 122.012  0.00  0.00    +0.060 A 
ATOM      2  C   LIG A   1      -5.551   4.289 123.163  0.00  0.00    +0.022 A 
ATOM      3  C   LIG A   1      -5.654   3.635 124.407  0.00  0.00    -0.001 A 
ATOM      4  C   LIG A   1      -6.351   2.408 124.473  0.00  0.00    +0.128 A 
ATOM      5  C   LIG A   1      -6.931   1.854 123.321  0.00  0.00    -0.002 A 
ATOM      6  C   LIG A   1      -7.724   0.581 123.367  0.00  0.00    +0.074 C 
ATOM      7  C   LIG A   1      -7.405  -0.214 124.621  0.00  0.00    +0.162 C 
ATOM      8  C   LIG A   1      -7.345   0.704 125.864  0.00  0.00    +0.134 C 
ATOM      9  C   LIG A   1      -8.724   1.312 126.208  0.00  0.00    +0.058 C 
ATOM     10  O   LIG A   1      -6.410   1.790 125.695  0.00  0.00    -0.483 OA
ATOM     11  C   LIG A   1      -6.817   2.524 122.095  0.00  0.00    +0.022 A 
ENDROOT
BRANCH   1  12
ATOM     12  C   LIG A   1      -6.016   4.467 120.727  0.00  0.00    +0.337 C 
ATOM     13  O   LIG A   1      -5.191   5.326 120.467  0.00  0.00    -0.245 OA
BRANCH  12  14
ATOM     14  O   LIG A   1      -6.944   4.102 119.825  0.00  0.00    -0.477 OA
ATOM     15  H   LIG A   1      -7.533   4.882 119.761  0.00  0.00    +0.295 HD
ENDBRANCH  12  14
ENDBRANCH   1  12
BRANCH   7  16
ATOM     16  O   LIG A   1      -8.360  -1.262 124.794  0.00  0.00    -0.388 OA
ATOM     17  H   LIG A   1      -8.755  -1.158 125.676  0.00  0.00    +0.210 HD
ENDBRANCH   7  16
BRANCH   3  18
ATOM     18  C   LIG A   1      -5.098   4.318 125.649  0.00  0.00    +0.066 C 
BRANCH  18  19
ATOM     19  C   LIG A   1      -3.652   3.994 125.944  0.00  0.00    -0.023 C 
ATOM     20  C   LIG A   1      -3.144   3.226 126.931  0.00  0.00    -0.079 C 
ATOM     21  C   LIG A   1      -3.931   2.526 128.005  0.00  0.00    +0.038 C 
ATOM     22  C   LIG A   1      -1.658   2.987 127.036  0.00  0.00    +0.038 C 
ENDBRANCH  18  19
ENDBRANCH   3  18
BRANCH   8  23
ATOM     23  C   LIG A   1      -6.865  -0.116 127.097  0.00  0.00    +0.054 C 
BRANCH  23  24
ATOM     24  C   LIG A   1      -7.991  -0.546 128.053  0.00  0.00    +0.031 C 
BRANCH  24  25
ATOM     25  C   LIG A   1      -7.463  -1.397 129.176  0.00  0.00    -0.028 C 
ATOM     26  C   LIG A   1      -7.721  -2.702 129.399  0.00  0.00    -0.080 C 
ATOM     27  C   LIG A   1      -8.606  -3.568 128.544  0.00  0.00    +0.038 C 
ATOM     28  C   LIG A   1      -7.149  -3.404 130.603  0.00  0.00    +0.038 C 
ENDBRANCH  24  25
ENDBRANCH  23  24
ENDBRANCH   8  23
TORSDOF 8
ENDMDL
MODEL 9
REMARK VINA RESULT:      -7.3      1.654      6.303
REMARK  Name = NuBBE_2331
REMARK  13 active torsions:
REMARK  status: ('A' for Active; 'I' for Inactive)
REMARK    1  A    between atoms: O_1  and  C_2
REMARK    2  A    between atoms: C_2  and  C_3
REMARK    3  A    between atoms: C_5  and  C_6
REMARK    4  A    between atoms: C_6  and  C_7
REMARK    5  A    between atoms: C_8  and  C_9
REMARK    6  A    between atoms: C_8  and  C_10
REMARK    7  A    between atoms: C_14  and  O_16
REMARK    8  A    between atoms: C_17  and  C_18
REMARK    9  A    between atoms: C_17  and  C_24
REMARK   10  A    between atoms: C_18  and  C_19
REMARK   11  A    between atoms: C_19  and  C_20
REMARK   12  A    between atoms: C_21  and  C_22
REMARK   13  A    between atoms: C_21  and  C_23
REMARK                            x       y       z     vdW  Elec       q    Type
REMARK                         _______ _______ _______ _____ _____    ______ ____
ROOT
ATOM      1  C   LIG A   1      -8.086   0.254 130.374  0.00  0.00    +0.060 A 
ATOM      2  C   LIG A   1      -7.526  -0.949 129.918  0.00  0.00    +0.022 A 
ATOM      3  C   LIG A   1      -7.242  -1.137 128.550  0.00  0.00    -0.001 A 
ATOM      4  C   LIG A   1      -7.532  -0.091 127.646  0.00  0.00    +0.128 A 
ATOM      5  C   LIG A   1      -8.094   1.112 128.103  0.00  0.00    -0.002 A 
ATOM      6  C   LIG A   1      -8.464   2.220 127.162  0.00  0.00    +0.074 C 
ATOM      7  C   LIG A   1      -7.739   2.074 125.836  0.00  0.00    +0.162 C 
ATOM      8  C   LIG A   1      -7.760   0.607 125.347  0.00  0.00    +0.134 C 
ATOM      9  C   LIG A   1      -9.186   0.130 124.990  0.00  0.00    +0.058 C 
ATOM     10  O   LIG A   1      -7.220  -0.303 126.328  0.00  0.00    -0.483 OA
ATOM     11  C   LIG A   1      -8.370   1.275 129.467  0.00  0.00    +0.022 A 
ENDROOT
BRANCH   1  12
ATOM     12  C   LIG A   1      -8.389   0.402 131.818  0.00  0.00    +0.337 C 
ATOM     13  O   LIG A   1      -9.429   0.076 132.364  0.00  0.00    -0.245 OA
BRANCH  12  14
ATOM     14  O   LIG A   1      -7.385   0.961 132.516  0.00  0.00    -0.477 OA
ATOM     15  H   LIG A   1      -7.540   1.925 132.426  0.00  0.00    +0.295 HD
ENDBRANCH  12  14
ENDBRANCH   1  12
BRANCH   7  16
ATOM     16  O   LIG A   1      -8.308   2.954 124.866  0.00  0.00    -0.388 OA
ATOM     17  H   LIG A   1      -8.147   3.866 125.164  0.00  0.00    +0.210 HD
ENDBRANCH   7  16
BRANCH   3  18
ATOM     18  C   LIG A   1      -6.726  -2.492 128.083  0.00  0.00    +0.066 C 
BRANCH  18  19
ATOM     19  C   LIG A   1      -5.247  -2.704 128.301  0.00  0.00    -0.023 C 
ATOM     20  C   LIG A   1      -4.629  -3.390 129.288  0.00  0.00    -0.079 C 
ATOM     21  C   LIG A   1      -5.302  -4.089 130.437  0.00  0.00    +0.038 C 
ATOM     22  C   LIG A   1      -3.126  -3.524 129.311  0.00  0.00    +0.038 C 
ENDBRANCH  18  19
ENDBRANCH   3  18
BRANCH   8  23
ATOM     23  C   LIG A   1      -6.878   0.468 124.071  0.00  0.00    +0.054 C 
BRANCH  23  24
ATOM     24  C   LIG A   1      -7.194  -0.767 123.211  0.00  0.00    +0.031 C 
BRANCH  24  25
ATOM     25  C   LIG A   1      -6.102  -1.798 123.310  0.00  0.00    -0.028 C 
ATOM     26  C   LIG A   1      -6.184  -3.017 123.880  0.00  0.00    -0.080 C 
ATOM     27  C   LIG A   1      -7.412  -3.585 124.538  0.00  0.00    +0.038 C 
ATOM     28  C   LIG A   1      -4.979  -3.920 123.940  0.00  0.00    +0.038 C 
ENDBRANCH  24  25
ENDBRANCH  23  24
ENDBRANCH   8  23
TORSDOF 8
ENDMDL
