MODEL 1
REMARK VINA RESULT:      -6.3      0.000      0.000
REMARK  Name = NuBBE_297
REMARK  3 active torsions:
REMARK  status: ('A' for Active; 'I' for Inactive)
REMARK    1  A    between atoms: O_1  and  C_2
REMARK    2  A    between atoms: C_4  and  C_5
REMARK    3  A    between atoms: C_9  and  O_10
REMARK                            x       y       z     vdW  Elec       q    Type
REMARK                         _______ _______ _______ _____ _____    ______ ____
ROOT
ATOM      1  C   LIG A   1     -10.519   6.018 131.716  0.00  0.00    +0.155 C 
ATOM      2  C   LIG A   1      -9.079   5.562 131.527  0.00  0.00    +0.080 C 
ATOM      3  C   LIG A   1      -8.228   6.752 131.097  0.00  0.00    +0.173 C 
ATOM      4  C   LIG A   1      -6.770   6.336 130.942  0.00  0.00    +0.052 C 
ATOM      5  O   LIG A   1      -8.665   7.253 129.827  0.00  0.00    -0.488 OA
ATOM      6  C   LIG A   1     -10.009   7.513 129.754  0.00  0.00    +0.130 A 
ATOM      7  C   LIG A   1     -10.948   6.976 130.644  0.00  0.00    +0.064 A 
ATOM      8  C   LIG A   1     -12.292   7.342 130.484  0.00  0.00    +0.126 A 
ATOM      9  C   LIG A   1     -12.705   8.153 129.434  0.00  0.00    +0.046 A 
ATOM     10  C   LIG A   1     -11.763   8.652 128.536  0.00  0.00    +0.007 A 
ATOM     11  C   LIG A   1     -10.415   8.335 128.702  0.00  0.00    +0.046 A 
ENDROOT
BRANCH   1  12
ATOM     12  O   LIG A   1     -10.704   6.665 132.976  0.00  0.00    -0.387 OA
ATOM     13  H   LIG A   1     -11.578   6.408 133.319  0.00  0.00    +0.210 HD
ENDBRANCH   1  12
BRANCH   8  14
ATOM     14  O   LIG A   1     -13.249   6.928 131.370  0.00  0.00    -0.506 OA
ATOM     15  H   LIG A   1     -13.203   7.542 132.129  0.00  0.00    +0.292 HD
ENDBRANCH   8  14
TORSDOF 2
ENDMDL
MODEL 2
REMARK VINA RESULT:      -6.3      1.294      3.936
REMARK  Name = NuBBE_297
REMARK  3 active torsions:
REMARK  status: ('A' for Active; 'I' for Inactive)
REMARK    1  A    between atoms: O_1  and  C_2
REMARK    2  A    between atoms: C_4  and  C_5
REMARK    3  A    between atoms: C_9  and  O_10
REMARK                            x       y       z     vdW  Elec       q    Type
REMARK                         _______ _______ _______ _____ _____    ______ ____
ROOT
ATOM      1  C   LIG A   1     -11.133   6.414 131.287  0.00  0.00    +0.155 C 
ATOM      2  C   LIG A   1     -11.455   7.466 130.234  0.00  0.00    +0.080 C 
ATOM      3  C   LIG A   1     -10.418   7.394 129.118  0.00  0.00    +0.173 C 
ATOM      4  C   LIG A   1     -10.739   8.407 128.026  0.00  0.00    +0.052 C 
ATOM      5  O   LIG A   1      -9.113   7.709 129.621  0.00  0.00    -0.488 OA
ATOM      6  C   LIG A   1      -8.746   6.990 130.729  0.00  0.00    +0.130 A 
ATOM      7  C   LIG A   1      -9.660   6.323 131.554  0.00  0.00    +0.064 A 
ATOM      8  C   LIG A   1      -9.157   5.597 132.642  0.00  0.00    +0.126 A 
ATOM      9  C   LIG A   1      -7.802   5.588 132.948  0.00  0.00    +0.046 A 
ATOM     10  C   LIG A   1      -6.907   6.285 132.137  0.00  0.00    +0.007 A 
ATOM     11  C   LIG A   1      -7.381   6.981 131.025  0.00  0.00    +0.046 A 
ENDROOT
BRANCH   1  12
ATOM     12  O   LIG A   1     -11.583   5.118 130.889  0.00  0.00    -0.387 OA
ATOM     13  H   LIG A   1     -10.818   4.518 130.909  0.00  0.00    +0.210 HD
ENDBRANCH   1  12
BRANCH   8  14
ATOM     14  O   LIG A   1      -9.982   4.848 133.436  0.00  0.00    -0.506 OA
ATOM     15  H   LIG A   1     -10.650   5.464 133.796  0.00  0.00    +0.292 HD
ENDBRANCH   8  14
TORSDOF 2
ENDMDL
MODEL 3
REMARK VINA RESULT:      -5.9      1.363      2.939
REMARK  Name = NuBBE_297
REMARK  3 active torsions:
REMARK  status: ('A' for Active; 'I' for Inactive)
REMARK    1  A    between atoms: O_1  and  C_2
REMARK    2  A    between atoms: C_4  and  C_5
REMARK    3  A    between atoms: C_9  and  O_10
REMARK                            x       y       z     vdW  Elec       q    Type
REMARK                         _______ _______ _______ _____ _____    ______ ____
ROOT
ATOM      1  C   LIG A   1      -8.539   6.733 130.697  0.00  0.00    +0.155 C 
ATOM      2  C   LIG A   1      -8.114   6.163 132.044  0.00  0.00    +0.080 C 
ATOM      3  C   LIG A   1      -9.133   5.121 132.492  0.00  0.00    +0.173 C 
ATOM      4  C   LIG A   1      -8.711   4.500 133.819  0.00  0.00    +0.052 C 
ATOM      5  O   LIG A   1     -10.417   5.726 132.695  0.00  0.00    -0.488 OA
ATOM      6  C   LIG A   1     -10.862   6.476 131.637  0.00  0.00    +0.130 A 
ATOM      7  C   LIG A   1     -10.020   6.966 130.631  0.00  0.00    +0.064 A 
ATOM      8  C   LIG A   1     -10.599   7.697 129.584  0.00  0.00    +0.126 A 
ATOM      9  C   LIG A   1     -11.956   7.995 129.569  0.00  0.00    +0.046 A 
ATOM     10  C   LIG A   1     -12.776   7.529 130.596  0.00  0.00    +0.007 A 
ATOM     11  C   LIG A   1     -12.227   6.765 131.626  0.00  0.00    +0.046 A 
ENDROOT
BRANCH   1  12
ATOM     12  O   LIG A   1      -8.189   5.859 129.623  0.00  0.00    -0.387 OA
ATOM     13  H   LIG A   1      -7.226   5.724 129.650  0.00  0.00    +0.210 HD
ENDBRANCH   1  12
BRANCH   8  14
ATOM     14  O   LIG A   1      -9.852   8.128 128.522  0.00  0.00    -0.506 OA
ATOM     15  H   LIG A   1      -9.481   8.994 128.782  0.00  0.00    +0.292 HD
ENDBRANCH   8  14
TORSDOF 2
ENDMDL
MODEL 4
REMARK VINA RESULT:      -5.6     10.588     11.658
REMARK  Name = NuBBE_297
REMARK  3 active torsions:
REMARK  status: ('A' for Active; 'I' for Inactive)
REMARK    1  A    between atoms: O_1  and  C_2
REMARK    2  A    between atoms: C_4  and  C_5
REMARK    3  A    between atoms: C_9  and  O_10
REMARK                            x       y       z     vdW  Elec       q    Type
REMARK                         _______ _______ _______ _____ _____    ______ ____
ROOT
ATOM      1  C   LIG A   1      -9.084  -3.487 125.979  0.00  0.00    +0.155 C 
ATOM      2  C   LIG A   1      -8.911  -3.772 127.465  0.00  0.00    +0.080 C 
ATOM      3  C   LIG A   1      -8.132  -2.630 128.108  0.00  0.00    +0.173 C 
ATOM      4  C   LIG A   1      -7.981  -2.866 129.606  0.00  0.00    +0.052 C 
ATOM      5  O   LIG A   1      -6.812  -2.545 127.555  0.00  0.00    -0.488 OA
ATOM      6  C   LIG A   1      -6.775  -2.502 126.185  0.00  0.00    +0.130 A 
ATOM      7  C   LIG A   1      -7.839  -2.912 125.371  0.00  0.00    +0.064 A 
ATOM      8  C   LIG A   1      -7.690  -2.791 123.983  0.00  0.00    +0.126 A 
ATOM      9  C   LIG A   1      -6.502  -2.348 123.413  0.00  0.00    +0.046 A 
ATOM     10  C   LIG A   1      -5.440  -1.976 124.236  0.00  0.00    +0.007 A 
ATOM     11  C   LIG A   1      -5.581  -2.049 125.622  0.00  0.00    +0.046 A 
ENDROOT
BRANCH   1  12
ATOM     12  O   LIG A   1     -10.149  -2.564 125.742  0.00  0.00    -0.387 OA
ATOM     13  H   LIG A   1      -9.804  -1.848 125.181  0.00  0.00    +0.210 HD
ENDBRANCH   1  12
BRANCH   8  14
ATOM     14  O   LIG A   1      -8.720  -3.086 123.131  0.00  0.00    -0.506 OA
ATOM     15  H   LIG A   1      -9.048  -3.969 123.394  0.00  0.00    +0.292 HD
ENDBRANCH   8  14
TORSDOF 2
ENDMDL
MODEL 5
REMARK VINA RESULT:      -5.4     10.135     10.681
REMARK  Name = NuBBE_297
REMARK  3 active torsions:
REMARK  status: ('A' for Active; 'I' for Inactive)
REMARK    1  A    between atoms: O_1  and  C_2
REMARK    2  A    between atoms: C_4  and  C_5
REMARK    3  A    between atoms: C_9  and  O_10
REMARK                            x       y       z     vdW  Elec       q    Type
REMARK                         _______ _______ _______ _____ _____    ______ ____
ROOT
ATOM      1  C   LIG A   1      -8.764  -1.720 122.867  0.00  0.00    +0.155 C 
ATOM      2  C   LIG A   1      -7.437  -2.463 122.947  0.00  0.00    +0.080 C 
ATOM      3  C   LIG A   1      -6.685  -2.016 124.196  0.00  0.00    +0.173 C 
ATOM      4  C   LIG A   1      -5.370  -2.776 124.326  0.00  0.00    +0.052 C 
ATOM      5  O   LIG A   1      -6.364  -0.621 124.119  0.00  0.00    -0.488 OA
ATOM      6  C   LIG A   1      -7.432   0.189 123.830  0.00  0.00    +0.130 A 
ATOM      7  C   LIG A   1      -8.621  -0.278 123.255  0.00  0.00    +0.064 A 
ATOM      8  C   LIG A   1      -9.652   0.646 123.034  0.00  0.00    +0.126 A 
ATOM      9  C   LIG A   1      -9.488   1.999 123.304  0.00  0.00    +0.046 A 
ATOM     10  C   LIG A   1      -8.286   2.454 123.844  0.00  0.00    +0.007 A 
ATOM     11  C   LIG A   1      -7.261   1.546 124.111  0.00  0.00    +0.046 A 
ENDROOT
BRANCH   1  12
ATOM     12  O   LIG A   1      -9.745  -2.304 123.725  0.00  0.00    -0.387 OA
ATOM     13  H   LIG A   1      -9.500  -2.099 124.644  0.00  0.00    +0.210 HD
ENDBRANCH   1  12
BRANCH   8  14
ATOM     14  O   LIG A   1     -10.872   0.245 122.561  0.00  0.00    -0.506 OA
ATOM     15  H   LIG A   1     -11.540   0.757 123.058  0.00  0.00    +0.292 HD
ENDBRANCH   8  14
TORSDOF 2
ENDMDL
MODEL 6
REMARK VINA RESULT:      -5.3      2.338      4.552
REMARK  Name = NuBBE_297
REMARK  3 active torsions:
REMARK  status: ('A' for Active; 'I' for Inactive)
REMARK    1  A    between atoms: O_1  and  C_2
REMARK    2  A    between atoms: C_4  and  C_5
REMARK    3  A    between atoms: C_9  and  O_10
REMARK                            x       y       z     vdW  Elec       q    Type
REMARK                         _______ _______ _______ _____ _____    ______ ____
ROOT
ATOM      1  C   LIG A   1      -9.847   5.967 132.068  0.00  0.00    +0.155 C 
ATOM      2  C   LIG A   1      -9.714   6.820 130.814  0.00  0.00    +0.080 C 
ATOM      3  C   LIG A   1     -10.395   6.110 129.649  0.00  0.00    +0.173 C 
ATOM      4  C   LIG A   1     -10.317   6.962 128.387  0.00  0.00    +0.052 C 
ATOM      5  O   LIG A   1      -9.741   4.866 129.364  0.00  0.00    -0.488 OA
ATOM      6  C   LIG A   1      -9.578   4.051 130.454  0.00  0.00    +0.130 A 
ATOM      7  C   LIG A   1      -9.644   4.509 131.777  0.00  0.00    +0.064 A 
ATOM      8  C   LIG A   1      -9.490   3.571 132.807  0.00  0.00    +0.126 A 
ATOM      9  C   LIG A   1      -9.207   2.237 132.540  0.00  0.00    +0.046 A 
ATOM     10  C   LIG A   1      -9.110   1.803 131.219  0.00  0.00    +0.007 A 
ATOM     11  C   LIG A   1      -9.301   2.712 130.178  0.00  0.00    +0.046 A 
ENDROOT
BRANCH   1  12
ATOM     12  O   LIG A   1     -11.135   6.114 132.669  0.00  0.00    -0.387 OA
ATOM     13  H   LIG A   1     -11.083   5.765 133.576  0.00  0.00    +0.210 HD
ENDBRANCH   1  12
BRANCH   8  14
ATOM     14  O   LIG A   1      -9.633   3.931 134.119  0.00  0.00    -0.506 OA
ATOM     15  H   LIG A   1      -9.083   4.728 134.246  0.00  0.00    +0.292 HD
ENDBRANCH   8  14
TORSDOF 2
ENDMDL
MODEL 7
REMARK VINA RESULT:      -5.3     10.721     11.723
REMARK  Name = NuBBE_297
REMARK  3 active torsions:
REMARK  status: ('A' for Active; 'I' for Inactive)
REMARK    1  A    between atoms: O_1  and  C_2
REMARK    2  A    between atoms: C_4  and  C_5
REMARK    3  A    between atoms: C_9  and  O_10
REMARK                            x       y       z     vdW  Elec       q    Type
REMARK                         _______ _______ _______ _____ _____    ______ ____
ROOT
ATOM      1  C   LIG A   1      -6.388  -2.163 125.342  0.00  0.00    +0.155 C 
ATOM      2  C   LIG A   1      -7.209  -2.807 124.233  0.00  0.00    +0.080 C 
ATOM      3  C   LIG A   1      -8.691  -2.690 124.572  0.00  0.00    +0.173 C 
ATOM      4  C   LIG A   1      -9.541  -3.288 123.458  0.00  0.00    +0.052 C 
ATOM      5  O   LIG A   1      -8.992  -3.413 125.773  0.00  0.00    -0.488 OA
ATOM      6  C   LIG A   1      -8.183  -3.105 126.836  0.00  0.00    +0.130 A 
ATOM      7  C   LIG A   1      -6.936  -2.482 126.702  0.00  0.00    +0.064 A 
ATOM      8  C   LIG A   1      -6.215  -2.193 127.868  0.00  0.00    +0.126 A 
ATOM      9  C   LIG A   1      -6.677  -2.573 129.122  0.00  0.00    +0.046 A 
ATOM     10  C   LIG A   1      -7.904  -3.223 129.237  0.00  0.00    +0.007 A 
ATOM     11  C   LIG A   1      -8.658  -3.484 128.093  0.00  0.00    +0.046 A 
ENDROOT
BRANCH   1  12
ATOM     12  O   LIG A   1      -6.353  -0.741 125.211  0.00  0.00    -0.387 OA
ATOM     13  H   LIG A   1      -5.432  -0.479 125.041  0.00  0.00    +0.210 HD
ENDBRANCH   1  12
BRANCH   8  14
ATOM     14  O   LIG A   1      -5.033  -1.504 127.819  0.00  0.00    -0.506 OA
ATOM     15  H   LIG A   1      -5.214  -0.622 128.199  0.00  0.00    +0.292 HD
ENDBRANCH   8  14
TORSDOF 2
ENDMDL
MODEL 8
REMARK VINA RESULT:      -5.2     10.000     10.767
REMARK  Name = NuBBE_297
REMARK  3 active torsions:
REMARK  status: ('A' for Active; 'I' for Inactive)
REMARK    1  A    between atoms: O_1  and  C_2
REMARK    2  A    between atoms: C_4  and  C_5
REMARK    3  A    between atoms: C_9  and  O_10
REMARK                            x       y       z     vdW  Elec       q    Type
REMARK                         _______ _______ _______ _____ _____    ______ ____
ROOT
ATOM      1  C   LIG A   1      -8.861  -2.858 124.094  0.00  0.00    +0.155 C 
ATOM      2  C   LIG A   1      -8.378  -3.671 125.288  0.00  0.00    +0.080 C 
ATOM      3  C   LIG A   1      -9.104  -3.199 126.543  0.00  0.00    +0.173 C 
ATOM      4  C   LIG A   1      -8.673  -4.025 127.749  0.00  0.00    +0.052 C 
ATOM      5  O   LIG A   1      -8.782  -1.831 126.827  0.00  0.00    -0.488 OA
ATOM      6  C   LIG A   1      -8.955  -0.978 125.768  0.00  0.00    +0.130 A 
ATOM      7  C   LIG A   1      -9.029  -1.407 124.436  0.00  0.00    +0.064 A 
ATOM      8  C   LIG A   1      -9.237  -0.440 123.444  0.00  0.00    +0.126 A 
ATOM      9  C   LIG A   1      -9.297   0.915 123.748  0.00  0.00    +0.046 A 
ATOM     10  C   LIG A   1      -9.188   1.329 125.075  0.00  0.00    +0.007 A 
ATOM     11  C   LIG A   1      -9.022   0.380 126.084  0.00  0.00    +0.046 A 
ENDROOT
BRANCH   1  12
ATOM     12  O   LIG A   1     -10.115  -3.336 123.606  0.00  0.00    -0.387 OA
ATOM     13  H   LIG A   1     -10.534  -3.855 124.315  0.00  0.00    +0.210 HD
ENDBRANCH   1  12
BRANCH   8  14
ATOM     14  O   LIG A   1      -9.409  -0.795 122.133  0.00  0.00    -0.506 OA
ATOM     15  H   LIG A   1     -10.365  -0.965 122.019  0.00  0.00    +0.292 HD
ENDBRANCH   8  14
TORSDOF 2
ENDMDL
MODEL 9
REMARK VINA RESULT:      -5.1     10.155     11.218
REMARK  Name = NuBBE_297
REMARK  3 active torsions:
REMARK  status: ('A' for Active; 'I' for Inactive)
REMARK    1  A    between atoms: O_1  and  C_2
REMARK    2  A    between atoms: C_4  and  C_5
REMARK    3  A    between atoms: C_9  and  O_10
REMARK                            x       y       z     vdW  Elec       q    Type
REMARK                         _______ _______ _______ _____ _____    ______ ____
ROOT
ATOM      1  C   LIG A   1      -7.223  -0.886 126.225  0.00  0.00    +0.155 C 
ATOM      2  C   LIG A   1      -7.730  -1.299 127.601  0.00  0.00    +0.080 C 
ATOM      3  C   LIG A   1      -7.895  -2.814 127.642  0.00  0.00    +0.173 C 
ATOM      4  C   LIG A   1      -8.360  -3.262 129.022  0.00  0.00    +0.052 C 
ATOM      5  O   LIG A   1      -8.888  -3.239 126.699  0.00  0.00    -0.488 OA
ATOM      6  C   LIG A   1      -8.699  -2.764 125.427  0.00  0.00    +0.130 A 
ATOM      7  C   LIG A   1      -7.893  -1.658 125.127  0.00  0.00    +0.064 A 
ATOM      8  C   LIG A   1      -7.756  -1.287 123.783  0.00  0.00    +0.126 A 
ATOM      9  C   LIG A   1      -8.451  -1.941 122.773  0.00  0.00    +0.046 A 
ATOM     10  C   LIG A   1      -9.277  -3.019 123.090  0.00  0.00    +0.007 A 
ATOM     11  C   LIG A   1      -9.395  -3.431 124.417  0.00  0.00    +0.046 A 
ENDROOT
BRANCH   1  12
ATOM     12  O   LIG A   1      -5.814  -1.090 126.102  0.00  0.00    -0.387 OA
ATOM     13  H   LIG A   1      -5.535  -0.733 125.241  0.00  0.00    +0.210 HD
ENDBRANCH   1  12
BRANCH   8  14
ATOM     14  O   LIG A   1      -6.914  -0.275 123.409  0.00  0.00    -0.506 OA
ATOM     15  H   LIG A   1      -7.306   0.125 122.608  0.00  0.00    +0.292 HD
ENDBRANCH   8  14
TORSDOF 2
ENDMDL
