MODEL 1
REMARK VINA RESULT:      -8.2      0.000      0.000
REMARK  Name = NuBBE_1328
REMARK  9 active torsions:
REMARK  status: ('A' for Active; 'I' for Inactive)
REMARK    1  A    between atoms: C_4  and  C_20
REMARK    2  A    between atoms: C_8  and  O_9
REMARK    3  A    between atoms: C_10  and  C_15
REMARK    4  A    between atoms: C_11  and  O_12
REMARK    5  A    between atoms: O_12  and  C_13
REMARK    6  A    between atoms: C_15  and  C_16
REMARK    7  A    between atoms: C_17  and  C_18
REMARK    8  A    between atoms: C_17  and  C_19
REMARK    9  A    between atoms: C_23  and  O_26
REMARK                            x       y       z     vdW  Elec       q    Type
REMARK                         _______ _______ _______ _____ _____    ______ ____
ROOT
ATOM      1  O   LIG A   1      -8.590   2.937 125.944  0.00  0.00    -0.292 OA
ATOM      2  C   LIG A   1      -8.059   2.508 124.917  0.00  0.00    +0.174 C 
ATOM      3  C   LIG A   1      -7.549   3.406 123.834  0.00  0.00    +0.129 C 
ATOM      4  C   LIG A   1      -7.691   2.680 122.505  0.00  0.00    +0.211 C 
ATOM      5  O   LIG A   1      -6.981   1.430 122.505  0.00  0.00    -0.483 OA
ATOM      6  C   LIG A   1      -7.260   0.616 123.566  0.00  0.00    +0.139 A 
ATOM      7  C   LIG A   1      -7.821   1.063 124.760  0.00  0.00    +0.101 A 
ATOM      8  C   LIG A   1      -8.098   0.151 125.786  0.00  0.00    +0.138 A 
ATOM      9  C   LIG A   1      -7.800  -1.214 125.632  0.00  0.00    +0.040 A 
ATOM     10  C   LIG A   1      -7.168  -1.642 124.445  0.00  0.00    +0.131 A 
ATOM     11  C   LIG A   1      -6.920  -0.729 123.415  0.00  0.00    +0.092 A 
ENDROOT
BRANCH   4  12
ATOM     12  C   LIG A   1      -7.129   3.543 121.388  0.00  0.00    -0.007 A 
ATOM     13  C   LIG A   1      -7.914   3.883 120.272  0.00  0.00    +0.011 A 
ATOM     14  C   LIG A   1      -7.388   4.652 119.234  0.00  0.00    +0.046 A 
ATOM     15  C   LIG A   1      -6.067   5.076 119.304  0.00  0.00    +0.117 A 
ATOM     16  C   LIG A   1      -5.267   4.743 120.391  0.00  0.00    +0.046 A 
ATOM     17  C   LIG A   1      -5.794   3.977 121.433  0.00  0.00    +0.011 A 
BRANCH  15  18
ATOM     18  O   LIG A   1      -5.512   5.827 118.310  0.00  0.00    -0.507 OA
ATOM     19  H   LIG A   1      -5.604   5.344 117.473  0.00  0.00    +0.292 HD
ENDBRANCH  15  18
ENDBRANCH   4  12
BRANCH   8  20
ATOM     20  O   LIG A   1      -8.658   0.563 126.970  0.00  0.00    -0.505 OA
ATOM     21  H   LIG A   1      -9.461   0.021 127.143  0.00  0.00    +0.292 HD
ENDBRANCH   8  20
BRANCH  10  22
ATOM     22  O   LIG A   1      -6.891  -2.981 124.341  0.00  0.00    -0.495 OA
ATOM     23  C   LIG A   1      -5.534  -3.328 124.086  0.00  0.00    +0.277 C 
ENDBRANCH  10  22
BRANCH   9  24
ATOM     24  C   LIG A   1      -8.128  -2.209 126.729  0.00  0.00    +0.069 C 
BRANCH  24  25
ATOM     25  C   LIG A   1      -6.947  -2.530 127.608  0.00  0.00    -0.023 C 
ATOM     26  C   LIG A   1      -6.957  -2.840 128.921  0.00  0.00    -0.079 C 
ATOM     27  C   LIG A   1      -8.187  -2.931 129.783  0.00  0.00    +0.038 C 
ATOM     28  C   LIG A   1      -5.678  -3.136 129.659  0.00  0.00    +0.038 C 
ENDBRANCH  24  25
ENDBRANCH   9  24
TORSDOF 6
ENDMDL
MODEL 2
REMARK VINA RESULT:      -8.1      2.894      3.854
REMARK  Name = NuBBE_1328
REMARK  9 active torsions:
REMARK  status: ('A' for Active; 'I' for Inactive)
REMARK    1  A    between atoms: C_4  and  C_20
REMARK    2  A    between atoms: C_8  and  O_9
REMARK    3  A    between atoms: C_10  and  C_15
REMARK    4  A    between atoms: C_11  and  O_12
REMARK    5  A    between atoms: O_12  and  C_13
REMARK    6  A    between atoms: C_15  and  C_16
REMARK    7  A    between atoms: C_17  and  C_18
REMARK    8  A    between atoms: C_17  and  C_19
REMARK    9  A    between atoms: C_23  and  O_26
REMARK                            x       y       z     vdW  Elec       q    Type
REMARK                         _______ _______ _______ _____ _____    ______ ____
ROOT
ATOM      1  O   LIG A   1     -10.072   1.624 123.638  0.00  0.00    -0.292 OA
ATOM      2  C   LIG A   1      -9.009   2.241 123.538  0.00  0.00    +0.174 C 
ATOM      3  C   LIG A   1      -8.639   3.023 122.317  0.00  0.00    +0.129 C 
ATOM      4  C   LIG A   1      -7.126   2.987 122.166  0.00  0.00    +0.211 C 
ATOM      5  O   LIG A   1      -6.465   3.516 123.327  0.00  0.00    -0.483 OA
ATOM      6  C   LIG A   1      -6.875   2.975 124.513  0.00  0.00    +0.139 A 
ATOM      7  C   LIG A   1      -8.085   2.307 124.683  0.00  0.00    +0.101 A 
ATOM      8  C   LIG A   1      -8.412   1.760 125.930  0.00  0.00    +0.138 A 
ATOM      9  C   LIG A   1      -7.538   1.893 127.023  0.00  0.00    +0.040 A 
ATOM     10  C   LIG A   1      -6.348   2.633 126.855  0.00  0.00    +0.131 A 
ATOM     11  C   LIG A   1      -6.017   3.153 125.599  0.00  0.00    +0.092 A 
ENDROOT
BRANCH   4  12
ATOM     12  C   LIG A   1      -6.712   3.819 120.965  0.00  0.00    -0.007 A 
ATOM     13  C   LIG A   1      -5.467   4.472 120.933  0.00  0.00    +0.011 A 
ATOM     14  C   LIG A   1      -5.099   5.259 119.841  0.00  0.00    +0.046 A 
ATOM     15  C   LIG A   1      -5.984   5.406 118.780  0.00  0.00    +0.117 A 
ATOM     16  C   LIG A   1      -7.225   4.781 118.795  0.00  0.00    +0.046 A 
ATOM     17  C   LIG A   1      -7.592   3.989 119.884  0.00  0.00    +0.011 A 
BRANCH  15  18
ATOM     18  O   LIG A   1      -5.666   6.169 117.695  0.00  0.00    -0.507 OA
ATOM     19  H   LIG A   1      -6.233   5.899 116.954  0.00  0.00    +0.292 HD
ENDBRANCH  15  18
ENDBRANCH   4  12
BRANCH   8  20
ATOM     20  O   LIG A   1      -9.593   1.088 126.124  0.00  0.00    -0.505 OA
ATOM     21  H   LIG A   1      -9.541   0.598 126.975  0.00  0.00    +0.292 HD
ENDBRANCH   8  20
BRANCH  10  22
ATOM     22  O   LIG A   1      -5.529   2.742 127.950  0.00  0.00    -0.495 OA
ATOM     23  C   LIG A   1      -5.419   4.038 128.531  0.00  0.00    +0.277 C 
ENDBRANCH  10  22
BRANCH   9  24
ATOM     24  C   LIG A   1      -7.874   1.275 128.366  0.00  0.00    +0.069 C 
BRANCH  24  25
ATOM     25  C   LIG A   1      -8.681   2.189 129.252  0.00  0.00    -0.023 C 
ATOM     26  C   LIG A   1      -9.076   1.969 130.523  0.00  0.00    -0.079 C 
ATOM     27  C   LIG A   1      -8.773   0.732 131.325  0.00  0.00    +0.038 C 
ATOM     28  C   LIG A   1      -9.886   2.992 131.274  0.00  0.00    +0.038 C 
ENDBRANCH  24  25
ENDBRANCH   9  24
TORSDOF 6
ENDMDL
MODEL 3
REMARK VINA RESULT:      -8.1      2.201      2.814
REMARK  Name = NuBBE_1328
REMARK  9 active torsions:
REMARK  status: ('A' for Active; 'I' for Inactive)
REMARK    1  A    between atoms: C_4  and  C_20
REMARK    2  A    between atoms: C_8  and  O_9
REMARK    3  A    between atoms: C_10  and  C_15
REMARK    4  A    between atoms: C_11  and  O_12
REMARK    5  A    between atoms: O_12  and  C_13
REMARK    6  A    between atoms: C_15  and  C_16
REMARK    7  A    between atoms: C_17  and  C_18
REMARK    8  A    between atoms: C_17  and  C_19
REMARK    9  A    between atoms: C_23  and  O_26
REMARK                            x       y       z     vdW  Elec       q    Type
REMARK                         _______ _______ _______ _____ _____    ______ ____
ROOT
ATOM      1  O   LIG A   1     -10.126   1.704 123.818  0.00  0.00    -0.292 OA
ATOM      2  C   LIG A   1      -9.030   2.250 123.672  0.00  0.00    +0.174 C 
ATOM      3  C   LIG A   1      -8.687   3.065 122.465  0.00  0.00    +0.129 C 
ATOM      4  C   LIG A   1      -7.194   2.931 122.208  0.00  0.00    +0.211 C 
ATOM      5  O   LIG A   1      -6.419   3.354 123.342  0.00  0.00    -0.483 OA
ATOM      6  C   LIG A   1      -6.788   2.783 124.528  0.00  0.00    +0.139 A 
ATOM      7  C   LIG A   1      -8.029   2.192 124.751  0.00  0.00    +0.101 A 
ATOM      8  C   LIG A   1      -8.311   1.606 125.992  0.00  0.00    +0.138 A 
ATOM      9  C   LIG A   1      -7.358   1.623 127.025  0.00  0.00    +0.040 A 
ATOM     10  C   LIG A   1      -6.132   2.286 126.809  0.00  0.00    +0.131 A 
ATOM     11  C   LIG A   1      -5.849   2.845 125.558  0.00  0.00    +0.092 A 
ENDROOT
BRANCH   4  12
ATOM     12  C   LIG A   1      -6.801   3.793 121.020  0.00  0.00    -0.007 A 
ATOM     13  C   LIG A   1      -7.670   3.958 119.927  0.00  0.00    +0.011 A 
ATOM     14  C   LIG A   1      -7.297   4.727 118.825  0.00  0.00    +0.046 A 
ATOM     15  C   LIG A   1      -6.044   5.326 118.806  0.00  0.00    +0.117 A 
ATOM     16  C   LIG A   1      -5.162   5.167 119.868  0.00  0.00    +0.046 A 
ATOM     17  C   LIG A   1      -5.537   4.402 120.974  0.00  0.00    +0.011 A 
BRANCH  15  18
ATOM     18  O   LIG A   1      -5.638   6.083 117.748  0.00  0.00    -0.507 OA
ATOM     19  H   LIG A   1      -4.670   6.025 117.682  0.00  0.00    +0.292 HD
ENDBRANCH  15  18
ENDBRANCH   4  12
BRANCH   8  20
ATOM     20  O   LIG A   1      -9.523   1.009 126.237  0.00  0.00    -0.505 OA
ATOM     21  H   LIG A   1      -9.369   0.062 126.451  0.00  0.00    +0.292 HD
ENDBRANCH   8  20
BRANCH  10  22
ATOM     22  O   LIG A   1      -5.236   2.282 127.847  0.00  0.00    -0.495 OA
ATOM     23  C   LIG A   1      -3.919   2.735 127.547  0.00  0.00    +0.277 C 
ENDBRANCH  10  22
BRANCH   9  24
ATOM     24  C   LIG A   1      -7.649   0.962 128.359  0.00  0.00    +0.069 C 
BRANCH  24  25
ATOM     25  C   LIG A   1      -7.501  -0.537 128.321  0.00  0.00    -0.023 C 
ATOM     26  C   LIG A   1      -7.676  -1.409 129.336  0.00  0.00    -0.079 C 
ATOM     27  C   LIG A   1      -8.068  -1.040 130.741  0.00  0.00    +0.038 C 
ATOM     28  C   LIG A   1      -7.485  -2.888 129.131  0.00  0.00    +0.038 C 
ENDBRANCH  24  25
ENDBRANCH   9  24
TORSDOF 6
ENDMDL
MODEL 4
REMARK VINA RESULT:      -7.7      5.702      7.921
REMARK  Name = NuBBE_1328
REMARK  9 active torsions:
REMARK  status: ('A' for Active; 'I' for Inactive)
REMARK    1  A    between atoms: C_4  and  C_20
REMARK    2  A    between atoms: C_8  and  O_9
REMARK    3  A    between atoms: C_10  and  C_15
REMARK    4  A    between atoms: C_11  and  O_12
REMARK    5  A    between atoms: O_12  and  C_13
REMARK    6  A    between atoms: C_15  and  C_16
REMARK    7  A    between atoms: C_17  and  C_18
REMARK    8  A    between atoms: C_17  and  C_19
REMARK    9  A    between atoms: C_23  and  O_26
REMARK                            x       y       z     vdW  Elec       q    Type
REMARK                         _______ _______ _______ _____ _____    ______ ____
ROOT
ATOM      1  O   LIG A   1      -9.388   3.121 133.335  0.00  0.00    -0.292 OA
ATOM      2  C   LIG A   1      -9.503   3.547 132.183  0.00  0.00    +0.174 C 
ATOM      3  C   LIG A   1     -10.047   4.906 131.874  0.00  0.00    +0.129 C 
ATOM      4  C   LIG A   1     -10.757   4.842 130.530  0.00  0.00    +0.211 C 
ATOM      5  O   LIG A   1      -9.876   4.398 129.485  0.00  0.00    -0.483 OA
ATOM      6  C   LIG A   1      -9.199   3.244 129.763  0.00  0.00    +0.139 A 
ATOM      7  C   LIG A   1      -9.009   2.747 131.049  0.00  0.00    +0.101 A 
ATOM      8  C   LIG A   1      -8.324   1.540 131.238  0.00  0.00    +0.138 A 
ATOM      9  C   LIG A   1      -7.808   0.830 130.140  0.00  0.00    +0.040 A 
ATOM     10  C   LIG A   1      -7.946   1.381 128.849  0.00  0.00    +0.131 A 
ATOM     11  C   LIG A   1      -8.655   2.573 128.668  0.00  0.00    +0.092 A 
ENDROOT
BRANCH   4  12
ATOM     12  C   LIG A   1     -11.275   6.222 130.159  0.00  0.00    -0.007 A 
ATOM     13  C   LIG A   1     -12.301   6.833 130.901  0.00  0.00    +0.011 A 
ATOM     14  C   LIG A   1     -12.794   8.087 130.542  0.00  0.00    +0.046 A 
ATOM     15  C   LIG A   1     -12.269   8.731 129.429  0.00  0.00    +0.117 A 
ATOM     16  C   LIG A   1     -11.263   8.142 128.672  0.00  0.00    +0.046 A 
ATOM     17  C   LIG A   1     -10.765   6.889 129.034  0.00  0.00    +0.011 A 
BRANCH  15  18
ATOM     18  O   LIG A   1     -12.724   9.957 129.041  0.00  0.00    -0.507 OA
ATOM     19  H   LIG A   1     -13.622  10.076 129.393  0.00  0.00    +0.292 HD
ENDBRANCH  15  18
ENDBRANCH   4  12
BRANCH   8  20
ATOM     20  O   LIG A   1      -8.130   1.022 132.495  0.00  0.00    -0.505 OA
ATOM     21  H   LIG A   1      -7.840   0.086 132.408  0.00  0.00    +0.292 HD
ENDBRANCH   8  20
BRANCH  10  22
ATOM     22  O   LIG A   1      -7.421   0.656 127.809  0.00  0.00    -0.495 OA
ATOM     23  C   LIG A   1      -8.275   0.451 126.687  0.00  0.00    +0.277 C 
ENDBRANCH  10  22
BRANCH   9  24
ATOM     24  C   LIG A   1      -7.093  -0.493 130.339  0.00  0.00    +0.069 C 
BRANCH  24  25
ATOM     25  C   LIG A   1      -7.950  -1.685 130.001  0.00  0.00    -0.023 C 
ATOM     26  C   LIG A   1      -7.743  -2.601 129.032  0.00  0.00    -0.079 C 
ATOM     27  C   LIG A   1      -6.580  -2.609 128.077  0.00  0.00    +0.038 C 
ATOM     28  C   LIG A   1      -8.705  -3.740 128.822  0.00  0.00    +0.038 C 
ENDBRANCH  24  25
ENDBRANCH   9  24
TORSDOF 6
ENDMDL
MODEL 5
REMARK VINA RESULT:      -7.5      9.202     10.297
REMARK  Name = NuBBE_1328
REMARK  9 active torsions:
REMARK  status: ('A' for Active; 'I' for Inactive)
REMARK    1  A    between atoms: C_4  and  C_20
REMARK    2  A    between atoms: C_8  and  O_9
REMARK    3  A    between atoms: C_10  and  C_15
REMARK    4  A    between atoms: C_11  and  O_12
REMARK    5  A    between atoms: O_12  and  C_13
REMARK    6  A    between atoms: C_15  and  C_16
REMARK    7  A    between atoms: C_17  and  C_18
REMARK    8  A    between atoms: C_17  and  C_19
REMARK    9  A    between atoms: C_23  and  O_26
REMARK                            x       y       z     vdW  Elec       q    Type
REMARK                         _______ _______ _______ _____ _____    ______ ____
ROOT
ATOM      1  O   LIG A   1      -8.911   4.689 133.893  0.00  0.00    -0.292 OA
ATOM      2  C   LIG A   1      -8.695   5.466 132.960  0.00  0.00    +0.174 C 
ATOM      3  C   LIG A   1      -9.786   6.218 132.265  0.00  0.00    +0.129 C 
ATOM      4  C   LIG A   1      -9.375   6.424 130.815  0.00  0.00    +0.211 C 
ATOM      5  O   LIG A   1      -8.127   7.129 130.711  0.00  0.00    -0.483 OA
ATOM      6  C   LIG A   1      -7.113   6.605 131.462  0.00  0.00    +0.139 A 
ATOM      7  C   LIG A   1      -7.311   5.757 132.549  0.00  0.00    +0.101 A 
ATOM      8  C   LIG A   1      -6.209   5.245 133.246  0.00  0.00    +0.138 A 
ATOM      9  C   LIG A   1      -4.899   5.591 132.870  0.00  0.00    +0.040 A 
ATOM     10  C   LIG A   1      -4.716   6.507 131.811  0.00  0.00    +0.131 A 
ATOM     11  C   LIG A   1      -5.821   6.992 131.105  0.00  0.00    +0.092 A 
ENDROOT
BRANCH   4  12
ATOM     12  C   LIG A   1     -10.438   7.235 130.093  0.00  0.00    -0.007 A 
ATOM     13  C   LIG A   1     -10.153   7.880 128.877  0.00  0.00    +0.011 A 
ATOM     14  C   LIG A   1     -11.121   8.648 128.229  0.00  0.00    +0.046 A 
ATOM     15  C   LIG A   1     -12.378   8.782 128.804  0.00  0.00    +0.117 A 
ATOM     16  C   LIG A   1     -12.680   8.164 130.011  0.00  0.00    +0.046 A 
ATOM     17  C   LIG A   1     -11.714   7.392 130.657  0.00  0.00    +0.011 A 
BRANCH  15  18
ATOM     18  O   LIG A   1     -13.353   9.525 128.206  0.00  0.00    -0.507 OA
ATOM     19  H   LIG A   1     -13.420   9.253 127.276  0.00  0.00    +0.292 HD
ENDBRANCH  15  18
ENDBRANCH   4  12
BRANCH   8  20
ATOM     20  O   LIG A   1      -6.374   4.401 134.315  0.00  0.00    -0.505 OA
ATOM     21  H   LIG A   1      -6.631   3.513 133.978  0.00  0.00    +0.292 HD
ENDBRANCH   8  20
BRANCH  10  22
ATOM     22  O   LIG A   1      -3.421   6.820 131.484  0.00  0.00    -0.495 OA
ATOM     23  C   LIG A   1      -2.992   8.142 131.796  0.00  0.00    +0.277 C 
ENDBRANCH  10  22
BRANCH   9  24
ATOM     24  C   LIG A   1      -3.703   5.014 133.602  0.00  0.00    +0.069 C 
BRANCH  24  25
ATOM     25  C   LIG A   1      -3.339   3.627 133.137  0.00  0.00    -0.023 C 
ATOM     26  C   LIG A   1      -3.401   2.479 133.842  0.00  0.00    -0.079 C 
ATOM     27  C   LIG A   1      -3.863   2.359 135.269  0.00  0.00    +0.038 C 
ATOM     28  C   LIG A   1      -2.995   1.166 133.227  0.00  0.00    +0.038 C 
ENDBRANCH  24  25
ENDBRANCH   9  24
TORSDOF 6
ENDMDL
MODEL 6
REMARK VINA RESULT:      -7.5      1.955      8.966
REMARK  Name = NuBBE_1328
REMARK  9 active torsions:
REMARK  status: ('A' for Active; 'I' for Inactive)
REMARK    1  A    between atoms: C_4  and  C_20
REMARK    2  A    between atoms: C_8  and  O_9
REMARK    3  A    between atoms: C_10  and  C_15
REMARK    4  A    between atoms: C_11  and  O_12
REMARK    5  A    between atoms: O_12  and  C_13
REMARK    6  A    between atoms: C_15  and  C_16
REMARK    7  A    between atoms: C_17  and  C_18
REMARK    8  A    between atoms: C_17  and  C_19
REMARK    9  A    between atoms: C_23  and  O_26
REMARK                            x       y       z     vdW  Elec       q    Type
REMARK                         _______ _______ _______ _____ _____    ______ ____
ROOT
ATOM      1  O   LIG A   1      -6.248  -2.058 124.553  0.00  0.00    -0.292 OA
ATOM      2  C   LIG A   1      -6.669  -1.459 125.546  0.00  0.00    +0.174 C 
ATOM      3  C   LIG A   1      -6.506  -1.985 126.937  0.00  0.00    +0.129 C 
ATOM      4  C   LIG A   1      -7.693  -1.519 127.765  0.00  0.00    +0.211 C 
ATOM      5  O   LIG A   1      -7.805  -0.086 127.774  0.00  0.00    -0.483 OA
ATOM      6  C   LIG A   1      -7.783   0.494 126.537  0.00  0.00    +0.139 A 
ATOM      7  C   LIG A   1      -7.280  -0.128 125.397  0.00  0.00    +0.101 A 
ATOM      8  C   LIG A   1      -7.324   0.534 124.163  0.00  0.00    +0.138 A 
ATOM      9  C   LIG A   1      -7.856   1.831 124.064  0.00  0.00    +0.040 A 
ATOM     10  C   LIG A   1      -8.297   2.477 125.239  0.00  0.00    +0.131 A 
ATOM     11  C   LIG A   1      -8.275   1.798 126.462  0.00  0.00    +0.092 A 
ENDROOT
BRANCH   4  12
ATOM     12  C   LIG A   1      -7.531  -1.989 129.201  0.00  0.00    -0.007 A 
ATOM     13  C   LIG A   1      -7.906  -1.167 130.278  0.00  0.00    +0.011 A 
ATOM     14  C   LIG A   1      -7.731  -1.588 131.596  0.00  0.00    +0.046 A 
ATOM     15  C   LIG A   1      -7.165  -2.833 131.842  0.00  0.00    +0.117 A 
ATOM     16  C   LIG A   1      -6.774  -3.658 130.795  0.00  0.00    +0.046 A 
ATOM     17  C   LIG A   1      -6.955  -3.240 129.475  0.00  0.00    +0.011 A 
BRANCH  15  18
ATOM     18  O   LIG A   1      -6.973  -3.283 133.115  0.00  0.00    -0.507 OA
ATOM     19  H   LIG A   1      -6.151  -2.894 133.456  0.00  0.00    +0.292 HD
ENDBRANCH  15  18
ENDBRANCH   4  12
BRANCH   8  20
ATOM     20  O   LIG A   1      -6.843  -0.059 123.022  0.00  0.00    -0.505 OA
ATOM     21  H   LIG A   1      -6.603  -0.990 123.229  0.00  0.00    +0.292 HD
ENDBRANCH   8  20
BRANCH  10  22
ATOM     22  O   LIG A   1      -8.803   3.744 125.095  0.00  0.00    -0.495 OA
ATOM     23  C   LIG A   1      -8.084   4.789 125.742  0.00  0.00    +0.277 C 
ENDBRANCH  10  22
BRANCH   9  24
ATOM     24  C   LIG A   1      -7.933   2.538 122.724  0.00  0.00    +0.069 C 
BRANCH  24  25
ATOM     25  C   LIG A   1      -6.651   3.236 122.350  0.00  0.00    -0.023 C 
ATOM     26  C   LIG A   1      -6.370   3.881 121.198  0.00  0.00    -0.079 C 
ATOM     27  C   LIG A   1      -7.312   4.035 120.035  0.00  0.00    +0.038 C 
ATOM     28  C   LIG A   1      -5.029   4.530 120.979  0.00  0.00    +0.038 C 
ENDBRANCH  24  25
ENDBRANCH   9  24
TORSDOF 6
ENDMDL
MODEL 7
REMARK VINA RESULT:      -7.4      3.717      5.253
REMARK  Name = NuBBE_1328
REMARK  9 active torsions:
REMARK  status: ('A' for Active; 'I' for Inactive)
REMARK    1  A    between atoms: C_4  and  C_20
REMARK    2  A    between atoms: C_8  and  O_9
REMARK    3  A    between atoms: C_10  and  C_15
REMARK    4  A    between atoms: C_11  and  O_12
REMARK    5  A    between atoms: O_12  and  C_13
REMARK    6  A    between atoms: C_15  and  C_16
REMARK    7  A    between atoms: C_17  and  C_18
REMARK    8  A    between atoms: C_17  and  C_19
REMARK    9  A    between atoms: C_23  and  O_26
REMARK                            x       y       z     vdW  Elec       q    Type
REMARK                         _______ _______ _______ _____ _____    ______ ____
ROOT
ATOM      1  O   LIG A   1      -9.310   2.145 125.141  0.00  0.00    -0.292 OA
ATOM      2  C   LIG A   1      -8.347   2.836 124.798  0.00  0.00    +0.174 C 
ATOM      3  C   LIG A   1      -8.145   3.302 123.391  0.00  0.00    +0.129 C 
ATOM      4  C   LIG A   1      -6.650   3.408 123.133  0.00  0.00    +0.211 C 
ATOM      5  O   LIG A   1      -6.013   4.303 124.060  0.00  0.00    -0.483 OA
ATOM      6  C   LIG A   1      -6.290   4.053 125.375  0.00  0.00    +0.139 A 
ATOM      7  C   LIG A   1      -7.387   3.314 125.809  0.00  0.00    +0.101 A 
ATOM      8  C   LIG A   1      -7.578   3.084 127.178  0.00  0.00    +0.138 A 
ATOM      9  C   LIG A   1      -6.680   3.607 128.124  0.00  0.00    +0.040 A 
ATOM     10  C   LIG A   1      -5.612   4.413 127.675  0.00  0.00    +0.131 A 
ATOM     11  C   LIG A   1      -5.415   4.614 126.305  0.00  0.00    +0.092 A 
ENDROOT
BRANCH   4  12
ATOM     12  C   LIG A   1      -6.410   3.934 121.728  0.00  0.00    -0.007 A 
ATOM     13  C   LIG A   1      -5.216   4.600 121.399  0.00  0.00    +0.011 A 
ATOM     14  C   LIG A   1      -5.009   5.107 120.116  0.00  0.00    +0.046 A 
ATOM     15  C   LIG A   1      -6.004   4.960 119.158  0.00  0.00    +0.117 A 
ATOM     16  C   LIG A   1      -7.198   4.318 119.463  0.00  0.00    +0.046 A 
ATOM     17  C   LIG A   1      -7.404   3.806 120.745  0.00  0.00    +0.011 A 
BRANCH  15  18
ATOM     18  O   LIG A   1      -5.844   5.444 117.893  0.00  0.00    -0.507 OA
ATOM     19  H   LIG A   1      -5.326   4.801 117.382  0.00  0.00    +0.292 HD
ENDBRANCH  15  18
ENDBRANCH   4  12
BRANCH   8  20
ATOM     20  O   LIG A   1      -8.646   2.351 127.633  0.00  0.00    -0.505 OA
ATOM     21  H   LIG A   1      -9.476   2.782 127.328  0.00  0.00    +0.292 HD
ENDBRANCH   8  20
BRANCH  10  22
ATOM     22  O   LIG A   1      -4.765   4.907 128.634  0.00  0.00    -0.495 OA
ATOM     23  C   LIG A   1      -3.416   4.454 128.579  0.00  0.00    +0.277 C 
ENDBRANCH  10  22
BRANCH   9  24
ATOM     24  C   LIG A   1      -6.866   3.333 129.604  0.00  0.00    +0.069 C 
BRANCH  24  25
ATOM     25  C   LIG A   1      -7.813   4.299 130.269  0.00  0.00    -0.023 C 
ATOM     26  C   LIG A   1      -7.501   5.351 131.053  0.00  0.00    -0.079 C 
ATOM     27  C   LIG A   1      -6.106   5.778 131.422  0.00  0.00    +0.038 C 
ATOM     28  C   LIG A   1      -8.576   6.223 131.647  0.00  0.00    +0.038 C 
ENDBRANCH  24  25
ENDBRANCH   9  24
TORSDOF 6
ENDMDL
MODEL 8
REMARK VINA RESULT:      -7.3      5.873     10.483
REMARK  Name = NuBBE_1328
REMARK  9 active torsions:
REMARK  status: ('A' for Active; 'I' for Inactive)
REMARK    1  A    between atoms: C_4  and  C_20
REMARK    2  A    between atoms: C_8  and  O_9
REMARK    3  A    between atoms: C_10  and  C_15
REMARK    4  A    between atoms: C_11  and  O_12
REMARK    5  A    between atoms: O_12  and  C_13
REMARK    6  A    between atoms: C_15  and  C_16
REMARK    7  A    between atoms: C_17  and  C_18
REMARK    8  A    between atoms: C_17  and  C_19
REMARK    9  A    between atoms: C_23  and  O_26
REMARK                            x       y       z     vdW  Elec       q    Type
REMARK                         _______ _______ _______ _____ _____    ______ ____
ROOT
ATOM      1  O   LIG A   1      -8.394   2.925 127.357  0.00  0.00    -0.292 OA
ATOM      2  C   LIG A   1      -8.222   2.554 128.521  0.00  0.00    +0.174 C 
ATOM      3  C   LIG A   1      -7.693   1.198 128.868  0.00  0.00    +0.129 C 
ATOM      4  C   LIG A   1      -8.296   0.777 130.199  0.00  0.00    +0.211 C 
ATOM      5  O   LIG A   1      -7.995   1.720 131.241  0.00  0.00    -0.483 OA
ATOM      6  C   LIG A   1      -8.287   3.019 130.934  0.00  0.00    +0.139 A 
ATOM      7  C   LIG A   1      -8.450   3.491 129.634  0.00  0.00    +0.101 A 
ATOM      8  C   LIG A   1      -8.775   4.836 129.414  0.00  0.00    +0.138 A 
ATOM      9  C   LIG A   1      -8.924   5.723 130.495  0.00  0.00    +0.040 A 
ATOM     10  C   LIG A   1      -8.687   5.247 131.802  0.00  0.00    +0.131 A 
ATOM     11  C   LIG A   1      -8.389   3.897 132.013  0.00  0.00    +0.092 A 
ENDROOT
BRANCH   4  12
ATOM     12  C   LIG A   1      -7.736  -0.575 130.609  0.00  0.00    -0.007 A 
ATOM     13  C   LIG A   1      -7.011  -0.724 131.804  0.00  0.00    +0.011 A 
ATOM     14  C   LIG A   1      -6.473  -1.960 132.166  0.00  0.00    +0.046 A 
ATOM     15  C   LIG A   1      -6.648  -3.050 131.324  0.00  0.00    +0.117 A 
ATOM     16  C   LIG A   1      -7.350  -2.925 130.131  0.00  0.00    +0.046 A 
ATOM     17  C   LIG A   1      -7.893  -1.690 129.771  0.00  0.00    +0.011 A 
BRANCH  15  18
ATOM     18  O   LIG A   1      -6.137  -4.275 131.637  0.00  0.00    -0.507 OA
ATOM     19  H   LIG A   1      -6.801  -4.763 132.150  0.00  0.00    +0.292 HD
ENDBRANCH  15  18
ENDBRANCH   4  12
BRANCH   8  20
ATOM     20  O   LIG A   1      -8.950   5.327 128.144  0.00  0.00    -0.505 OA
ATOM     21  H   LIG A   1      -8.380   4.814 127.528  0.00  0.00    +0.292 HD
ENDBRANCH   8  20
BRANCH  10  22
ATOM     22  O   LIG A   1      -8.838   6.150 132.824  0.00  0.00    -0.495 OA
ATOM     23  C   LIG A   1      -8.227   5.808 134.065  0.00  0.00    +0.277 C 
ENDBRANCH  10  22
BRANCH   9  24
ATOM     24  C   LIG A   1      -9.307   7.172 130.262  0.00  0.00    +0.069 C 
BRANCH  24  25
ATOM     25  C   LIG A   1     -10.793   7.372 130.102  0.00  0.00    -0.023 C 
ATOM     26  C   LIG A   1     -11.444   7.888 129.039  0.00  0.00    -0.079 C 
ATOM     27  C   LIG A   1     -10.794   8.373 127.772  0.00  0.00    +0.038 C 
ATOM     28  C   LIG A   1     -12.944   8.023 129.038  0.00  0.00    +0.038 C 
ENDBRANCH  24  25
ENDBRANCH   9  24
TORSDOF 6
ENDMDL
MODEL 9
REMARK VINA RESULT:      -7.2      4.859      6.835
REMARK  Name = NuBBE_1328
REMARK  9 active torsions:
REMARK  status: ('A' for Active; 'I' for Inactive)
REMARK    1  A    between atoms: C_4  and  C_20
REMARK    2  A    between atoms: C_8  and  O_9
REMARK    3  A    between atoms: C_10  and  C_15
REMARK    4  A    between atoms: C_11  and  O_12
REMARK    5  A    between atoms: O_12  and  C_13
REMARK    6  A    between atoms: C_15  and  C_16
REMARK    7  A    between atoms: C_17  and  C_18
REMARK    8  A    between atoms: C_17  and  C_19
REMARK    9  A    between atoms: C_23  and  O_26
REMARK                            x       y       z     vdW  Elec       q    Type
REMARK                         _______ _______ _______ _____ _____    ______ ____
ROOT
ATOM      1  O   LIG A   1      -5.606   3.082 124.706  0.00  0.00    -0.292 OA
ATOM      2  C   LIG A   1      -5.250   2.856 125.865  0.00  0.00    +0.174 C 
ATOM      3  C   LIG A   1      -4.740   3.926 126.778  0.00  0.00    +0.129 C 
ATOM      4  C   LIG A   1      -3.729   3.302 127.728  0.00  0.00    +0.211 C 
ATOM      5  O   LIG A   1      -4.306   2.223 128.483  0.00  0.00    -0.483 OA
ATOM      6  C   LIG A   1      -4.951   1.283 127.730  0.00  0.00    +0.139 A 
ATOM      7  C   LIG A   1      -5.406   1.506 126.433  0.00  0.00    +0.101 A 
ATOM      8  C   LIG A   1      -6.035   0.474 125.726  0.00  0.00    +0.138 A 
ATOM      9  C   LIG A   1      -6.228  -0.787 126.317  0.00  0.00    +0.040 A 
ATOM     10  C   LIG A   1      -5.825  -0.978 127.656  0.00  0.00    +0.131 A 
ATOM     11  C   LIG A   1      -5.174   0.051 128.346  0.00  0.00    +0.092 A 
ENDROOT
BRANCH   4  12
ATOM     12  C   LIG A   1      -3.232   4.351 128.708  0.00  0.00    -0.007 A 
ATOM     13  C   LIG A   1      -2.580   5.512 128.255  0.00  0.00    +0.011 A 
ATOM     14  C   LIG A   1      -2.099   6.461 129.156  0.00  0.00    +0.046 A 
ATOM     15  C   LIG A   1      -2.259   6.246 130.519  0.00  0.00    +0.117 A 
ATOM     16  C   LIG A   1      -2.889   5.101 130.992  0.00  0.00    +0.046 A 
ATOM     17  C   LIG A   1      -3.375   4.153 130.090  0.00  0.00    +0.011 A 
BRANCH  15  18
ATOM     18  O   LIG A   1      -1.801   7.147 131.435  0.00  0.00    -0.507 OA
ATOM     19  H   LIG A   1      -1.095   7.671 131.024  0.00  0.00    +0.292 HD
ENDBRANCH  15  18
ENDBRANCH   4  12
BRANCH   8  20
ATOM     20  O   LIG A   1      -6.486   0.663 124.443  0.00  0.00    -0.505 OA
ATOM     21  H   LIG A   1      -5.933   0.126 123.832  0.00  0.00    +0.292 HD
ENDBRANCH   8  20
BRANCH  10  22
ATOM     22  O   LIG A   1      -6.039  -2.222 128.194  0.00  0.00    -0.495 OA
ATOM     23  C   LIG A   1      -4.927  -2.828 128.845  0.00  0.00    +0.277 C 
ENDBRANCH  10  22
BRANCH   9  24
ATOM     24  C   LIG A   1      -6.880  -1.916 125.543  0.00  0.00    +0.069 C 
BRANCH  24  25
ATOM     25  C   LIG A   1      -5.890  -2.933 125.034  0.00  0.00    -0.023 C 
ATOM     26  C   LIG A   1      -5.428  -3.074 123.775  0.00  0.00    -0.079 C 
ATOM     27  C   LIG A   1      -5.821  -2.216 122.603  0.00  0.00    +0.038 C 
ATOM     28  C   LIG A   1      -4.434  -4.151 123.428  0.00  0.00    +0.038 C 
ENDBRANCH  24  25
ENDBRANCH   9  24
TORSDOF 6
ENDMDL
