MODEL 1
REMARK VINA RESULT:      -8.5      0.000      0.000
REMARK  Name = NuBBE_1387
REMARK  11 active torsions:
REMARK  status: ('A' for Active; 'I' for Inactive)
REMARK    1  A    between atoms: C_1  and  C_2
REMARK    2  A    between atoms: C_6  and  C_8
REMARK    3  A    between atoms: C_8  and  C_10
REMARK    4  A    between atoms: C_8  and  C_18
REMARK    5  A    between atoms: C_10  and  C_11
REMARK    6  A    between atoms: C_11  and  C_12
REMARK    7  A    between atoms: C_12  and  C_14
REMARK    8  A    between atoms: C_12  and  C_15
REMARK    9  A    between atoms: C_15  and  C_16
REMARK   10  A    between atoms: C_15  and  C_17
REMARK   11  A    between atoms: C_23  and  C_32
REMARK                            x       y       z     vdW  Elec       q    Type
REMARK                         _______ _______ _______ _____ _____    ______ ____
ROOT
ATOM      1  C   LIG A   1      -6.348  -1.244 128.849  0.00  0.00    +0.012 C 
ATOM      2  C   LIG A   1      -6.637  -0.102 127.852  0.00  0.00    -0.026 C 
ATOM      3  C   LIG A   1      -8.030  -0.314 127.179  0.00  0.00    -0.001 C 
ATOM      4  C   LIG A   1      -8.433   1.114 126.813  0.00  0.00    +0.004 C 
ATOM      5  C   LIG A   1      -8.042   1.933 128.035  0.00  0.00    +0.004 C 
ATOM      6  C   LIG A   1      -6.798   1.255 128.661  0.00  0.00    -0.002 C 
ATOM      7  C   LIG A   1      -8.111  -1.277 125.956  0.00  0.00    -0.003 C 
ATOM      8  C   LIG A   1      -6.920  -1.126 124.958  0.00  0.00    +0.002 C 
ATOM      9  C   LIG A   1      -6.953  -2.184 123.791  0.00  0.00    -0.007 C 
ATOM     10  C   LIG A   1      -7.084  -3.570 124.411  0.00  0.00    -0.060 C 
ATOM     11  C   LIG A   1      -8.299  -3.769 125.282  0.00  0.00    +0.032 C 
ATOM     12  C   LIG A   1      -8.316  -2.741 126.416  0.00  0.00    +0.008 C 
ATOM     13  C   LIG A   1      -6.166  -4.544 124.291  0.00  0.00    +0.046 C 
ATOM     14  C   LIG A   1      -4.874  -4.331 123.601  0.00  0.00    +0.156 C 
ATOM     15  C   LIG A   1      -4.504  -2.928 123.198  0.00  0.00    +0.080 C 
ATOM     16  C   LIG A   1      -5.721  -2.087 122.837  0.00  0.00    +0.019 C 
ATOM     17  O   LIG A   1      -4.099  -5.270 123.473  0.00  0.00    -0.293 OA
ATOM     18  C   LIG A   1      -8.180  -1.892 122.882  0.00  0.00    +0.016 C 
ATOM     19  C   LIG A   1      -5.598  -1.126 125.730  0.00  0.00    +0.005 C 
ATOM     20  C   LIG A   1      -5.543  -0.021 126.770  0.00  0.00    +0.007 C 
ENDROOT
BRANCH   6  21
ATOM     21  C   LIG A   1      -5.571   2.233 128.759  0.00  0.00    -0.010 C 
ATOM     22  C   LIG A   1      -4.742   2.057 130.045  0.00  0.00    +0.008 C 
BRANCH  21  23
ATOM     23  C   LIG A   1      -6.016   3.727 128.685  0.00  0.00    +0.004 C 
BRANCH  23  24
ATOM     24  C   LIG A   1      -5.304   4.521 127.570  0.00  0.00    +0.004 C 
BRANCH  24  25
ATOM     25  C   LIG A   1      -4.421   3.664 126.629  0.00  0.00    -0.011 C 
ATOM     26  C   LIG A   1      -4.972   3.671 125.197  0.00  0.00    +0.007 C 
BRANCH  25  27
ATOM     27  C   LIG A   1      -2.922   4.101 126.706  0.00  0.00    -0.014 C 
ATOM     28  C   LIG A   1      -2.635   4.995 127.919  0.00  0.00    +0.007 C 
ATOM     29  C   LIG A   1      -1.925   2.936 126.693  0.00  0.00    +0.007 C 
ENDBRANCH  25  27
ENDBRANCH  24  25
ENDBRANCH  23  24
ENDBRANCH  21  23
ENDBRANCH   6  21
TORSDOF 5
ENDMDL
MODEL 2
REMARK VINA RESULT:      -7.9      3.545      5.841
REMARK  Name = NuBBE_1387
REMARK  11 active torsions:
REMARK  status: ('A' for Active; 'I' for Inactive)
REMARK    1  A    between atoms: C_1  and  C_2
REMARK    2  A    between atoms: C_6  and  C_8
REMARK    3  A    between atoms: C_8  and  C_10
REMARK    4  A    between atoms: C_8  and  C_18
REMARK    5  A    between atoms: C_10  and  C_11
REMARK    6  A    between atoms: C_11  and  C_12
REMARK    7  A    between atoms: C_12  and  C_14
REMARK    8  A    between atoms: C_12  and  C_15
REMARK    9  A    between atoms: C_15  and  C_16
REMARK   10  A    between atoms: C_15  and  C_17
REMARK   11  A    between atoms: C_23  and  C_32
REMARK                            x       y       z     vdW  Elec       q    Type
REMARK                         _______ _______ _______ _____ _____    ______ ____
ROOT
ATOM      1  C   LIG A   1      -5.632  -1.645 127.389  0.00  0.00    +0.012 C 
ATOM      2  C   LIG A   1      -7.162  -1.824 127.481  0.00  0.00    -0.026 C 
ATOM      3  C   LIG A   1      -7.693  -2.575 126.220  0.00  0.00    -0.001 C 
ATOM      4  C   LIG A   1      -8.964  -3.239 126.749  0.00  0.00    +0.004 C 
ATOM      5  C   LIG A   1      -8.561  -3.771 128.117  0.00  0.00    +0.004 C 
ATOM      6  C   LIG A   1      -7.491  -2.806 128.686  0.00  0.00    -0.002 C 
ATOM      7  C   LIG A   1      -7.962  -1.738 124.932  0.00  0.00    -0.003 C 
ATOM      8  C   LIG A   1      -8.645  -0.362 125.209  0.00  0.00    +0.002 C 
ATOM      9  C   LIG A   1      -8.803   0.522 123.914  0.00  0.00    -0.007 C 
ATOM     10  C   LIG A   1      -7.442   0.619 123.236  0.00  0.00    -0.060 C 
ATOM     11  C   LIG A   1      -6.823  -0.702 122.852  0.00  0.00    +0.032 C 
ATOM     12  C   LIG A   1      -6.676  -1.601 124.082  0.00  0.00    +0.008 C 
ATOM     13  C   LIG A   1      -6.764   1.764 123.055  0.00  0.00    +0.046 C 
ATOM     14  C   LIG A   1      -7.249   3.060 123.583  0.00  0.00    +0.156 C 
ATOM     15  C   LIG A   1      -8.432   3.052 124.515  0.00  0.00    +0.080 C 
ATOM     16  C   LIG A   1      -9.413   1.930 124.200  0.00  0.00    +0.019 C 
ATOM     17  O   LIG A   1      -6.619   4.081 123.339  0.00  0.00    -0.293 OA
ATOM     18  C   LIG A   1      -9.822  -0.163 122.960  0.00  0.00    +0.016 C 
ATOM     19  C   LIG A   1      -7.909   0.360 126.340  0.00  0.00    +0.005 C 
ATOM     20  C   LIG A   1      -7.873  -0.464 127.616  0.00  0.00    +0.007 C 
ENDROOT
BRANCH   6  21
ATOM     21  C   LIG A   1      -7.913  -2.197 130.072  0.00  0.00    -0.010 C 
ATOM     22  C   LIG A   1      -7.358  -0.782 130.320  0.00  0.00    +0.008 C 
BRANCH  21  23
ATOM     23  C   LIG A   1      -7.458  -3.098 131.262  0.00  0.00    +0.004 C 
BRANCH  23  24
ATOM     24  C   LIG A   1      -6.050  -2.751 131.787  0.00  0.00    +0.004 C 
BRANCH  24  25
ATOM     25  C   LIG A   1      -4.969  -3.820 131.496  0.00  0.00    -0.011 C 
ATOM     26  C   LIG A   1      -5.575  -5.041 130.791  0.00  0.00    +0.007 C 
BRANCH  25  27
ATOM     27  C   LIG A   1      -3.761  -3.206 130.717  0.00  0.00    -0.014 C 
ATOM     28  C   LIG A   1      -3.635  -3.769 129.295  0.00  0.00    +0.007 C 
ATOM     29  C   LIG A   1      -3.765  -1.674 130.653  0.00  0.00    +0.007 C 
ENDBRANCH  25  27
ENDBRANCH  24  25
ENDBRANCH  23  24
ENDBRANCH  21  23
ENDBRANCH   6  21
TORSDOF 5
ENDMDL
MODEL 3
REMARK VINA RESULT:      -7.9      2.325      4.039
REMARK  Name = NuBBE_1387
REMARK  11 active torsions:
REMARK  status: ('A' for Active; 'I' for Inactive)
REMARK    1  A    between atoms: C_1  and  C_2
REMARK    2  A    between atoms: C_6  and  C_8
REMARK    3  A    between atoms: C_8  and  C_10
REMARK    4  A    between atoms: C_8  and  C_18
REMARK    5  A    between atoms: C_10  and  C_11
REMARK    6  A    between atoms: C_11  and  C_12
REMARK    7  A    between atoms: C_12  and  C_14
REMARK    8  A    between atoms: C_12  and  C_15
REMARK    9  A    between atoms: C_15  and  C_16
REMARK   10  A    between atoms: C_15  and  C_17
REMARK   11  A    between atoms: C_23  and  C_32
REMARK                            x       y       z     vdW  Elec       q    Type
REMARK                         _______ _______ _______ _____ _____    ______ ____
ROOT
ATOM      1  C   LIG A   1      -6.029  -4.433 130.232  0.00  0.00    +0.012 C 
ATOM      2  C   LIG A   1      -6.224  -2.915 130.426  0.00  0.00    -0.026 C 
ATOM      3  C   LIG A   1      -7.711  -2.524 130.153  0.00  0.00    -0.001 C 
ATOM      4  C   LIG A   1      -7.876  -1.263 131.001  0.00  0.00    +0.004 C 
ATOM      5  C   LIG A   1      -7.168  -1.600 132.306  0.00  0.00    +0.004 C 
ATOM      6  C   LIG A   1      -6.005  -2.563 131.960  0.00  0.00    -0.002 C 
ATOM      7  C   LIG A   1      -8.146  -2.297 128.673  0.00  0.00    -0.003 C 
ATOM      8  C   LIG A   1      -7.098  -1.511 127.825  0.00  0.00    +0.002 C 
ATOM      9  C   LIG A   1      -7.496  -1.391 126.305  0.00  0.00    -0.007 C 
ATOM     10  C   LIG A   1      -7.807  -2.789 125.785  0.00  0.00    -0.060 C 
ATOM     11  C   LIG A   1      -8.905  -3.515 126.520  0.00  0.00    +0.032 C 
ATOM     12  C   LIG A   1      -8.566  -3.630 128.008  0.00  0.00    +0.008 C 
ATOM     13  C   LIG A   1      -7.122  -3.403 124.807  0.00  0.00    +0.046 C 
ATOM     14  C   LIG A   1      -5.921  -2.801 124.185  0.00  0.00    +0.156 C 
ATOM     15  C   LIG A   1      -5.344  -1.558 124.807  0.00  0.00    +0.080 C 
ATOM     16  C   LIG A   1      -6.413  -0.675 125.439  0.00  0.00    +0.019 C 
ATOM     17  O   LIG A   1      -5.369  -3.381 123.259  0.00  0.00    -0.293 OA
ATOM     18  C   LIG A   1      -8.756  -0.488 126.186  0.00  0.00    +0.016 C 
ATOM     19  C   LIG A   1      -5.707  -2.116 128.034  0.00  0.00    +0.005 C 
ATOM     20  C   LIG A   1      -5.296  -2.112 129.496  0.00  0.00    +0.007 C 
ENDROOT
BRANCH   6  21
ATOM     21  C   LIG A   1      -4.610  -2.004 132.421  0.00  0.00    -0.010 C 
ATOM     22  C   LIG A   1      -3.957  -2.825 133.548  0.00  0.00    +0.008 C 
BRANCH  21  23
ATOM     23  C   LIG A   1      -4.713  -0.526 132.911  0.00  0.00    +0.004 C 
BRANCH  23  24
ATOM     24  C   LIG A   1      -4.072   0.485 131.940  0.00  0.00    +0.004 C 
BRANCH  24  25
ATOM     25  C   LIG A   1      -5.045   1.088 130.896  0.00  0.00    -0.011 C 
ATOM     26  C   LIG A   1      -6.037   2.053 131.559  0.00  0.00    +0.007 C 
BRANCH  25  27
ATOM     27  C   LIG A   1      -4.268   1.737 129.706  0.00  0.00    -0.014 C 
ATOM     28  C   LIG A   1      -4.980   1.534 128.363  0.00  0.00    +0.007 C 
ATOM     29  C   LIG A   1      -3.961   3.228 129.891  0.00  0.00    +0.007 C 
ENDBRANCH  25  27
ENDBRANCH  24  25
ENDBRANCH  23  24
ENDBRANCH  21  23
ENDBRANCH   6  21
TORSDOF 5
ENDMDL
MODEL 4
REMARK VINA RESULT:      -7.9      3.711      7.463
REMARK  Name = NuBBE_1387
REMARK  11 active torsions:
REMARK  status: ('A' for Active; 'I' for Inactive)
REMARK    1  A    between atoms: C_1  and  C_2
REMARK    2  A    between atoms: C_6  and  C_8
REMARK    3  A    between atoms: C_8  and  C_10
REMARK    4  A    between atoms: C_8  and  C_18
REMARK    5  A    between atoms: C_10  and  C_11
REMARK    6  A    between atoms: C_11  and  C_12
REMARK    7  A    between atoms: C_12  and  C_14
REMARK    8  A    between atoms: C_12  and  C_15
REMARK    9  A    between atoms: C_15  and  C_16
REMARK   10  A    between atoms: C_15  and  C_17
REMARK   11  A    between atoms: C_23  and  C_32
REMARK                            x       y       z     vdW  Elec       q    Type
REMARK                         _______ _______ _______ _____ _____    ______ ____
ROOT
ATOM      1  C   LIG A   1      -6.917  -0.110 127.912  0.00  0.00    +0.012 C 
ATOM      2  C   LIG A   1      -6.914  -1.653 127.932  0.00  0.00    -0.026 C 
ATOM      3  C   LIG A   1      -8.018  -2.181 128.901  0.00  0.00    -0.001 C 
ATOM      4  C   LIG A   1      -8.331  -3.558 128.316  0.00  0.00    +0.004 C 
ATOM      5  C   LIG A   1      -8.369  -3.321 126.813  0.00  0.00    +0.004 C 
ATOM      6  C   LIG A   1      -7.362  -2.184 126.504  0.00  0.00    -0.002 C 
ATOM      7  C   LIG A   1      -7.681  -2.253 130.421  0.00  0.00    -0.003 C 
ATOM      8  C   LIG A   1      -6.243  -2.780 130.721  0.00  0.00    +0.002 C 
ATOM      9  C   LIG A   1      -5.874  -2.736 132.252  0.00  0.00    -0.007 C 
ATOM     10  C   LIG A   1      -6.149  -1.328 132.767  0.00  0.00    -0.060 C 
ATOM     11  C   LIG A   1      -7.569  -0.851 132.594  0.00  0.00    +0.032 C 
ATOM     12  C   LIG A   1      -7.974  -0.902 131.119  0.00  0.00    +0.008 C 
ATOM     13  C   LIG A   1      -5.211  -0.505 133.261  0.00  0.00    +0.046 C 
ATOM     14  C   LIG A   1      -3.775  -0.864 133.278  0.00  0.00    +0.156 C 
ATOM     15  C   LIG A   1      -3.340  -2.101 132.539  0.00  0.00    +0.080 C 
ATOM     16  C   LIG A   1      -4.409  -3.187 132.547  0.00  0.00    +0.019 C 
ATOM     17  O   LIG A   1      -2.970  -0.098 133.793  0.00  0.00    -0.293 OA
ATOM     18  C   LIG A   1      -6.762  -3.761 133.012  0.00  0.00    +0.016 C 
ATOM     19  C   LIG A   1      -5.230  -2.043 129.840  0.00  0.00    +0.005 C 
ATOM     20  C   LIG A   1      -5.539  -2.199 128.361  0.00  0.00    +0.007 C 
ENDROOT
BRANCH   6  21
ATOM     21  C   LIG A   1      -6.260  -2.626 125.475  0.00  0.00    -0.010 C 
ATOM     22  C   LIG A   1      -5.327  -1.481 125.038  0.00  0.00    +0.008 C 
BRANCH  21  23
ATOM     23  C   LIG A   1      -6.887  -3.242 124.185  0.00  0.00    +0.004 C 
BRANCH  23  24
ATOM     24  C   LIG A   1      -7.201  -2.193 123.098  0.00  0.00    +0.004 C 
BRANCH  24  25
ATOM     25  C   LIG A   1      -8.710  -1.972 122.829  0.00  0.00    -0.011 C 
ATOM     26  C   LIG A   1      -9.546  -3.134 123.382  0.00  0.00    +0.007 C 
BRANCH  25  27
ATOM     27  C   LIG A   1      -9.181  -0.578 123.356  0.00  0.00    -0.014 C 
ATOM     28  C   LIG A   1      -8.005   0.349 123.688  0.00  0.00    +0.007 C 
ATOM     29  C   LIG A   1     -10.152   0.155 122.423  0.00  0.00    +0.007 C 
ENDBRANCH  25  27
ENDBRANCH  24  25
ENDBRANCH  23  24
ENDBRANCH  21  23
ENDBRANCH   6  21
TORSDOF 5
ENDMDL
MODEL 5
REMARK VINA RESULT:      -7.7      4.785      9.200
REMARK  Name = NuBBE_1387
REMARK  11 active torsions:
REMARK  status: ('A' for Active; 'I' for Inactive)
REMARK    1  A    between atoms: C_1  and  C_2
REMARK    2  A    between atoms: C_6  and  C_8
REMARK    3  A    between atoms: C_8  and  C_10
REMARK    4  A    between atoms: C_8  and  C_18
REMARK    5  A    between atoms: C_10  and  C_11
REMARK    6  A    between atoms: C_11  and  C_12
REMARK    7  A    between atoms: C_12  and  C_14
REMARK    8  A    between atoms: C_12  and  C_15
REMARK    9  A    between atoms: C_15  and  C_16
REMARK   10  A    between atoms: C_15  and  C_17
REMARK   11  A    between atoms: C_23  and  C_32
REMARK                            x       y       z     vdW  Elec       q    Type
REMARK                         _______ _______ _______ _____ _____    ______ ____
ROOT
ATOM      1  C   LIG A   1      -9.282   1.025 132.202  0.00  0.00    +0.012 C 
ATOM      2  C   LIG A   1      -8.328   1.485 131.080  0.00  0.00    -0.026 C 
ATOM      3  C   LIG A   1      -7.260   2.470 131.651  0.00  0.00    -0.001 C 
ATOM      4  C   LIG A   1      -6.093   2.278 130.682  0.00  0.00    +0.004 C 
ATOM      5  C   LIG A   1      -6.033   0.773 130.469  0.00  0.00    +0.004 C 
ATOM      6  C   LIG A   1      -7.481   0.236 130.584  0.00  0.00    -0.002 C 
ATOM      7  C   LIG A   1      -7.656   3.970 131.802  0.00  0.00    -0.003 C 
ATOM      8  C   LIG A   1      -8.479   4.525 130.597  0.00  0.00    +0.002 C 
ATOM      9  C   LIG A   1      -8.973   6.006 130.816  0.00  0.00    -0.007 C 
ATOM     10  C   LIG A   1      -9.695   6.072 132.156  0.00  0.00    -0.060 C 
ATOM     11  C   LIG A   1      -8.871   5.653 133.348  0.00  0.00    +0.032 C 
ATOM     12  C   LIG A   1      -8.351   4.225 133.161  0.00  0.00    +0.008 C 
ATOM     13  C   LIG A   1     -10.992   6.387 132.304  0.00  0.00    +0.046 C 
ATOM     14  C   LIG A   1     -11.884   6.625 131.146  0.00  0.00    +0.156 C 
ATOM     15  C   LIG A   1     -11.364   6.308 129.769  0.00  0.00    +0.080 C 
ATOM     16  C   LIG A   1      -9.863   6.537 129.648  0.00  0.00    +0.019 C 
ATOM     17  O   LIG A   1     -13.044   6.964 131.341  0.00  0.00    -0.293 OA
ATOM     18  C   LIG A   1      -7.738   6.950 130.832  0.00  0.00    +0.016 C 
ATOM     19  C   LIG A   1      -9.616   3.558 130.260  0.00  0.00    +0.005 C 
ATOM     20  C   LIG A   1      -9.105   2.165 129.937  0.00  0.00    +0.007 C 
ENDROOT
BRANCH   6  21
ATOM     21  C   LIG A   1      -7.939  -0.529 129.290  0.00  0.00    -0.010 C 
ATOM     22  C   LIG A   1      -7.974  -2.060 129.455  0.00  0.00    +0.008 C 
BRANCH  21  23
ATOM     23  C   LIG A   1      -7.018  -0.206 128.072  0.00  0.00    +0.004 C 
BRANCH  23  24
ATOM     24  C   LIG A   1      -7.663  -0.546 126.712  0.00  0.00    +0.004 C 
BRANCH  24  25
ATOM     25  C   LIG A   1      -6.966  -1.688 125.933  0.00  0.00    -0.011 C 
ATOM     26  C   LIG A   1      -5.597  -2.019 126.543  0.00  0.00    +0.007 C 
BRANCH  25  27
ATOM     27  C   LIG A   1      -7.895  -2.939 125.809  0.00  0.00    -0.014 C 
ATOM     28  C   LIG A   1      -9.379  -2.580 125.955  0.00  0.00    +0.007 C 
ATOM     29  C   LIG A   1      -7.697  -3.747 124.521  0.00  0.00    +0.007 C 
ENDBRANCH  25  27
ENDBRANCH  24  25
ENDBRANCH  23  24
ENDBRANCH  21  23
ENDBRANCH   6  21
TORSDOF 5
ENDMDL
MODEL 6
REMARK VINA RESULT:      -7.6      3.883      5.957
REMARK  Name = NuBBE_1387
REMARK  11 active torsions:
REMARK  status: ('A' for Active; 'I' for Inactive)
REMARK    1  A    between atoms: C_1  and  C_2
REMARK    2  A    between atoms: C_6  and  C_8
REMARK    3  A    between atoms: C_8  and  C_10
REMARK    4  A    between atoms: C_8  and  C_18
REMARK    5  A    between atoms: C_10  and  C_11
REMARK    6  A    between atoms: C_11  and  C_12
REMARK    7  A    between atoms: C_12  and  C_14
REMARK    8  A    between atoms: C_12  and  C_15
REMARK    9  A    between atoms: C_15  and  C_16
REMARK   10  A    between atoms: C_15  and  C_17
REMARK   11  A    between atoms: C_23  and  C_32
REMARK                            x       y       z     vdW  Elec       q    Type
REMARK                         _______ _______ _______ _____ _____    ______ ____
ROOT
ATOM      1  C   LIG A   1      -6.345   2.501 129.899  0.00  0.00    +0.012 C 
ATOM      2  C   LIG A   1      -7.779   1.962 130.087  0.00  0.00    -0.026 C 
ATOM      3  C   LIG A   1      -7.765   0.704 131.011  0.00  0.00    -0.001 C 
ATOM      4  C   LIG A   1      -9.168   0.730 131.616  0.00  0.00    +0.004 C 
ATOM      5  C   LIG A   1      -9.399   2.197 131.950  0.00  0.00    +0.004 C 
ATOM      6  C   LIG A   1      -8.625   3.033 130.900  0.00  0.00    -0.002 C 
ATOM      7  C   LIG A   1      -7.432  -0.674 130.362  0.00  0.00    -0.003 C 
ATOM      8  C   LIG A   1      -8.107  -0.892 128.972  0.00  0.00    +0.002 C 
ATOM      9  C   LIG A   1      -7.669  -2.236 128.275  0.00  0.00    -0.007 C 
ATOM     10  C   LIG A   1      -6.146  -2.283 128.251  0.00  0.00    -0.060 C 
ATOM     11  C   LIG A   1      -5.483  -2.197 129.602  0.00  0.00    +0.032 C 
ATOM     12  C   LIG A   1      -5.903  -0.913 130.322  0.00  0.00    +0.008 C 
ATOM     13  C   LIG A   1      -5.406  -2.310 127.130  0.00  0.00    +0.046 C 
ATOM     14  C   LIG A   1      -6.011  -2.209 125.782  0.00  0.00    +0.156 C 
ATOM     15  C   LIG A   1      -7.474  -1.869 125.681  0.00  0.00    +0.080 C 
ATOM     16  C   LIG A   1      -8.280  -2.419 126.850  0.00  0.00    +0.019 C 
ATOM     17  O   LIG A   1      -5.293  -2.295 124.794  0.00  0.00    -0.293 OA
ATOM     18  C   LIG A   1      -8.224  -3.433 129.099  0.00  0.00    +0.016 C 
ATOM     19  C   LIG A   1      -7.882   0.340 128.091  0.00  0.00    +0.005 C 
ATOM     20  C   LIG A   1      -8.420   1.607 128.732  0.00  0.00    +0.007 C 
ENDROOT
BRANCH   6  21
ATOM     21  C   LIG A   1      -9.562   4.020 130.114  0.00  0.00    -0.010 C 
ATOM     22  C   LIG A   1      -8.817   5.213 129.487  0.00  0.00    +0.008 C 
BRANCH  21  23
ATOM     23  C   LIG A   1     -10.691   4.594 131.026  0.00  0.00    +0.004 C 
BRANCH  23  24
ATOM     24  C   LIG A   1     -10.878   6.118 130.878  0.00  0.00    +0.004 C 
BRANCH  24  25
ATOM     25  C   LIG A   1     -12.261   6.550 130.329  0.00  0.00    -0.011 C 
ATOM     26  C   LIG A   1     -12.918   7.592 131.244  0.00  0.00    +0.007 C 
BRANCH  25  27
ATOM     27  C   LIG A   1     -12.157   7.024 128.843  0.00  0.00    -0.014 C 
ATOM     28  C   LIG A   1     -13.534   7.218 128.195  0.00  0.00    +0.007 C 
ATOM     29  C   LIG A   1     -11.323   8.294 128.643  0.00  0.00    +0.007 C 
ENDBRANCH  25  27
ENDBRANCH  24  25
ENDBRANCH  23  24
ENDBRANCH  21  23
ENDBRANCH   6  21
TORSDOF 5
ENDMDL
MODEL 7
REMARK VINA RESULT:      -7.6      2.274      4.819
REMARK  Name = NuBBE_1387
REMARK  11 active torsions:
REMARK  status: ('A' for Active; 'I' for Inactive)
REMARK    1  A    between atoms: C_1  and  C_2
REMARK    2  A    between atoms: C_6  and  C_8
REMARK    3  A    between atoms: C_8  and  C_10
REMARK    4  A    between atoms: C_8  and  C_18
REMARK    5  A    between atoms: C_10  and  C_11
REMARK    6  A    between atoms: C_11  and  C_12
REMARK    7  A    between atoms: C_12  and  C_14
REMARK    8  A    between atoms: C_12  and  C_15
REMARK    9  A    between atoms: C_15  and  C_16
REMARK   10  A    between atoms: C_15  and  C_17
REMARK   11  A    between atoms: C_23  and  C_32
REMARK                            x       y       z     vdW  Elec       q    Type
REMARK                         _______ _______ _______ _____ _____    ______ ____
ROOT
ATOM      1  C   LIG A   1      -8.471   1.832 127.299  0.00  0.00    +0.012 C 
ATOM      2  C   LIG A   1      -7.268   1.006 127.802  0.00  0.00    -0.026 C 
ATOM      3  C   LIG A   1      -6.069   1.142 126.811  0.00  0.00    -0.001 C 
ATOM      4  C   LIG A   1      -4.867   0.889 127.720  0.00  0.00    +0.004 C 
ATOM      5  C   LIG A   1      -5.192   1.667 128.987  0.00  0.00    +0.004 C 
ATOM      6  C   LIG A   1      -6.733   1.651 129.151  0.00  0.00    -0.002 C 
ATOM      7  C   LIG A   1      -6.056   0.222 125.552  0.00  0.00    -0.003 C 
ATOM      8  C   LIG A   1      -6.500  -1.246 125.842  0.00  0.00    +0.002 C 
ATOM      9  C   LIG A   1      -6.595  -2.132 124.543  0.00  0.00    -0.007 C 
ATOM     10  C   LIG A   1      -7.466  -1.399 123.531  0.00  0.00    -0.060 C 
ATOM     11  C   LIG A   1      -6.980  -0.023 123.147  0.00  0.00    +0.032 C 
ATOM     12  C   LIG A   1      -6.852   0.863 124.389  0.00  0.00    +0.008 C 
ATOM     13  C   LIG A   1      -8.633  -1.864 123.056  0.00  0.00    +0.046 C 
ATOM     14  C   LIG A   1      -9.238  -3.124 123.545  0.00  0.00    +0.156 C 
ATOM     15  C   LIG A   1      -8.622  -3.792 124.745  0.00  0.00    +0.080 C 
ATOM     16  C   LIG A   1      -7.115  -3.578 124.820  0.00  0.00    +0.019 C 
ATOM     17  O   LIG A   1     -10.275  -3.529 123.036  0.00  0.00    -0.293 OA
ATOM     18  C   LIG A   1      -5.165  -2.332 123.966  0.00  0.00    +0.016 C 
ATOM     19  C   LIG A   1      -7.795  -1.240 126.659  0.00  0.00    +0.005 C 
ATOM     20  C   LIG A   1      -7.644  -0.479 127.964  0.00  0.00    +0.007 C 
ENDROOT
BRANCH   6  21
ATOM     21  C   LIG A   1      -7.181   1.030 130.523  0.00  0.00    -0.010 C 
ATOM     22  C   LIG A   1      -7.838   2.045 131.477  0.00  0.00    +0.008 C 
BRANCH  21  23
ATOM     23  C   LIG A   1      -5.983   0.377 131.280  0.00  0.00    +0.004 C 
BRANCH  23  24
ATOM     24  C   LIG A   1      -6.076  -1.161 131.360  0.00  0.00    +0.004 C 
BRANCH  24  25
ATOM     25  C   LIG A   1      -5.447  -1.910 130.159  0.00  0.00    -0.011 C 
ATOM     26  C   LIG A   1      -3.922  -1.737 130.137  0.00  0.00    +0.007 C 
BRANCH  25  27
ATOM     27  C   LIG A   1      -5.889  -3.409 130.133  0.00  0.00    -0.014 C 
ATOM     28  C   LIG A   1      -5.810  -4.066 131.518  0.00  0.00    +0.007 C 
ATOM     29  C   LIG A   1      -7.284  -3.646 129.544  0.00  0.00    +0.007 C 
ENDBRANCH  25  27
ENDBRANCH  24  25
ENDBRANCH  23  24
ENDBRANCH  21  23
ENDBRANCH   6  21
TORSDOF 5
ENDMDL
MODEL 8
REMARK VINA RESULT:      -7.6      4.700      8.577
REMARK  Name = NuBBE_1387
REMARK  11 active torsions:
REMARK  status: ('A' for Active; 'I' for Inactive)
REMARK    1  A    between atoms: C_1  and  C_2
REMARK    2  A    between atoms: C_6  and  C_8
REMARK    3  A    between atoms: C_8  and  C_10
REMARK    4  A    between atoms: C_8  and  C_18
REMARK    5  A    between atoms: C_10  and  C_11
REMARK    6  A    between atoms: C_11  and  C_12
REMARK    7  A    between atoms: C_12  and  C_14
REMARK    8  A    between atoms: C_12  and  C_15
REMARK    9  A    between atoms: C_15  and  C_16
REMARK   10  A    between atoms: C_15  and  C_17
REMARK   11  A    between atoms: C_23  and  C_32
REMARK                            x       y       z     vdW  Elec       q    Type
REMARK                         _______ _______ _______ _____ _____    ______ ____
ROOT
ATOM      1  C   LIG A   1      -9.205   0.836 131.854  0.00  0.00    +0.012 C 
ATOM      2  C   LIG A   1      -8.156   1.382 130.863  0.00  0.00    -0.026 C 
ATOM      3  C   LIG A   1      -7.133   2.295 131.611  0.00  0.00    -0.001 C 
ATOM      4  C   LIG A   1      -5.889   2.176 130.731  0.00  0.00    +0.004 C 
ATOM      5  C   LIG A   1      -5.820   0.695 130.387  0.00  0.00    +0.004 C 
ATOM      6  C   LIG A   1      -7.277   0.171 130.329  0.00  0.00    -0.002 C 
ATOM      7  C   LIG A   1      -7.532   3.781 131.864  0.00  0.00    -0.003 C 
ATOM      8  C   LIG A   1      -8.244   4.455 130.650  0.00  0.00    +0.002 C 
ATOM      9  C   LIG A   1      -8.746   5.917 130.961  0.00  0.00    -0.007 C 
ATOM     10  C   LIG A   1      -9.579   5.871 132.235  0.00  0.00    -0.060 C 
ATOM     11  C   LIG A   1      -8.863   5.334 133.449  0.00  0.00    +0.032 C 
ATOM     12  C   LIG A   1      -8.339   3.922 133.178  0.00  0.00    +0.008 C 
ATOM     13  C   LIG A   1     -10.882   6.190 132.300  0.00  0.00    +0.046 C 
ATOM     14  C   LIG A   1     -11.670   6.545 131.098  0.00  0.00    +0.156 C 
ATOM     15  C   LIG A   1     -11.036   6.347 129.747  0.00  0.00    +0.080 C 
ATOM     16  C   LIG A   1      -9.528   6.564 129.775  0.00  0.00    +0.019 C 
ATOM     17  O   LIG A   1     -12.840   6.881 131.224  0.00  0.00    -0.293 OA
ATOM     18  C   LIG A   1      -7.510   6.838 131.168  0.00  0.00    +0.016 C 
ATOM     19  C   LIG A   1      -9.354   3.539 130.130  0.00  0.00    +0.005 C 
ATOM     20  C   LIG A   1      -8.827   2.174 129.725  0.00  0.00    +0.007 C 
ENDROOT
BRANCH   6  21
ATOM     21  C   LIG A   1      -7.628  -0.467 128.936  0.00  0.00    -0.010 C 
ATOM     22  C   LIG A   1      -7.915  -1.978 129.002  0.00  0.00    +0.008 C 
BRANCH  21  23
ATOM     23  C   LIG A   1      -6.483  -0.249 127.897  0.00  0.00    +0.004 C 
BRANCH  23  24
ATOM     24  C   LIG A   1      -6.999   0.098 126.485  0.00  0.00    +0.004 C 
BRANCH  24  25
ATOM     25  C   LIG A   1      -6.894   1.596 126.108  0.00  0.00    -0.011 C 
ATOM     26  C   LIG A   1      -8.281   2.250 126.048  0.00  0.00    +0.007 C 
BRANCH  25  27
ATOM     27  C   LIG A   1      -5.907   2.351 127.056  0.00  0.00    -0.014 C 
ATOM     28  C   LIG A   1      -4.482   2.407 126.491  0.00  0.00    +0.007 C 
ATOM     29  C   LIG A   1      -6.354   3.768 127.435  0.00  0.00    +0.007 C 
ENDBRANCH  25  27
ENDBRANCH  24  25
ENDBRANCH  23  24
ENDBRANCH  21  23
ENDBRANCH   6  21
TORSDOF 5
ENDMDL
MODEL 9
REMARK VINA RESULT:      -7.5      4.285      8.234
REMARK  Name = NuBBE_1387
REMARK  11 active torsions:
REMARK  status: ('A' for Active; 'I' for Inactive)
REMARK    1  A    between atoms: C_1  and  C_2
REMARK    2  A    between atoms: C_6  and  C_8
REMARK    3  A    between atoms: C_8  and  C_10
REMARK    4  A    between atoms: C_8  and  C_18
REMARK    5  A    between atoms: C_10  and  C_11
REMARK    6  A    between atoms: C_11  and  C_12
REMARK    7  A    between atoms: C_12  and  C_14
REMARK    8  A    between atoms: C_12  and  C_15
REMARK    9  A    between atoms: C_15  and  C_16
REMARK   10  A    between atoms: C_15  and  C_17
REMARK   11  A    between atoms: C_23  and  C_32
REMARK                            x       y       z     vdW  Elec       q    Type
REMARK                         _______ _______ _______ _____ _____    ______ ____
ROOT
ATOM      1  C   LIG A   1      -8.213   0.559 130.287  0.00  0.00    +0.012 C 
ATOM      2  C   LIG A   1      -6.938   1.317 129.862  0.00  0.00    -0.026 C 
ATOM      3  C   LIG A   1      -6.016   1.556 131.098  0.00  0.00    -0.001 C 
ATOM      4  C   LIG A   1      -4.632   1.655 130.456  0.00  0.00    +0.004 C 
ATOM      5  C   LIG A   1      -4.625   0.539 129.421  0.00  0.00    +0.004 C 
ATOM      6  C   LIG A   1      -6.079   0.379 128.910  0.00  0.00    -0.002 C 
ATOM      7  C   LIG A   1      -6.326   2.779 132.015  0.00  0.00    -0.003 C 
ATOM      8  C   LIG A   1      -6.710   4.071 131.228  0.00  0.00    +0.002 C 
ATOM      9  C   LIG A   1      -7.134   5.264 132.166  0.00  0.00    -0.007 C 
ATOM     10  C   LIG A   1      -8.213   4.760 133.116  0.00  0.00    -0.060 C 
ATOM     11  C   LIG A   1      -7.813   3.585 133.973  0.00  0.00    +0.032 C 
ATOM     12  C   LIG A   1      -7.370   2.411 133.096  0.00  0.00    +0.008 C 
ATOM     13  C   LIG A   1      -9.468   5.236 133.158  0.00  0.00    +0.046 C 
ATOM     14  C   LIG A   1      -9.957   6.261 132.209  0.00  0.00    +0.156 C 
ATOM     15  C   LIG A   1      -9.078   6.629 131.043  0.00  0.00    +0.080 C 
ATOM     16  C   LIG A   1      -7.595   6.532 131.380  0.00  0.00    +0.019 C 
ATOM     17  O   LIG A   1     -11.094   6.699 132.330  0.00  0.00    -0.293 OA
ATOM     18  C   LIG A   1      -5.892   5.732 132.975  0.00  0.00    +0.016 C 
ATOM     19  C   LIG A   1      -7.766   3.736 130.171  0.00  0.00    +0.005 C 
ATOM     20  C   LIG A   1      -7.288   2.666 129.205  0.00  0.00    +0.007 C 
ENDROOT
BRANCH   6  21
ATOM     21  C   LIG A   1      -6.189   0.568 127.354  0.00  0.00    -0.010 C 
ATOM     22  C   LIG A   1      -6.534  -0.728 126.597  0.00  0.00    +0.008 C 
BRANCH  21  23
ATOM     23  C   LIG A   1      -4.868   1.133 126.746  0.00  0.00    +0.004 C 
BRANCH  23  24
ATOM     24  C   LIG A   1      -5.083   2.397 125.888  0.00  0.00    +0.004 C 
BRANCH  24  25
ATOM     25  C   LIG A   1      -4.244   3.624 126.322  0.00  0.00    -0.011 C 
ATOM     26  C   LIG A   1      -5.139   4.727 126.903  0.00  0.00    +0.007 C 
BRANCH  25  27
ATOM     27  C   LIG A   1      -3.089   3.207 127.288  0.00  0.00    -0.014 C 
ATOM     28  C   LIG A   1      -1.745   3.060 126.563  0.00  0.00    +0.007 C 
ATOM     29  C   LIG A   1      -2.909   4.135 128.495  0.00  0.00    +0.007 C 
ENDBRANCH  25  27
ENDBRANCH  24  25
ENDBRANCH  23  24
ENDBRANCH  21  23
ENDBRANCH   6  21
TORSDOF 5
ENDMDL
